data_image0
_chemical_formula_structural       K4H36C28N8O24
_chemical_formula_sum              "K4 H36 C28 N8 O24"
_cell_length_a       6.8805777550019664
_cell_length_b       7.0731049880038475
_cell_length_c       21.241588740015292
_cell_angle_alpha    90.00011333944074
_cell_angle_beta     90.00007725306524
_cell_angle_gamma    90.00003916198527

_space_group_name_H-M_alt    "P 1"
_space_group_IT_number       1

loop_
  _space_group_symop_operation_xyz
  'x, y, z'

loop_
  _atom_site_type_symbol
  _atom_site_label
  _atom_site_symmetry_multiplicity
  _atom_site_fract_x
  _atom_site_fract_y
  _atom_site_fract_z
  _atom_site_occupancy
  K   K1        1.0  0.7499997731796172  0.6228264466630121  0.7152801988437643  1.0000
  K   K2        1.0  0.2499957486814992  0.8771741884986923  0.21527896687726403  1.0000
  K   K3        1.0  0.7499997442819434  0.12282700602089143  0.7847197557694796  1.0000
  K   K4        1.0  0.2500015332446991  0.3771733340466739  0.2847166407054614  1.0000
  H   H1        1.0  0.7500007800111204  0.5281474934879357  0.5169913273137323  1.0000
  H   H2        1.0  0.24999827468433716  0.9718533746848977  0.0169915698855903  1.0000
  H   H3        1.0  0.7500001250142105  0.0281435784225366  0.9830090358587071  1.0000
  H   H4        1.0  0.2499990730542407  0.47185370103731117  0.4830088076577042  1.0000
  H   H5        1.0  0.7500008908134602  0.30599214521546264  0.6071158689857653  1.0000
  H   H6        1.0  0.2499996457515721  0.19400855104634476  0.10711639975871627  1.0000
  H   H7        1.0  0.750000207315267  0.8059912296754629  0.8928846767614116  1.0000
  H   H8        1.0  0.24999896225288148  0.6940090493111841  0.39288473676025143  1.0000
  H   H9        1.0  0.74999935311795  0.8354834078747828  0.4784844215864297  1.0000
  H   H10       1.0  0.2499972668432946  0.6645187946597346  0.9784845215237894  1.0000
  H   H11       1.0  0.7500011328542654  0.33548098605737653  0.021515142672285492  1.0000
  H   H12       1.0  0.2500004999488894  0.16451920045810914  0.5215161841600491  1.0000
  H   H13       1.0  0.7500005598526441  0.5738611676799793  0.4038359644834983  1.0000
  H   H14       1.0  0.24999865540313954  0.9261363489078249  0.903835765558625  1.0000
  H   H15       1.0  0.7499997442954084  0.07386343181069321  0.09616436941202978  1.0000
  H   H16       1.0  0.2499992932127171  0.42613719923418364  0.5961646412615876  1.0000
  H   H17       1.0  0.7500003848974828  0.3750699619392465  0.3530812210148752  1.0000
  H   H18       1.0  0.2499982711101154  0.12492937142132383  0.8530817657132559  1.0000
  H   H19       1.0  0.750000128589413  0.8750704092985941  0.1469188400319723  1.0000
  H   H20       1.0  0.24999946816738833  0.624926991168671  0.6469193847297419  1.0000
  H   H21       1.0  0.09804579758075958  0.3676187706301662  0.7562759648536211  1.0000
  H   H22       1.0  0.9019524545538288  0.13238422767903302  0.2562767392202829  1.0000
  H   H23       1.0  0.4019564704643841  0.8676170689828311  0.7437248742889508  1.0000
  H   H24       1.0  0.5980449835312599  0.6323809079522178  0.24372269157954202  1.0000
  H   H25       1.0  0.9019569622172483  0.6323795962849703  0.24372464089208987  1.0000
  H   H26       1.0  0.09804303841599449  0.8676183806551948  0.7437248080744041  1.0000
  H   H27       1.0  0.5980419292336734  0.1323812979294416  0.25627526068123524  1.0000
  H   H28       1.0  0.40195632289600525  0.36761887276166755  0.7562755602934244  1.0000
  H   H29       1.0  0.0898588123028219  0.26778688425083896  0.6900817290162493  1.0000
  H   H30       1.0  0.9101406170310824  0.23221430606642463  0.19008163100112796  1.0000
  H   H31       1.0  0.4101419329943354  0.7677869960965965  0.809919515300919  1.0000
  H   H32       1.0  0.5898583438024829  0.7322142026366338  0.3099173946245698  1.0000
  H   H33       1.0  0.910141040763527  0.7322143102758077  0.30991887672976753  1.0000
  H   H34       1.0  0.0898577826699167  0.7677868884611386  0.8099194455191421  1.0000
  H   H35       1.0  0.5898564667042124  0.2322127846219217  0.19008061966972886  1.0000
  H   H36       1.0  0.4101415092599296  0.26778699188440674  0.6900813280231259  1.0000
  C   C1        1.0  0.7500004620277209  0.10638763898239031  0.4348146613011535  1.0000
  C   C2        1.0  0.25000434844132974  0.39361500871196853  0.9348153825550082  1.0000
  C   C3        1.0  0.7500013180893318  0.6063833582041485  0.0651852231913423  1.0000
  C   C4        1.0  0.25000084440543446  0.8936149693509992  0.5651859444456376  1.0000
  C   C5        1.0  0.7500005538985873  0.3080544066077309  0.4452612154713193  1.0000
  C   C6        1.0  0.25000139341896943  0.1919454756801073  0.9452613334323484  1.0000
  C   C7        1.0  0.7499999130132053  0.8080543050407912  0.05473927231351888  1.0000
  C   C8        1.0  0.24999929916628358  0.6919453741112778  0.5547389194996484  1.0000
  C   C9        1.0  0.7500021630824777  0.3761859181431716  0.5086077236806332  1.0000
  C   C10       1.0  0.24999941586930413  0.1238141915075843  0.0086082083282335  1.0000
  C   C11       1.0  0.7500004371950696  0.8761813477940876  0.9913923974159216  1.0000
  C   C12       1.0  0.24999914334773618  0.6238166901860113  0.4913914697424244  1.0000
  C   C13       1.0  0.7500022256787345  0.2545393509383373  0.5588798179245984  1.0000
  C   C14       1.0  0.24999810964384747  0.24546105808013863  0.05888038250682829  1.0000
  C   C15       1.0  0.750000290056171  0.7545373088349407  0.941120694012511  1.0000
  C   C16       1.0  0.24999762738760717  0.7454646711994  0.44112031704776183  1.0000
  C   C17       1.0  0.7499992277061623  0.05774879953122541  0.5479234164866539  1.0000
  C   C18       1.0  0.24999960853791237  0.4422515442394824  0.0479231688331652  1.0000
  C   C19       1.0  0.7500002445254806  0.5577468226718737  0.9520764953627603  1.0000
  C   C20       1.0  0.2500006253611673  0.9422552226079118  0.4520771892602866  1.0000
  C   C21       1.0  0.7500008759424545  0.9870180127520881  0.48653801209987774  1.0000
  C   C22       1.0  0.2500001377179117  0.5129828239375201  0.98653848323719  1.0000
  C   C23       1.0  0.7499997153464691  0.48701554297524297  0.013461651733315696  1.0000
  C   C24       1.0  0.2500004304897203  0.0129845955798942  0.5134621228723333  1.0000
  C   C25       1.0  0.7500002975717592  0.0189421175912017  0.37054448702212983  1.0000
  C   C26       1.0  0.2500013380238784  0.4810559059549249  0.870544324185772  1.0000
  C   C27       1.0  0.7499999684063281  0.5189410471520758  0.1294558107845845  1.0000
  C   C28       1.0  0.24999955549360203  0.9810562493229613  0.6294561187229489  1.0000
  N   N1        1.0  0.750000496928692  0.43089706133292777  0.3974870515374106  1.0000
  N   N2        1.0  0.24999979770784359  0.0691025364626654  0.8974875595518055  1.0000
  N   N3        1.0  0.7500000553580078  0.9308972442577428  0.10251304619374219  1.0000
  N   N4        1.0  0.24999935613470106  0.5691013055784284  0.602512612658515  1.0000
  N   N5        1.0  0.7499996387174476  0.9307050326679799  0.5995333080904357  1.0000
  N   N6        1.0  0.2499997603455313  0.569293499426614  0.09953375691323879  1.0000
  N   N7        1.0  0.7500000927178692  0.4307020398736584  0.9004663780563291  1.0000
  N   N8        1.0  0.2500002143484039  0.06929757566351209  0.4004668268814626  1.0000
  O   O1        1.0  0.7499991204939747  0.8389157956980283  0.36639676161008333  1.0000
  O   O2        1.0  0.24999848520137388  0.6610843255567501  0.8663978008407935  1.0000
  O   O3        1.0  0.749999914495703  0.3389140413541157  0.1336018633548193  1.0000
  O   O4        1.0  0.2500007325704061  0.16108257121473463  0.6336033733604153  1.0000
  O   O5        1.0  0.7499973301007898  0.13009825031613076  0.3229106100725403  1.0000
  O   O6        1.0  0.2499997466664823  0.3699023171832891  0.8229103741958211  1.0000
  O   O7        1.0  0.7500015597632342  0.6300960497285575  0.17708929000042417  1.0000
  O   O8        1.0  0.2500010695987385  0.8699015304037871  0.677089995672695  1.0000
  O   O9        1.0  0.7499995566362685  0.7550763357058231  0.5894421972824446  1.0000
  O   O10       1.0  0.24999980032598046  0.7449235501018662  0.0894422907380203  1.0000
  O   O11       1.0  0.7500000527334832  0.2550719891927998  0.9105559611332408  1.0000
  O   O12       1.0  0.25000029642860266  0.24492910023535328  0.41055699614121705  1.0000
  O   O13       1.0  0.7499997763838379  0.9960640456245643  0.6546403187038619  1.0000
  O   O14       1.0  0.2499998525884308  0.5039376422420644  0.15464072457982064  1.0000
  O   O15       1.0  0.7500000004764401  0.496059310865853  0.8453598811647963  1.0000
  O   O16       1.0  0.2500000766834845  0.003939976514573099  0.3453602870430784  1.0000
  O   O17       1.0  0.011317531375411197  0.3428077478566749  0.7200564247828893  1.0000
  O   O18       1.0  0.9886820230168994  0.1571964485737567  0.22005725324547845  1.0000
  O   O19       1.0  0.48868326605882834  0.8428063201851116  0.7799439272813797  1.0000
  O   O20       1.0  0.5113168856790935  0.6571961138508869  0.27994172308536486  1.0000
  O   O21       1.0  0.9886837750562733  0.6571934466690621  0.27994371018886  1.0000
  O   O22       1.0  0.011316376684597201  0.8428061597600518  0.7799438232752607  1.0000
  O   O23       1.0  0.5113151336392292  0.157194874338245  0.22005573691515673  1.0000
  O   O24       1.0  0.48868296738282874  0.3428064944749991  0.7200565287882198  1.0000
