data_image0
_chemical_formula_structural       Cd2H8C4O12
_chemical_formula_sum              "Cd2 H8 C4 O12"
_cell_length_a       6.054658340406378
_cell_length_b       6.411018497873806
_cell_length_c       8.869692069703616
_cell_angle_alpha    74.8074838079732
_cell_angle_beta     73.21417298178625
_cell_angle_gamma    79.40627387765882

_space_group_name_H-M_alt    "P 1"
_space_group_IT_number       1

loop_
  _space_group_symop_operation_xyz
  'x, y, z'

loop_
  _atom_site_type_symbol
  _atom_site_label
  _atom_site_symmetry_multiplicity
  _atom_site_fract_x
  _atom_site_fract_y
  _atom_site_fract_z
  _atom_site_occupancy
  Cd  Cd1       1.0  0.040038689028513395  0.3137608283464957  0.7084391596378765  1.0000
  Cd  Cd2       1.0  0.9599562956179354  0.6862328660697656  0.29156860617380437  1.0000
  H   H1        1.0  0.0969838889062231  0.8636751069716694  0.6815906621428667  1.0000
  H   H2        1.0  0.9030033414647818  0.13632666341823813  0.3184091233624642  1.0000
  H   H3        1.0  0.33706410666420794  0.9573926576643786  0.6416534251937307  1.0000
  H   H4        1.0  0.6629310789810319  0.04261542734394651  0.3583379302384273  1.0000
  H   H5        1.0  0.7662488938821782  0.01060126755754  0.9332192600513308  1.0000
  H   H6        1.0  0.2337626945707001  0.989382568446672  0.06679173580693029  1.0000
  H   H7        1.0  0.607408830865495  0.1738640151863323  0.8211269181098544  1.0000
  H   H8        1.0  0.39257427456737304  0.8261281279166254  0.17888007965018468  1.0000
  C   C1        1.0  0.9624389768898851  0.6143091364928781  0.9502502222092846  1.0000
  C   C2        1.0  0.037572466754156195  0.38569230537615345  0.049741540649137106  1.0000
  C   C3        1.0  0.43335354176301893  0.5747875053020765  0.43841759801563274  1.0000
  C   C4        1.0  0.5666679391661091  0.42518615683230376  0.5615754437091738  1.0000
  O   O1        1.0  0.9860344211092595  0.6340165388730555  0.7996837112927935  1.0000
  O   O2        1.0  0.013964829998705906  0.36600129117206137  0.20030718535947048  1.0000
  O   O3        1.0  0.8847708411362802  0.7659422607044774  0.024260741291826104  1.0000
  O   O4        1.0  0.11522861536063538  0.23408868592087373  0.9757342911364049  1.0000
  O   O5        1.0  0.22742611347204192  0.5368522327944875  0.4567765640986678  1.0000
  O   O6        1.0  0.7725710011053836  0.4631233262471995  0.5432208378046184  1.0000
  O   O7        1.0  0.5387792560593853  0.7200524860179699  0.33026843257807303  1.0000
  O   O8        1.0  0.46122313430745265  0.27992156460585704  0.6697383897164357  1.0000
  O   O9        1.0  0.184680318365018  0.9908406230541972  0.6188441193251321  1.0000
  O   O10       1.0  0.815317855669818  0.009186931309088197  0.3811428117827305  1.0000
  O   O11       1.0  0.7190823269397626  0.1660803149953551  0.8858376108904479  1.0000
  O   O12       1.0  0.2809103972696008  0.8339478270235006  0.11418070640614536  1.0000
