data_image0
_chemical_formula_structural       Ni4H40C40N8Cl8
_chemical_formula_sum              "Ni4 H40 C40 N8 Cl8"
_cell_length_a       3.602184065051823
_cell_length_b       17.034981273808224
_cell_length_c       18.871855615633287
_cell_angle_alpha    116.5283310898998
_cell_angle_beta     90.00032218752712
_cell_angle_gamma    90.00033497127725

_space_group_name_H-M_alt    "P 1"
_space_group_IT_number       1

loop_
  _space_group_symop_operation_xyz
  'x, y, z'

loop_
  _atom_site_type_symbol
  _atom_site_label
  _atom_site_symmetry_multiplicity
  _atom_site_fract_x
  _atom_site_fract_y
  _atom_site_fract_z
  _atom_site_occupancy
  Ni  Ni1       1.0  0.43202166044215323  0.7500010590608427  0.9999985845666615  1.0000
  Ni  Ni2       1.0  0.5679820269981518  0.24999851287358152  0.9999987850372278  1.0000
  Ni  Ni3       1.0  0.8355706656801019  0.2500003571567789  0.500001433944476  1.0000
  Ni  Ni4       1.0  0.1644544143777367  0.7499990466906611  0.49999885619386936  1.0000
  H   H1        1.0  0.5830609729113193  0.8516764480834098  0.17210920145489444  1.0000
  H   H2        1.0  0.5830593768268103  0.6483205812490596  0.8278879995835808  1.0000
  H   H3        1.0  0.416933570122815  0.14832361299099972  0.8278908246828607  1.0000
  H   H4        1.0  0.4169434943540153  0.3516755512834209  0.17210672788441167  1.0000
  H   H5        1.0  0.2744641318364316  0.922433619568011  0.9982301042134196  1.0000
  H   H6        1.0  0.2744528880901668  0.5775699599827818  0.001769945815688405  1.0000
  H   H7        1.0  0.7255498438005573  0.07756579119448051  0.0017670093742055016  1.0000
  H   H8        1.0  0.7255610876021806  0.422431416786928  0.9982290229758917  1.0000
  H   H9        1.0  0.5748387887099611  0.0088328916815215  0.2771066048309265  1.0000
  H   H10       1.0  0.5748466796404657  0.491162665082733  0.722894956470313  1.0000
  H   H11       1.0  0.4251529782018082  0.9911665155934982  0.7228920970050509  1.0000
  H   H12       1.0  0.4251589676905283  0.5088328009567746  0.2771042703578175  1.0000
  H   H13       1.0  0.2516859845889741  0.0821728179003784  0.0947072088327729  1.0000
  H   H14       1.0  0.2516832607598189  0.4178305710429981  0.9052971746199177  1.0000
  H   H15       1.0  0.7483279910535289  0.9178272501220305  0.9052896407839696  1.0000
  H   H16       1.0  0.7483196105993457  0.5821701415277758  0.09470523467165753  1.0000
  H   H17       1.0  0.40622828349560086  0.12593913159959413  0.2373956352679301  1.0000
  H   H18       1.0  0.40623677138859904  0.37405802509804426  0.7626085120391082  1.0000
  H   H19       1.0  0.5937745877460899  0.8740596242000224  0.762600683433135  1.0000
  H   H20       1.0  0.5937716521068453  0.6259394046426578  0.2373936288423195  1.0000
  H   H21       1.0  0.7611132889578228  0.07420592121488312  0.49758053012779163  1.0000
  H   H22       1.0  0.7611072792519451  0.4257952885609769  0.5024224583449097  1.0000
  H   H23       1.0  0.23889791078396883  0.925796750445059  0.5024269109157588  1.0000
  H   H24       1.0  0.2389094724387846  0.5742021538882869  0.49757385888810296  1.0000
  H   H25       1.0  0.9109785551151506  0.3258759612982162  0.6736420202540928  1.0000
  H   H26       1.0  0.9109823874620915  0.17412688171397414  0.32636284955469114  1.0000
  H   H27       1.0  0.08903264466647441  0.6741286786779453  0.3263662171467701  1.0000
  H   H28       1.0  0.08902881203374591  0.8258705618838036  0.6736329382495967  1.0000
  H   H29       1.0  0.802355443324281  0.010267711487387003  0.5943322659517776  1.0000
  H   H30       1.0  0.8023400886218112  0.48973489831178796  0.4056718630799736  1.0000
  H   H31       1.0  0.1976446521484618  0.9897382349150876  0.40567914945975764  1.0000
  H   H32       1.0  0.19763779770917012  0.5102612353482527  0.5943223349403935  1.0000
  H   H33       1.0  0.9589918902969714  0.2732217069928282  0.7790615253701176  1.0000
  H   H34       1.0  0.9589802482572056  0.22678320559532492  0.220945293041396  1.0000
  H   H35       1.0  0.041002653055024006  0.7267875199307029  0.22095121729820735  1.0000
  H   H36       1.0  0.040972653181860594  0.7732116192904642  0.7790467857798332  1.0000
  H   H37       1.0  0.9167618256658302  0.1124367245641977  0.7376826673455524  1.0000
  H   H38       1.0  0.916742113941794  0.3875667904685258  0.2623208908746264  1.0000
  H   H39       1.0  0.08322161327533453  0.8875718497054663  0.2623282215895699  1.0000
  H   H40       1.0  0.08319968313628577  0.6124286905106902  0.7376714533882378  1.0000
  C   C1        1.0  0.5118269728695851  0.9052850237543879  0.15815070673338025  1.0000
  C   C2        1.0  0.5118298073509493  0.594711849591434  0.8418474145645336  1.0000
  C   C3        1.0  0.488175898353319  0.09471241867989728  0.8418456104861249  1.0000
  C   C4        1.0  0.48818139218145973  0.405286246648231  0.15815022696215664  1.0000
  C   C5        1.0  0.3411851833152042  0.9448088651678291  0.06050490088848198  1.0000
  C   C6        1.0  0.3411814303301953  0.5551935438172535  0.9394958069008794  1.0000
  C   C7        1.0  0.6588260162149453  0.0551898894862646  0.9394919472440081  1.0000
  C   C8        1.0  0.658829769297391  0.4448084867458634  0.06050448618707092  1.0000
  C   C9        1.0  0.5087587010861726  0.9922536916939179  0.21565299794014683  1.0000
  C   C10       1.0  0.5087601363080126  0.5077438265181939  0.7843475005325473  1.0000
  C   C11       1.0  0.49123584189035807  0.007745061787694901  0.7843443795994531  1.0000
  C   C12       1.0  0.4912371827721033  0.4922542673974847  0.21565119982727046  1.0000
  C   C13       1.0  0.32825301264536216  0.03321002058499538  0.11451050303855231  1.0000
  C   C14       1.0  0.3282427775484251  0.4667909114257043  0.885491908717782  1.0000
  C   C15       1.0  0.6717470825127807  0.9667880756426966  0.8854871384773304  1.0000
  C   C16       1.0  0.6717545415792757  0.5332091496516965  0.11450811742268026  1.0000
  C   C17       1.0  0.4135833083533883  0.0574500099718804  0.1935410546319503  1.0000
  C   C18       1.0  0.4135839380506496  0.4425484782595746  0.8064620496121577  1.0000
  C   C19       1.0  0.5864167867969954  0.9425480874103157  0.8064560574606147  1.0000
  C   C20       1.0  0.5864244854558152  0.5574502660009629  0.19353956332750502  1.0000
  C   C21       1.0  0.8082417670442652  0.11551425412756089  0.5604198462459422  1.0000
  C   C22       1.0  0.8082327298663828  0.3844877145813612  0.43958296994519225  1.0000
  C   C23       1.0  0.1917694327373596  0.8844903858486005  0.4395883911549134  1.0000
  C   C24       1.0  0.19176736523967017  0.6155097313134521  0.5604117590016602  1.0000
  C   C25       1.0  0.8900844758525253  0.256668316799214  0.6593353780570865  1.0000
  C   C26       1.0  0.8900907063682129  0.24333316892721507  0.3406689201980342  1.0000
  C   C27       1.0  0.10992394780898  0.7433350109631363  0.3406723284361988  1.0000
  C   C28       1.0  0.10991771703180582  0.7566649330819859  0.6593260742093535  1.0000
  C   C29       1.0  0.8321275724667673  0.08072953557633869  0.6144049715617398  1.0000
  C   C30       1.0  0.8321096142255444  0.4192724835004213  0.3855984205158052  1.0000
  C   C31       1.0  0.16785309025684111  0.9192744505704908  0.3856019415103376  1.0000
  C   C32       1.0  0.1678543916719306  0.5807249612009501  0.6143968378192568  1.0000
  C   C33       1.0  0.9186592324909241  0.22716588197778984  0.7169752611630288  1.0000
  C   C34       1.0  0.9186479553496412  0.2728389459048586  0.2830304199317553  1.0000
  C   C35       1.0  0.0813242064557471  0.772843349551792  0.28303536380121846  1.0000
  C   C36       1.0  0.08132715485572109  0.727155218281446  0.716963511151917  1.0000
  C   C37       1.0  0.8927649882731714  0.1374801167654383  0.6939690381147301  1.0000
  C   C38       1.0  0.8927541741041979  0.36252400030176807  0.30603579772540007  1.0000
  C   C39       1.0  0.10722677894868582  0.8625284575132072  0.3060418508284926  1.0000
  C   C40       1.0  0.10720705564435923  0.6374714783893936  0.693957605403007  1.0000
  N   N1        1.0  0.4298474641082636  0.881398760070269  0.08163505966161477  1.0000
  N   N2        1.0  0.42984490202202613  0.6186031864024172  0.9183644963294669  1.0000
  N   N3        1.0  0.5701637354639715  0.11860130448562241  0.9183633782223878  1.0000
  N   N4        1.0  0.5701635214776816  0.3813975331013921  0.0816347364275885  1.0000
  N   N5        1.0  0.8400101599474397  0.2019548740597514  0.5821380301456003  1.0000
  N   N6        1.0  0.8400091186790064  0.2980478169923019  0.4178661721603731  1.0000
  N   N7        1.0  0.15999826369854026  0.798048456011614  0.4178686175010498  1.0000
  N   N8        1.0  0.15999930473103063  0.7019496254479805  0.5821301450645322  1.0000
  Cl  Cl1       1.0  0.9324951326851902  0.778235601227216  0.9265851668731812  1.0000
  Cl  Cl2       1.0  0.9324956675306383  0.721764808718156  0.07341271698290805  1.0000
  Cl  Cl3       1.0  0.06751606689930871  0.22176314534532793  0.0734153872225392  1.0000
  Cl  Cl4       1.0  0.0675155319839789  0.278233948244953  0.9265830723029396  1.0000
  Cl  Cl5       1.0  0.3395801623295113  0.1482199591894613  0.4272940804836551  1.0000
  Cl  Cl6       1.0  0.33958798403278223  0.35178165107466003  0.5727096776272091  1.0000
  Cl  Cl7       1.0  0.6604504700805124  0.8517833685968556  0.5727136260312308  1.0000
  Cl  Cl8       1.0  0.6604398720166815  0.6482157936955986  0.4272855807699614  1.0000
