data_image0
_chemical_formula_structural       Co6H78C57N6O30
_chemical_formula_sum              "Co6 H78 C57 N6 O30"
_cell_length_a       8.475704927464765
_cell_length_b       17.028364914720985
_cell_length_c       17.017263957694784
_cell_angle_alpha    117.2944482352906
_cell_angle_beta     99.52769235365614
_cell_angle_gamma    99.5592355335502

_space_group_name_H-M_alt    "P 1"
_space_group_IT_number       1

loop_
  _space_group_symop_operation_xyz
  'x, y, z'

loop_
  _atom_site_type_symbol
  _atom_site_label
  _atom_site_symmetry_multiplicity
  _atom_site_fract_x
  _atom_site_fract_y
  _atom_site_fract_z
  _atom_site_occupancy
  Co  Co1       1.0  0.5873214832271643  0.9333876189961503  0.15328642762919042  1.0000
  Co  Co2       1.0  0.4347565279725316  0.8469001329737441  0.7802892345550776  1.0000
  Co  Co3       1.0  0.6540768933839232  0.2195643761304424  0.06645952906374933  1.0000
  Co  Co4       1.0  0.0316006116551364  0.06808351773328522  0.8498993584966926  1.0000
  Co  Co5       1.0  0.18157055355941762  0.15001376379468923  0.2182099067764085  1.0000
  Co  Co6       1.0  0.9632559439882514  0.7819176670646968  0.9322400498046407  1.0000
  H   H1        1.0  0.6017309955807592  0.8849781258635833  0.9768486779305975  1.0000
  H   H2        1.0  0.6251640824448259  0.0234324410103923  0.9083334385410565  1.0000
  H   H3        1.0  0.7168363109413746  0.09159821337442511  0.115052221778015  1.0000
  H   H4        1.0  0.41363224065806753  0.8775264544112888  0.9790452732657898  1.0000
  H   H5        1.0  0.4345480122328595  0.0207586809023468  0.8983842461090603  1.0000
  H   H6        1.0  0.5361873201456432  0.10150032537882231  0.1225185065142043  1.0000
  H   H7        1.0  0.018308737388657896  0.1232563883992057  0.02614992085786841  1.0000
  H   H8        1.0  0.9918506386070618  0.9741612114018211  0.09756793689139452  1.0000
  H   H9        1.0  0.8951756709998264  0.9028073838607825  0.8768123436503928  1.0000
  H   H10       1.0  0.2017550386394333  0.1167433128469  0.022407643022404517  1.0000
  H   H11       1.0  0.17866452282065381  0.9773162838773646  0.09434181568298083  1.0000
  H   H12       1.0  0.0852822980291847  0.9056005213996629  0.8832886482429814  1.0000
  H   H13       1.0  0.2796109651339195  0.9762491973831121  0.4440093602520038  1.0000
  H   H14       1.0  0.8348849708202338  0.5557623212335302  0.5315553378639493  1.0000
  H   H15       1.0  0.3026043824871465  0.46787228759304617  0.023584920109350177  1.0000
  H   H16       1.0  0.15267735642825636  0.8975765686380441  0.2916281191229402  1.0000
  H   H17       1.0  0.8605629956219047  0.7080692522346868  0.6054035956953926  1.0000
  H   H18       1.0  0.2545671086002272  0.39411010580573  0.10224328215748817  1.0000
  H   H19       1.0  0.00988957544164056  0.9494275449537429  0.2587970198555995  1.0000
  H   H20       1.0  0.7504719070033801  0.7408431037145463  0.6901104884762931  1.0000
  H   H21       1.0  0.05989285691298816  0.3094543234173344  0.050394315749692005  1.0000
  H   H22       1.0  0.9349650897916747  0.8428780880169315  0.2517661508649384  1.0000
  H   H23       1.0  0.6830060191504616  0.7482387753833137  0.5907180631621003  1.0000
  H   H24       1.0  0.09168391381213331  0.4088159823342253  0.15714717748666374  1.0000
  H   H25       1.0  0.32394118775064124  0.02401254222275641  0.6675820214931818  1.0000
  H   H26       1.0  0.6556654820013322  0.3323197606781748  0.3560185242076416  1.0000
  H   H27       1.0  0.2988264355204818  0.6436153673751548  0.975813896513685  1.0000
  H   H28       1.0  0.36460255582500173  0.13250137722296532  0.6742715392915031  1.0000
  H   H29       1.0  0.6894906546000141  0.32566854474625023  0.4579004373186707  1.0000
  H   H30       1.0  0.23077181939648034  0.5418139856062965  0.8673271414112664  1.0000
  H   H31       1.0  0.4275923649660101  0.0418980548287351  0.5927214209233682  1.0000
  H   H32       1.0  0.8340959962612685  0.4071077518046167  0.4486868668882024  1.0000
  H   H33       1.0  0.38467752674220895  0.5509616278573617  0.9578816640546818  1.0000
  H   H34       1.0  0.1416047503866906  0.11214928122910812  0.7217319674273953  1.0000
  H   H35       1.0  0.4193240015651369  0.27840399903779206  0.3904499791399161  1.0000
  H   H36       1.0  0.028395673071763407  0.6097074716858232  0.8880314913529191  1.0000
  H   H37       1.0  0.9404545641099914  0.12318163860851433  0.7001850928127524  1.0000
  H   H38       1.0  0.23969936707976564  0.3000514316068887  0.42308856923688154  1.0000
  H   H39       1.0  0.8162548248741287  0.5771920574751377  0.8772447331169105  1.0000
  H   H40       1.0  0.6167709547752908  0.9779526257242426  0.5138758809910584  1.0000
  H   H41       1.0  0.1022818542223618  0.48625599820618254  0.4637665186136957  1.0000
  H   H42       1.0  0.6382404763419203  0.5360807600952598  0.02263144425467813  1.0000
  H   H43       1.0  0.6610278513007728  0.0697138018678203  0.49198028486075174  1.0000
  H   H44       1.0  0.1684151207885378  0.5083631809930864  0.5775230057080378  1.0000
  H   H45       1.0  0.5905646863936056  0.42246296898876784  0.9308799711449821  1.0000
  H   H46       1.0  0.7362196977566313  0.08862348214152153  0.6037204499322328  1.0000
  H   H47       1.0  0.13196295895514254  0.39658252207217976  0.484895162946529  1.0000
  H   H48       1.0  0.6466577904428519  0.5151617560275384  0.9117961822438473  1.0000
  H   H49       1.0  0.6055717817960938  0.914831219598632  0.35834711124932994  1.0000
  H   H50       1.0  0.24714600567192255  0.6421944761274292  0.5566800265226562  1.0000
  H   H51       1.0  0.6901210785899039  0.44313464695232346  0.0854207245084027  1.0000
  H   H52       1.0  0.7190024925374061  0.8799651958646209  0.2764606746986331  1.0000
  H   H53       1.0  0.44266781324294163  0.7237023619269396  0.6034245456912616  1.0000
  H   H54       1.0  0.838797486895004  0.39628962609953083  0.12011899855539102  1.0000
  H   H55       1.0  0.8926651460552365  0.10536755877678425  0.4022110073149819  1.0000
  H   H56       1.0  0.49137438492964264  0.59801580588087  0.7029909243670434  1.0000
  H   H57       1.0  0.7881063572321665  0.2968827500355289  0.8948137521624985  1.0000
  H   H58       1.0  0.7462329165551155  0.1484422149507267  0.3587747249777776  1.0000
  H   H59       1.0  0.388069529578715  0.6410127048545606  0.78949188022429  1.0000
  H   H60       1.0  0.5983124382839193  0.21054688075897596  0.8513612830204309  1.0000
  H   H61       1.0  0.526534925606505  0.08192349083491732  0.3999492456776892  1.0000
  H   H62       1.0  0.1273358603786079  0.600305682332369  0.6824170756721984  1.0000
  H   H63       1.0  0.4447188634383608  0.3177071491101914  0.917911148017609  1.0000
  H   H64       1.0  0.4171523348939843  0.9671236250273553  0.31103923333984085  1.0000
  H   H65       1.0  0.10649041365584837  0.6891006160214349  0.6563935753705509  1.0000
  H   H66       1.0  0.45000172984156717  0.3436539718603342  0.032771522613167334  1.0000
  H   H67       1.0  0.07382309203325119  0.9170800297986192  0.6049117562450022  1.0000
  H   H68       1.0  0.4678727481400741  0.3949145424650738  0.3116886329749562  1.0000
  H   H69       1.0  0.15621903484758093  0.6879296268052074  0.08309366202468033  1.0000
  H   H70       1.0  0.9244121049480398  0.8583442614644669  0.6331666819126341  1.0000
  H   H71       1.0  0.2902179570945407  0.366460777686804  0.22468767971486875  1.0000
  H   H72       1.0  0.06536179952448153  0.774670012136504  0.14213256878488786  1.0000
  H   H73       1.0  0.7132775707390878  0.9176506083772511  0.6028619870875503  1.0000
  H   H74       1.0  0.1094402301018675  0.39686994664008785  0.31457566295269873  1.0000
  H   H75       1.0  0.7949041175129707  0.6852365261650706  0.08281339563102837  1.0000
  H   H76       1.0  0.7211181806231153  0.02904211234697131  0.6915072876187905  1.0000
  H   H77       1.0  0.02880187126122274  0.30814686594959534  0.33732078469189725  1.0000
  H   H78       1.0  0.6912584864044646  0.6624846543199184  0.9713206328056074  1.0000
  C   C1        1.0  0.8710152771466542  0.9734769853237853  0.4139033559884455  1.0000
  C   C2        1.0  0.4565859247301986  0.5861415815539174  0.5591719797662975  1.0000
  C   C3        1.0  0.8969791174291969  0.4405300872925793  0.026747280989006552  1.0000
  C   C4        1.0  0.8708258092606512  0.016710860183970104  0.5074709789894314  1.0000
  C   C5        1.0  0.3627068648489383  0.49266618895028813  0.5089172185377464  1.0000
  C   C6        1.0  0.853389635986474  0.49094200562122137  0.9836780012946493  1.0000
  C   C7        1.0  0.0153404275236824  0.040122910429325004  0.5774803496411138  1.0000
  C   C8        1.0  0.4372053183762219  0.42262481004172514  0.4623408457055619  1.0000
  C   C9        1.0  0.9744298963989096  0.5375231546133962  0.9601735256240718  1.0000
  C   C10       1.0  0.165634941816819  0.0277725923045367  0.5543879232349056  1.0000
  C   C11       1.0  0.6105317025910963  0.4455729292970431  0.47291879303677586  1.0000
  C   C12       1.0  0.1370818842814003  0.526829821020911  0.9723719272843282  1.0000
  C   C13       1.0  0.16388751647491526  0.9868716923495385  0.461912895883117  1.0000
  C   C14       1.0  0.70134014422964  0.5379724676964203  0.5243470300545425  1.0000
  C   C15       1.0  0.17637585308363413  0.47521195917544656  0.013151188604567272  1.0000
  C   C16       1.0  0.01965675774404477  0.9572674255148146  0.3909999517326172  1.0000
  C   C17       1.0  0.6280469605486657  0.608885344262788  0.565667058491414  1.0000
  C   C18       1.0  0.06184726142937791  0.43389067752109167  0.04282916935210324  1.0000
  C   C19       1.0  0.02968111705481398  0.9095302319550244  0.2933669272990188  1.0000
  C   C20       1.0  0.7358060850563178  0.7064278161973407  0.6156248751760316  1.0000
  C   C21       1.0  0.11962918858571212  0.38389959835576803  0.09040330518316614  1.0000
  C   C22       1.0  0.3281054603484889  0.05789884973945901  0.6260781204344923  1.0000
  C   C23       1.0  0.70126677082596  0.37384129782591924  0.4314261611808875  1.0000
  C   C24       1.0  0.269128321609756  0.5682742593833937  0.9419767713039775  1.0000
  C   C25       1.0  0.015143396618079008  0.07452965444270633  0.676536747111264  1.0000
  C   C26       1.0  0.33797452401088895  0.32355906835616116  0.39790516054777214  1.0000
  C   C27       1.0  0.9397015860719692  0.6021493599567977  0.9257850356048181  1.0000
  C   C28       1.0  0.7140158260603398  0.0392570672099808  0.5307345000724125  1.0000
  C   C29       1.0  0.18271807823761324  0.46949810551501525  0.5083230473413707  1.0000
  C   C30       1.0  0.6740032172813815  0.49162453030072595  0.9612219371044831  1.0000
  C   C31       1.0  0.7112897930632371  0.9394444604121901  0.33819828031076327  1.0000
  C   C32       1.0  0.37307179755764963  0.6620230557144782  0.6011832088671839  1.0000
  C   C33       1.0  0.7714454928551859  0.39856583753292096  0.06067956964653126  1.0000
  C   C34       1.0  0.7984255003339484  0.08926905990724521  0.3402653226688912  1.0000
  C   C35       1.0  0.458791320221181  0.6598052086368117  0.7489444140337014  1.0000
  C   C36       1.0  0.709514050002042  0.25098875678446575  0.9106872860864499  1.0000
  C   C37       1.0  0.8858575784169105  0.0853791478395678  0.2676329716150647  1.0000
  C   C38       1.0  0.6185396789105512  0.7324652766698423  0.8178698163037198  1.0000
  C   C39       1.0  0.8002865057263903  0.1820330703160309  0.9143460353860033  1.0000
  C   C40       1.0  0.43546118950305157  0.0652655836955915  0.2663093449282172  1.0000
  C   C41       1.0  0.16981778037268208  0.7339398039655548  0.7993085424982169  1.0000
  C   C42       1.0  0.37030049570674356  0.20086347143573852  0.9346808745255758  1.0000
  C   C43       1.0  0.5099218159184247  0.02986449889839091  0.3278499691001642  1.0000
  C   C44       1.0  0.182651038782062  0.6723532470342662  0.7023336677220728  1.0000
  C   C45       1.0  0.4801422742161705  0.2977182466814766  0.9700245168566894  1.0000
  C   C46       1.0  0.02405675842454969  0.922340960545796  0.6622454090106019  1.0000
  C   C47       1.0  0.36094584532551716  0.3375351363875723  0.2597294610477405  1.0000
  C   C48       1.0  0.10099196590028472  0.7399806930425117  0.07804614725235846  1.0000
  C   C49       1.0  0.15699503591839206  0.9205149779711308  0.733532629423941  1.0000
  C   C50       1.0  0.42288009628447293  0.26628750090224435  0.18674382902499084  1.0000
  C   C51       1.0  0.235684027898067  0.8132602806543403  0.07996551619046958  1.0000
  C   C52       1.0  0.7162780321995187  0.9321771782316832  0.7360811776562671  1.0000
  C   C53       1.0  0.9797601969898152  0.26376804371386  0.19588733337189987  1.0000
  C   C54       1.0  0.7832800479533121  0.8038555938311663  0.0682320915582367  1.0000
  C   C55       1.0  0.7710869749467907  0.9696718801824676  0.6758659093789208  1.0000
  C   C56       1.0  0.09446105204683161  0.32390658637046954  0.29361098114296874  1.0000
  C   C57       1.0  0.8006302001026101  0.7062100499014365  0.030728713128525098  1.0000
  N   N1        1.0  0.6635489855713246  0.0059620694428375  0.30858311464494653  1.0000
  N   N2        1.0  0.35537862657135116  0.6915479277184389  0.6974304445848675  1.0000
  N   N3        1.0  0.6576496097699264  0.3024688782343078  0.9940105254493758  1.0000
  N   N4        1.0  0.9533584497031882  0.0013907290448145  0.6991029508646065  1.0000
  N   N5        1.0  0.25360489788720036  0.30078649449162514  0.3021214938790849  1.0000
  N   N6        1.0  0.9512281930122484  0.6978033313491425  0.9990018783319103  1.0000
  O   O1        1.0  0.8121244602156565  0.028062971419565506  0.183210153812432  1.0000
  O   O2        1.0  0.6290682122255334  0.8168334864250827  0.8450072847603922  1.0000
  O   O3        1.0  0.7834344627103675  0.15473884376951474  0.9715280833475646  1.0000
  O   O4        1.0  0.5290506623651724  0.9006474547148076  0.017603689381786653  1.0000
  O   O5        1.0  0.5119363862476192  0.9824857356823886  0.8833110249642291  1.0000
  O   O6        1.0  0.6286034356750106  0.1166889062217606  0.0992947578382086  1.0000
  O   O7        1.0  0.08857611887869873  0.10078172426091213  0.9844593479725247  1.0000
  O   O8        1.0  0.10384221707989381  0.015519382142770204  0.1163777395639727  1.0000
  O   O9        1.0  0.987981571429451  0.8836229450557341  0.8992725482544799  1.0000
  O   O10       1.0  0.027250737644145283  0.1428043483591424  0.2980208392840353  1.0000
  O   O11       1.0  0.7294948334025264  0.7020975082002536  0.8450141364514963  1.0000
  O   O12       1.0  0.8844109719872009  0.1550265907259032  0.8569257974462232  1.0000
  O   O13       1.0  0.4593164560573726  0.03353229241754721  0.1867276722758362  1.0000
  O   O14       1.0  0.2730387802793928  0.813513199451478  0.8469955589904503  1.0000
  O   O15       1.0  0.4257811145091708  0.1530463554101757  0.9664602838713918  1.0000
  O   O16       1.0  0.3518164936554983  0.12166827880069774  0.2986324650075716  1.0000
  O   O17       1.0  0.05400193266763883  0.7016808670971745  0.8235566553397363  1.0000
  O   O18       1.0  0.23022622473671112  0.17678016757491832  0.8782889098057112  1.0000
  O   O19       1.0  0.17747140951274076  0.9758431358937828  0.8185886688292286  1.0000
  O   O20       1.0  0.3584606021232588  0.18130829418552716  0.15718749532855011  1.0000
  O   O21       1.0  0.20081933190617465  0.842960629731188  0.024606046415179734  1.0000
  O   O22       1.0  0.23504568176368676  0.860788862123826  0.7014523799608555  1.0000
  O   O23       1.0  0.5330725111552255  0.29835323837058786  0.15908390736468192  1.0000
  O   O24       1.0  0.3733814510910917  0.8409796002488931  0.13974482212189096  1.0000
  O   O25       1.0  0.8151317560102812  0.9626998354736075  0.8150805087952194  1.0000
  O   O26       1.0  0.9999452933867657  0.1848603085124836  0.14751309370134177  1.0000
  O   O27       1.0  0.8517535291355784  0.8523198903293547  0.037701008331417554  1.0000
  O   O28       1.0  0.5725683693494475  0.8765023542228294  0.7036230901195141  1.0000
  O   O29       1.0  0.8684973014942727  0.29620967352694555  0.17259687269732646  1.0000
  O   O30       1.0  0.6950834650510771  0.8270503384465329  0.12389419691461968  1.0000
