data_image0
_chemical_formula_structural       Co4H20C36N20O24
_chemical_formula_sum              "Co4 H20 C36 N20 O24"
_cell_length_a       9.407220644022724
_cell_length_b       10.608380665103141
_cell_length_c       11.323319778922263
_cell_angle_alpha    91.46102534044397
_cell_angle_beta     89.99995812842226
_cell_angle_gamma    89.99975143580129

_space_group_name_H-M_alt    "P 1"
_space_group_IT_number       1

loop_
  _space_group_symop_operation_xyz
  'x, y, z'

loop_
  _atom_site_type_symbol
  _atom_site_label
  _atom_site_symmetry_multiplicity
  _atom_site_fract_x
  _atom_site_fract_y
  _atom_site_fract_z
  _atom_site_occupancy
  Co  Co1       1.0  0.097608047809608  0.3948401650369818  0.10182949046824061  1.0000
  Co  Co2       1.0  0.5976094344799918  0.10516144567876043  0.8981700999710115  1.0000
  Co  Co3       1.0  0.902388980431823  0.6051592128342451  0.8981712104778197  1.0000
  Co  Co4       1.0  0.4023886567731338  0.8948388713488387  0.1018288553674367  1.0000
  H   H1        1.0  0.38343188712675413  0.3348515786369646  0.9299261395523288  1.0000
  H   H2        1.0  0.883432652627427  0.16514705054739665  0.0700749779441026  1.0000
  H   H3        1.0  0.6165672671434664  0.6651468562745891  0.070074540646651  1.0000
  H   H4        1.0  0.11656756465642101  0.8348513824635262  0.9299248190777193  1.0000
  H   H5        1.0  0.16274698183544703  0.1091444588432822  0.1693058522989759  1.0000
  H   H6        1.0  0.6627491498479542  0.3908550154035242  0.8306936515680193  1.0000
  H   H7        1.0  0.8372511094223399  0.8908539722731491  0.830693061546782  1.0000
  H   H8        1.0  0.337251067433165  0.6091443624615709  0.1693070493769326  1.0000
  H   H9        1.0  0.9092117216256598  0.1213591200375532  0.4577978437484446  1.0000
  H   H10       1.0  0.4092089597597663  0.37864506392804764  0.542201614032777  1.0000
  H   H11       1.0  0.0907895586640421  0.8786421437366627  0.5422028986888279  1.0000
  H   H12       1.0  0.5907901945089193  0.6213543101419248  0.4577973205589601  1.0000
  H   H13       1.0  0.15886385412756  0.4617653854449274  0.4761332665119867  1.0000
  H   H14       1.0  0.6588605878228009  0.038237879368239205  0.5238680893831571  1.0000
  H   H15       1.0  0.8411406152041537  0.5382349353675695  0.523867455177836  1.0000
  H   H16       1.0  0.34113856643970314  0.9617643197713192  0.4761291410940132  1.0000
  H   H17       1.0  0.060685357627328115  0.26481569196531046  0.7948738805780876  1.0000
  H   H18       1.0  0.5606867216200514  0.2351841767606544  0.2051265770975732  1.0000
  H   H19       1.0  0.9393169856802575  0.7351836858956986  0.2051268203661394  1.0000
  H   H20       1.0  0.43931562168560134  0.7648161421573507  0.7948732614161925  1.0000
  C   C1        1.0  0.35236442646032634  0.2580591801256135  0.9856765938888898  1.0000
  C   C2        1.0  0.8523659269994754  0.24193957045660142  0.0143254282842662  1.0000
  C   C3        1.0  0.6476326017834353  0.7419392547900331  0.014324086310828899  1.0000
  C   C4        1.0  0.14763216425711795  0.7580588663555831  0.9856761350918787  1.0000
  C   C5        1.0  0.24009921160202918  0.14245143298261811  0.10645997224219171  1.0000
  C   C6        1.0  0.7401014874636473  0.35754774752655294  0.8935412444468724  1.0000
  C   C7        1.0  0.7598978166421305  0.8575470000344441  0.8935398247807312  1.0000
  C   C8        1.0  0.2598987298170741  0.6424516322371191  0.10646033967488219  1.0000
  C   C9        1.0  0.022147004537096403  0.2985188204228281  0.3196824637475757  1.0000
  C   C10       1.0  0.5221449223947302  0.2014859075279106  0.6803163579777944  1.0000
  C   C11       1.0  0.9778553387685562  0.701481498495177  0.6803173747661901  1.0000
  C   C12       1.0  0.47785104283080676  0.7985153467636155  0.3196799685773399  1.0000
  C   C13       1.0  0.029309538442916505  0.29451592250360653  0.45247883594871036  1.0000
  C   C14       1.0  0.5293064917621423  0.20548783684136412  0.5475208432506307  1.0000
  C   C15       1.0  0.9706949308868645  0.7054853393658932  0.5475210233106651  1.0000
  C   C16       1.0  0.4706884104423851  0.7945162501161178  0.45247731189748924  1.0000
  C   C17       1.0  0.9644297423374013  0.19402928087276905  0.5091710451081894  1.0000
  C   C18       1.0  0.4644263204768251  0.30597469069852684  0.4908283744597099  1.0000
  C   C19       1.0  0.0355736639768267  0.8059729239543569  0.49082883489789  1.0000
  C   C20       1.0  0.5355717707747658  0.6940265654874908  0.5091688352714883  1.0000
  C   C21       1.0  0.1048608261853445  0.3847795622959966  0.5190837288584617  1.0000
  C   C22       1.0  0.6048582825810271  0.11522297107948282  0.4809194100163907  1.0000
  C   C23       1.0  0.8951425801331397  0.6152207585185466  0.4809169928317303  1.0000
  C   C24       1.0  0.39514406071957353  0.8847792356482745  0.5190813531668539  1.0000
  C   C25       1.0  0.11328730722959082  0.37274970237720595  0.641372582796393  1.0000
  C   C26       1.0  0.6132858763004237  0.1272509088754177  0.35862874240027054  1.0000
  C   C27       1.0  0.8867171621063791  0.6272487344227075  0.3586289805775493  1.0000
  C   C28       1.0  0.38671646700835544  0.8727484632898385  0.6413693090135624  1.0000
  C   C29       1.0  0.049736339335773004  0.2746521152963268  0.7001108935481355  1.0000
  C   C30       1.0  0.5497366043574916  0.22535062631236974  0.2998905171209714  1.0000
  C   C31       1.0  0.9502660039710165  0.7253472663618369  0.2998915737496759  1.0000
  C   C32       1.0  0.45026467593532976  0.7746496907090974  0.7001084382163683  1.0000
  C   C33       1.0  0.9761058441562372  0.18639926570070742  0.6311274971727272  1.0000
  C   C34       1.0  0.47610355630499884  0.3136037198993975  0.3688727767448015  1.0000
  C   C35       1.0  0.023897562166901302  0.813599169202668  0.3688731830247818  1.0000
  C   C36       1.0  0.5238987870037731  0.6863956522658583  0.6311252746690384  1.0000
  N   N1        1.0  0.23814831833749395  0.2584944200050145  0.05859048663583621  1.0000
  N   N2        1.0  0.7381489961507485  0.24150382505574447  0.9414107106575499  1.0000
  N   N3        1.0  0.7618508359331245  0.7415040130079619  0.9414093103863549  1.0000
  N   N4        1.0  0.26185015811867635  0.758494613652971  0.0585917358950212  1.0000
  N   N5        1.0  0.3488020699390191  0.07320529519455482  0.06546735697070011  1.0000
  N   N6        1.0  0.8488050318711375  0.42679252233466514  0.9345328805673461  1.0000
  N   N7        1.0  0.6511949583055385  0.9267931359239231  0.9345315568754272  1.0000
  N   N8        1.0  0.1511951854123126  0.5732059125748423  0.0654677996312714  1.0000
  N   N9        1.0  0.42142122388338527  0.14823743805101947  0.9879515543206027  1.0000
  N   N10       1.0  0.9214221864698473  0.35176104310876616  0.0120486537085043  1.0000
  N   N11       1.0  0.5785768673740037  0.8517609949639962  0.012048242701958096  1.0000
  N   N12       1.0  0.0785769677984476  0.6482383328597835  0.9879511640600214  1.0000
  N   N13       1.0  0.9169844794417659  0.07723360744184762  0.6902237084926313  1.0000
  N   N14       1.0  0.41698277043194315  0.4227696017697227  0.30977483998596267  1.0000
  N   N15       1.0  0.0830168008483341  0.9227676544337842  0.3097761507678456  1.0000
  N   N16       1.0  0.5830163838320885  0.5772316582114174  0.6902241360984576  1.0000
  N   N17       1.0  0.19618719981023247  0.4646941805922468  0.711320028658939  1.0000
  N   N18       1.0  0.6961841571754377  0.0353032848216941  0.2886820601053159  1.0000
  N   N19       1.0  0.8038172695253396  0.5353042581062513  0.2886824178917919  1.0000
  N   N20       1.0  0.30381712312010484  0.9646960873456083  0.7113159913088937  1.0000
  O   O1        1.0  0.08333807926912581  0.39594961607396323  0.2731520720827945  1.0000
  O   O2        1.0  0.5833353717697207  0.1040539354501178  0.7268475697260612  1.0000
  O   O3        1.0  0.9166642640338054  0.6040516476982134  0.7268486703541086  1.0000
  O   O4        1.0  0.41666590852156565  0.8959473207297679  0.2731496400040285  1.0000
  O   O5        1.0  0.9629022588716013  0.2115851382151419  0.262570927183546  1.0000
  O   O6        1.0  0.4629018929552657  0.28842072513689493  0.7374285349330735  1.0000
  O   O7        1.0  0.0370990214192872  0.7884161198633208  0.7374271657233463  1.0000
  O   O8        1.0  0.5370951352799764  0.7115814778039182  0.2625704618984201  1.0000
  O   O9        1.0  0.9314658693533673  0.0735383599431003  0.7990241204291166  1.0000
  O   O10       1.0  0.43146423898828357  0.42646102174346373  0.20097433504226098  1.0000
  O   O11       1.0  0.06853434792582648  0.9264619589789902  0.20097571808538106  1.0000
  O   O12       1.0  0.5685317262337294  0.5735411811993957  0.799024661789602  1.0000
  O   O13       1.0  0.8571399217798331  0.9945412525866288  0.6289798448569783  1.0000
  O   O14       1.0  0.35713808409022363  0.5054645435983431  0.371017768743684  1.0000
  O   O15       1.0  0.14286135850793608  0.0054609522445901015  0.3710200351498401  1.0000
  O   O16       1.0  0.6428610701734101  0.4945367182813741  0.6289820905175246  1.0000
  O   O17       1.0  0.26028778154582716  0.5473730569481887  0.6568612807204701  1.0000
  O   O18       1.0  0.7602826385481267  0.9526236936196001  0.3431414915050652  1.0000
  O   O19       1.0  0.7397166877823694  0.4526282125156415  0.3431421112460812  1.0000
  O   O20       1.0  0.23971545270926242  0.047374739395415595  0.6568583055174955  1.0000
  O   O21       1.0  0.1976966535345355  0.4552149672193834  0.8200391122222043  1.0000
  O   O22       1.0  0.6976947240342214  0.044783437240482706  0.1799638794201854  1.0000
  O   O23       1.0  0.8023046267590247  0.5447844144408265  0.17996335507596942  1.0000
  O   O24       1.0  0.30230443023759085  0.9552149900767408  0.8200332680716257  1.0000
