data_image0
_chemical_formula_structural       Zn4H12C27O13
_chemical_formula_sum              "Zn4 H12 C27 O13"
_cell_length_a       16.13675901704538
_cell_length_b       16.1342006134506
_cell_length_c       16.104548413619032
_cell_angle_alpha    89.8051315029249
_cell_angle_beta     83.89225645407764
_cell_angle_gamma    84.22914454459085

_space_group_name_H-M_alt    "P 1"
_space_group_IT_number       1

loop_
  _space_group_symop_operation_xyz
  'x, y, z'

loop_
  _atom_site_type_symbol
  _atom_site_label
  _atom_site_symmetry_multiplicity
  _atom_site_fract_x
  _atom_site_fract_y
  _atom_site_fract_z
  _atom_site_occupancy
  Zn  Zn1       1.0  0.5700433564662576  0.5710541256905728  0.42869007703158957  1.0000
  Zn  Zn2       1.0  0.5712347673235528  0.4224309569111497  0.5632033875281974  1.0000
  Zn  Zn3       1.0  0.4357660851619585  0.4370221332620617  0.4284551571889849  1.0000
  Zn  Zn4       1.0  0.42132091999768306  0.5708965372930808  0.5778756414507525  1.0000
  H   H1        1.0  0.4279331996306722  0.008181632816629803  0.5722725034053013  1.0000
  H   H2        1.0  0.6718857184890226  0.5892082726196791  0.07211289907381509  1.0000
  H   H3        1.0  0.6302725231008496  0.548067254165943  0.9321786606369781  1.0000
  H   H4        1.0  0.5489598010595172  0.6291683435850716  0.9405558010575699  1.0000
  H   H5        1.0  0.5715739183684575  0.9918621827995154  0.4282296973993097  1.0000
  H   H6        1.0  0.43880444788828044  0.4392733512063743  0.011062527650395294  1.0000
  H   H7        1.0  0.9846279240683061  0.5650818095066441  0.5722311373850598  1.0000
  H   H8        1.0  0.015283714429031597  0.4355791969618466  0.42832176544348494  1.0000
  H   H9        1.0  0.7383588472732325  0.6539071551689946  0.9409325388427586  1.0000
  H   H10       1.0  0.656064580932714  0.7360918469148461  0.9493171014922197  1.0000
  H   H11       1.0  0.7265569937834969  0.7241809758954006  0.026948825894073984  1.0000
  H   H12       1.0  0.5904518102639997  0.6705643269078508  0.08040380934765778  1.0000
  C   C1        1.0  0.4891997599199056  0.4890777681780705  0.7246968720483976  1.0000
  C   C2        1.0  0.5160770471354467  0.5156918910755055  0.18524886306585128  1.0000
  C   C3        1.0  0.8155724529788203  0.4840650156242675  0.48224246470647336  1.0000
  C   C4        1.0  0.511270556141163  0.5108866042191593  0.2744932858225652  1.0000
  C   C5        1.0  0.9792140153663169  0.47764941531852406  0.47502344812778563  1.0000
  C   C6        1.0  0.02053368784585528  0.5229875809757871  0.5255063311205105  1.0000
  C   C7        1.0  0.1081453831289778  0.5183519841767321  0.520358113565642  1.0000
  C   C8        1.0  0.8917009673673206  0.48143716282801563  0.47927359066539305  1.0000
  C   C9        1.0  0.18430172103516176  0.5153808955195204  0.5171353107257273  1.0000
  C   C10       1.0  0.7254154805942507  0.4887398415193048  0.48755083134718535  1.0000
  C   C11       1.0  0.2740024784116528  0.5109061500465728  0.5122037908173664  1.0000
  C   C12       1.0  0.47981793892571273  0.8897534153796444  0.5203734714988781  1.0000
  C   C13       1.0  0.5124342793961675  0.2758690271208836  0.48758785520224257  1.0000
  C   C14       1.0  0.4881030640398264  0.7246732203191828  0.5122659376840203  1.0000
  C   C15       1.0  0.5176848856318231  0.18623698509227896  0.48219307727735117  1.0000
  C   C16       1.0  0.524926607529629  0.023275662079946406  0.47499218438089474  1.0000
  C   C17       1.0  0.4746055086020035  0.9768926848315614  0.5255026584498095  1.0000
  C   C18       1.0  0.5861815860067592  0.5852235841549958  0.9781339897649769  1.0000
  C   C19       1.0  0.634735580943456  0.6333515844716401  0.0349463390120377  1.0000
  C   C20       1.0  0.6920329546257804  0.6899399911904993  0.985386752206345  1.0000
  C   C21       1.0  0.5206456838709314  0.11039531765427313  0.47922600508798735  1.0000
  C   C22       1.0  0.48320496555528086  0.8138991999620304  0.5170774266963676  1.0000
  C   C23       1.0  0.4851477471308598  0.48541537614463  0.8144243715351819  1.0000
  C   C24       1.0  0.48043376387811787  0.4804811339765039  0.9776250960573445  1.0000
  C   C25       1.0  0.5275243161474987  0.527084987589177  0.021651901970500414  1.0000
  C   C26       1.0  0.5205576026507615  0.5202398464204097  0.10924560786082076  1.0000
  C   C27       1.0  0.48279158067906985  0.482935443674208  0.8904731403924229  1.0000
  O   O1        1.0  0.5001365136637546  0.49964443638930345  0.49985019575427697  1.0000
  O   O2        1.0  0.5584611209211515  0.3054413498355614  0.5375206876845197  1.0000
  O   O3        1.0  0.4369715356315709  0.6893344531130128  0.5635270786631494  1.0000
  O   O4        1.0  0.46228219558346945  0.31579948502141525  0.4422108712453293  1.0000
  O   O5        1.0  0.543249850906271  0.6895102799041056  0.4571472848038667  1.0000
  O   O6        1.0  0.6899829837412882  0.543326747052923  0.4420854520645107  1.0000
  O   O7        1.0  0.30434911829472355  0.5569795024482361  0.5633452193876207  1.0000
  O   O8        1.0  0.5443515910979285  0.4377575035252193  0.6845072976722475  1.0000
  O   O9        1.0  0.4616236486143208  0.46115345040561107  0.30974781675182317  1.0000
  O   O10       1.0  0.4376654923737178  0.5433034253716116  0.6948311314895645  1.0000
  O   O11       1.0  0.5572929220584013  0.5569550604863238  0.3101180928280839  1.0000
  O   O12       1.0  0.690840930445148  0.43780793537488455  0.5375378989484076  1.0000
  O   O13       1.0  0.3145241178396319  0.4611980994226102  0.4570589755961689  1.0000
