data_image0
_chemical_formula_structural       Hg2H12C12N2Cl4O2
_chemical_formula_sum              "Hg2 H12 C12 N2 Cl4 O2"
_cell_length_a       7.010649625422775
_cell_length_b       7.3891142614523515
_cell_length_c       9.41106586603151
_cell_angle_alpha    105.54385945733296
_cell_angle_beta     95.0850358536526
_cell_angle_gamma    114.72924751550312

_space_group_name_H-M_alt    "P 1"
_space_group_IT_number       1

loop_
  _space_group_symop_operation_xyz
  'x, y, z'

loop_
  _atom_site_type_symbol
  _atom_site_label
  _atom_site_symmetry_multiplicity
  _atom_site_fract_x
  _atom_site_fract_y
  _atom_site_fract_z
  _atom_site_occupancy
  Hg  Hg1       1.0  0.7559643786198578  0.2109572989727795  0.4717744541249259  1.0000
  Hg  Hg2       1.0  0.2439748657534012  0.7890102956458166  0.5282247666072308  1.0000
  H   H1        1.0  0.7426354651233352  0.6160759005313068  0.6738194330652758  1.0000
  H   H2        1.0  0.25739667065628424  0.3839278777722299  0.3261797087674409  1.0000
  H   H3        1.0  0.7522520628813965  0.787316042488861  0.9480385335621051  1.0000
  H   H4        1.0  0.2478379921175389  0.21272264074014663  0.05195741408706309  1.0000
  H   H5        1.0  0.748767195207158  0.592101841959341  0.12936073269258228  1.0000
  H   H6        1.0  0.25128530928445514  0.40794465913101874  0.8706552294925556  1.0000
  H   H7        1.0  0.7264947015560566  0.23172708314918114  0.031533052065107384  1.0000
  H   H8        1.0  0.27350283610356035  0.7682815164675745  0.9684845308156297  1.0000
  H   H9        1.0  0.886405168018257  0.04702282151344411  0.748335037549438  1.0000
  H   H10       1.0  0.11355884166464159  0.9529673394528474  0.25168953933658855  1.0000
  H   H11       1.0  0.6498788366920252  0.932282947225886  0.8170246876063627  1.0000
  H   H12       1.0  0.3500891251620004  0.06772468870418892  0.18297311758255566  1.0000
  C   C1        1.0  0.7384352187421684  0.5391075074876142  0.7582627379097102  1.0000
  C   C2        1.0  0.2615849614965172  0.4608866324452238  0.24171348167389786  1.0000
  C   C3        1.0  0.7438547768151482  0.6309845649932769  0.9092092028945301  1.0000
  C   C4        1.0  0.2562051423038271  0.369049795577297  0.09079914599513468  1.0000
  C   C5        1.0  0.7426932753686372  0.5225609451438444  0.009975439269318482  1.0000
  C   C6        1.0  0.25734052965535886  0.4774445819548419  0.9900050416664069  1.0000
  C   C7        1.0  0.7324289860830362  0.3233170477756175  0.9567771063705021  1.0000
  C   C8        1.0  0.26757148938263975  0.6766995866783322  0.04322113907112173  1.0000
  C   C9        1.0  0.7281502569502364  0.2388032322789826  0.8039745895970751  1.0000
  C   C10       1.0  0.27184115002948067  0.7611835664326421  0.19600705831447832  1.0000
  C   C11       1.0  0.7157004221802128  0.020884437142996114  0.740389874919458  1.0000
  C   C12       1.0  0.28429269580196603  0.9790975153301176  0.2596258648927332  1.0000
  N   N1        1.0  0.7342977868509308  0.34885964803178393  0.7112630605404744  1.0000
  N   N2        1.0  0.26568607347102374  0.6511190119630259  0.2887281032207412  1.0000
  Cl  Cl1       1.0  0.7897397398986072  0.04353032610383422  0.22284254108577525  1.0000
  Cl  Cl2       1.0  0.2102291327070206  0.9564461536439026  0.7771580116378656  1.0000
  Cl  Cl3       1.0  0.8315355226046537  0.6099871935827608  0.4142884181649364  1.0000
  Cl  Cl4       1.0  0.16837416010868378  0.38996396330618677  0.5856748627608042  1.0000
  O   O1        1.0  0.6098830194659542  0.9095757299749466  0.5906530578059374  1.0000
  O   O2        1.0  0.3901180324566411  0.09042355231269282  0.4093785925800758  1.0000
