data_image0
_chemical_formula_structural       Cd2H26C30N2O10
_chemical_formula_sum              "Cd2 H26 C30 N2 O10"
_cell_length_a       7.649712338618788
_cell_length_b       9.731334389942369
_cell_length_c       11.65718734786766
_cell_angle_alpha    113.9532191367974
_cell_angle_beta     107.37012786840619
_cell_angle_gamma    91.124794451874

_space_group_name_H-M_alt    "P 1"
_space_group_IT_number       1

loop_
  _space_group_symop_operation_xyz
  'x, y, z'

loop_
  _atom_site_type_symbol
  _atom_site_label
  _atom_site_symmetry_multiplicity
  _atom_site_fract_x
  _atom_site_fract_y
  _atom_site_fract_z
  _atom_site_occupancy
  Cd  Cd1       1.0  0.24162714875010494  0.4864176093843328  0.006207753893662091  1.0000
  Cd  Cd2       1.0  0.7583710786264389  0.5135789965021331  0.9937976501558269  1.0000
  H   H1        1.0  0.6228655599233335  0.29992887018527636  0.6928365284231647  1.0000
  H   H2        1.0  0.37713680967026875  0.7000677167869543  0.30716025081479625  1.0000
  H   H3        1.0  0.961358885960003  0.9478194006718967  0.6563152019095072  1.0000
  H   H4        1.0  0.03863618087984119  0.0521817888773057  0.3436894162107223  1.0000
  H   H5        1.0  0.497980831395367  0.5804080594036521  0.6042762065660272  1.0000
  H   H6        1.0  0.5020172563539873  0.4196010996182977  0.39572827818728484  1.0000
  H   H7        1.0  0.2587772792519587  0.5652643664237545  0.3970343810846516  1.0000
  H   H8        1.0  0.7412276186763195  0.4347379073674419  0.6029673986407931  1.0000
  H   H9        1.0  0.06854036305961839  0.4692124324755724  0.7357259350473841  1.0000
  H   H10       1.0  0.9314604009015709  0.5307830229220869  0.264271001418777  1.0000
  H   H11       1.0  0.5473808766443113  0.7846335254528258  0.12171150013510619  1.0000
  H   H12       1.0  0.45262404772699233  0.21537559123679983  0.8782951779808742  1.0000
  H   H13       1.0  0.7119913792096569  0.003538747088875002  0.2201414526406183  1.0000
  H   H14       1.0  0.2880085530976543  0.996465845010981  0.7798506962425975  1.0000
  H   H15       1.0  0.5894379882803591  0.13970850409097585  0.30904837619252856  1.0000
  H   H16       1.0  0.4105635496593719  0.8602972195834582  0.69094361546248  1.0000
  H   H17       1.0  0.6342692973414826  0.150174254729798  0.17127314273989208  1.0000
  H   H18       1.0  0.3657191856791613  0.8498212808913267  0.8287136755036644  1.0000
  H   H19       1.0  0.15783300684531545  0.9522652419919667  0.9957607249796327  1.0000
  H   H20       1.0  0.8421657235139648  0.04773364822548131  0.004236974311361088  1.0000
  H   H21       1.0  0.2995326642928759  0.13611947367456176  0.06850001967965373  1.0000
  H   H22       1.0  0.700463333499208  0.8638794338112564  0.9314962880854626  1.0000
  H   H23       1.0  0.20453578807455128  0.07826417384337958  0.1671156685968498  1.0000
  H   H24       1.0  0.7954652065622058  0.9217324203653734  0.8328825572982341  1.0000
  H   H25       1.0  0.2958116259946806  0.23935958050016387  0.5377895844045214  1.0000
  H   H26       1.0  0.7042001259020552  0.7606426537540331  0.4622101038434467  1.0000
  C   C1        1.0  0.9635813842935974  0.24644417296844523  0.8035706832657895  1.0000
  C   C2        1.0  0.03641892047438936  0.7535558437919861  0.19643457150925772  1.0000
  C   C3        1.0  0.8060803049703225  0.13571987178794842  0.6870744852414248  1.0000
  C   C4        1.0  0.19392363903199342  0.8642778417272655  0.31292984948058256  1.0000
  C   C5        1.0  0.6387933877164613  0.18158872581167881  0.6424920979229327  1.0000
  C   C6        1.0  0.3612069205208286  0.8184112915078148  0.35751229988407845  1.0000
  C   C7        1.0  0.48824941190342497  0.07770318564258359  0.5331457613466954  1.0000
  C   C8        1.0  0.5117536462475699  0.9222968172038721  0.46685574314606293  1.0000
  C   C9        1.0  0.8283792674669358  0.9816762791078236  0.6207948479096504  1.0000
  C   C10       1.0  0.1716237538331242  0.018316879163002404  0.379204329096659  1.0000
  C   C11       1.0  0.4437016403513567  0.5165176442319606  0.7953570095509549  1.0000
  C   C12       1.0  0.5562970691921123  0.4834812426310933  0.20464583154821273  1.0000
  C   C13       1.0  0.29705879459544354  0.5229780560011934  0.6808578227327262  1.0000
  C   C14       1.0  0.7029347047743002  0.4770220081231644  0.3191375259673992  1.0000
  C   C15       1.0  0.35065893693193567  0.5533026097082683  0.5857359829946704  1.0000
  C   C16       1.0  0.649336110403489  0.4466917380606363  0.41426202279896546  1.0000
  C   C17       1.0  0.2191527864845568  0.5459585321530441  0.47237256310127435  1.0000
  C   C18       1.0  0.7808490940035141  0.4540357727244668  0.5276284930230589  1.0000
  C   C19       1.0  0.11107260549854911  0.49149337466639076  0.6628479700328074  1.0000
  C   C20       1.0  0.8889301885952464  0.508498645352404  0.3371490605765502  1.0000
  C   C21       1.0  0.027319783293520975  0.5128508613227752  0.4509321260482368  1.0000
  C   C22       1.0  0.9726800336803123  0.487140034917033  0.5490656514784292  1.0000
  C   C23       1.0  0.4151300266638671  0.8210555978918352  0.08468597652977661  1.0000
  C   C24       1.0  0.584871930995369  0.17895239669599758  0.9153188775994252  1.0000
  C   C25       1.0  0.6008244409995598  0.07179106281989792  0.21062853956835434  1.0000
  C   C26       1.0  0.3991752571628879  0.9282123899097955  0.7893631768539681  1.0000
  C   C27       1.0  0.2623571126158666  0.03833463109373981  0.08540872786688421  1.0000
  C   C28       1.0  0.7376391193210808  0.9616654157622407  0.9145880123591256  1.0000
  C   C29       1.0  0.3146772985892524  0.12185363778235113  0.4866720987407264  1.0000
  C   C30       1.0  0.6853204951905737  0.878140694954446  0.5133238707066854  1.0000
  N   N1        1.0  0.4267156655490254  0.970566729479927  0.1205304866867465  1.0000
  N   N2        1.0  0.5732828376039977  0.0294310224854897  0.8794650662072955  1.0000
  O   O1        1.0  0.11150621574391552  0.20245430065525488  0.8481265622417524  1.0000
  O   O2        1.0  0.8884968389377762  0.7975457016321316  0.15187579921903463  1.0000
  O   O3        1.0  0.4045582139707662  0.43942811168046353  0.8534438964603839  1.0000
  O   O4        1.0  0.5954412014766035  0.5605741938521477  0.14655938505343621  1.0000
  O   O5        1.0  0.26636981767722995  0.727490484161109  0.014261488684447031  1.0000
  O   O6        1.0  0.7336245259122195  0.27250728392320417  0.9857469738612681  1.0000
  O   O7        1.0  0.9442122119751915  0.38965383757661703  0.8538313559285984  1.0000
  O   O8        1.0  0.05578719653357207  0.6103484668378557  0.1461736395212796  1.0000
  O   O9        1.0  0.6091661312074307  0.5816328066680755  0.8276782613088473  1.0000
  O   O10       1.0  0.3908337720340924  0.4183786193851518  0.17233249745335402  1.0000
