data_image0
_chemical_formula_structural       Ni2H20C24N4O8
_chemical_formula_sum              "Ni2 H20 C24 N4 O8"
_cell_length_a       7.911940715532973
_cell_length_b       7.911936105757344
_cell_length_c       10.411695967539114
_cell_angle_alpha    112.33966969481153
_cell_angle_beta     112.33962974818023
_cell_angle_gamma    90.00071190692792

_space_group_name_H-M_alt    "P 1"
_space_group_IT_number       1

loop_
  _space_group_symop_operation_xyz
  'x, y, z'

loop_
  _atom_site_type_symbol
  _atom_site_label
  _atom_site_symmetry_multiplicity
  _atom_site_fract_x
  _atom_site_fract_y
  _atom_site_fract_z
  _atom_site_occupancy
  Ni  Ni1       1.0  0.9999715339215174  2.8037379202299887e-05  4.874526950789417e-07  1.0000
  Ni  Ni2       1.0  0.2500215759712958  0.7499791614034026  0.5000005295188856  1.0000
  H   H1        1.0  0.19629249403957516  0.8751066351817657  0.24999994368980785  1.0000
  H   H2        1.0  0.6249794884402037  0.9462775337449757  0.7500230007703195  1.0000
  H   H3        1.0  0.0537250809399055  0.3750205492998546  0.2499764496736958  1.0000
  H   H4        1.0  0.1248955844151212  0.8037075710147404  0.7500004187407683  1.0000
  H   H5        1.0  0.6934746126356829  0.07669873938834118  0.1013554940678247  1.0000
  H   H6        1.0  0.2748592384553561  0.44360119121385105  0.6014661587593934  1.0000
  H   H7        1.0  0.40785253284059303  0.024823262224906304  0.10144223673831478  1.0000
  H   H8        1.0  0.32670435286817684  0.15781736025449083  0.6013588046498413  1.0000
  H   H9        1.0  0.5563990528687344  0.725141100339947  0.3985336274282433  1.0000
  H   H10       1.0  0.9751749335666703  0.5921471402913667  0.8985585939410184  1.0000
  H   H11       1.0  0.8421825166618931  0.6732972519271528  0.3986411871873016  1.0000
  H   H12       1.0  0.9233005108508933  0.3065248364198041  0.898644578846202  1.0000
  H   H13       1.0  0.45442841822406876  0.28785226177993206  0.09728197454376186  1.0000
  H   H14       1.0  0.0596073602452378  0.2044878243310038  0.5974011084016908  1.0000
  H   H15       1.0  0.642826993911392  0.8095445686121608  0.09734406800130556  1.0000
  H   H16       1.0  0.5379403456837437  0.39282302287683996  0.5973312327227589  1.0000
  H   H17       1.0  0.7955108347857731  0.940390831410106  0.40259759206001894  1.0000
  H   H18       1.0  0.19045271532166202  0.35716920064123764  0.9026536584683525  1.0000
  H   H19       1.0  0.607178336736439  0.46205948785801354  0.40266963979453857  1.0000
  H   H20       1.0  0.7121454365450361  0.5455697692644179  0.9027163955554726  1.0000
  C   C1        1.0  0.5657611650647496  0.4342396950149806  9.316434273018734e-07  1.0000
  C   C2        1.0  0.815902533699365  0.31578146156643083  0.5000274906696873  1.0000
  C   C3        1.0  0.4341289445309826  0.565869824338293  0.999999511063848  1.0000
  C   C4        1.0  0.6842194091493071  0.18409769156323824  0.4999723354919611  1.0000
  C   C5        1.0  0.056943179680047286  0.8750533604601004  0.25002500653112486  1.0000
  C   C6        1.0  0.6250203226417881  0.806923303616017  0.7500364378868696  1.0000
  C   C7        1.0  0.19307857350623436  0.37497805244056076  0.24996325458646845  1.0000
  C   C8        1.0  0.12494704622336168  0.9430576701233592  0.7499760409712621  1.0000
  C   C9        1.0  0.687288748231751  0.17926462940823032  0.054566972578754806  1.0000
  C   C10       1.0  0.1254971964184648  0.437357949713416  0.5547032228944957  1.0000
  C   C11       1.0  0.36722568101470904  0.8754777271937186  0.054609661090950036  1.0000
  C   C12       1.0  0.4292933205801361  0.11722760214209423  0.554601544764715  1.0000
  C   C13       1.0  0.5626414131688123  0.8745023482476385  0.44529610092821054  1.0000
  C   C14       1.0  0.12452005073411954  0.6327723085442546  0.9453897449002255  1.0000
  C   C15       1.0  0.8827725696475498  0.5707079547454513  0.4453984137619784  1.0000
  C   C16       1.0  0.8207359840564692  0.31271131300994887  0.945433690642254  1.0000
  C   C17       1.0  0.5579293781401374  0.2979244143912397  0.05357557807950995  1.0000
  C   C18       1.0  0.00585425176068811  0.3080385984534502  0.553751412870035  1.0000
  C   C19       1.0  0.49559234620994636  0.7558140473367345  0.0536613173187631  1.0000
  C   C20       1.0  0.5479981984239616  0.2455915062610003  0.5536607868599859  1.0000
  C   C21       1.0  0.6919607954854214  0.9941452640092977  0.4462479100055035  1.0000
  C   C22       1.0  0.24418282417109785  0.5044048354528884  0.9463365909421879  1.0000
  C   C23       1.0  0.7544086929531346  0.45200244901795383  0.44633899917888437  1.0000
  C   C24       1.0  0.7020758640861403  0.44206881109367646  0.9464244857170527  1.0000
  N   N1        1.0  0.8159065148949622  0.18409259986388804  3.850424618640435e-07  1.0000
  N   N2        1.0  0.06601169725093571  0.5659124552129029  0.500032490265724  1.0000
  N   N3        1.0  0.1839962734637055  0.8160030452988566  0.9999997111375407  1.0000
  N   N4        1.0  0.4340871672782285  0.9339875967240162  0.4999668667184095  1.0000
  O   O1        1.0  0.9394039671187073  0.9375299915746285  0.16406595641635127  1.0000
  O   O2        1.0  0.4765301463235758  0.6894454525216033  0.6640737836158974  1.0000
  O   O3        1.0  0.22450810014728967  0.2264266321514157  0.16399295838828454  1.0000
  O   O4        1.0  0.18750310998053277  0.9744535103759304  0.6640104756395999  1.0000
  O   O5        1.0  0.3105569489836668  0.5234693336252293  0.33592734664053836  1.0000
  O   O6        1.0  0.7735748547732584  0.7754921901116492  0.8360071468726745  1.0000
  O   O7        1.0  0.025548456670065934  0.8125025545852936  0.3359933752493802  1.0000
  O   O8        1.0  0.062469994224770196  0.06059540081612621  0.8359344061903045  1.0000
