data_image0
_chemical_formula_structural       K4H24C32O12F4
_chemical_formula_sum              "K4 H24 C32 O12 F4"
_cell_length_a       6.598878023494788
_cell_length_b       6.902455049014917
_cell_length_c       18.48284133247102
_cell_angle_alpha    89.99976712944456
_cell_angle_beta     93.30260694471058
_cell_angle_gamma    89.99996880409813

_space_group_name_H-M_alt    "P 1"
_space_group_IT_number       1

loop_
  _space_group_symop_operation_xyz
  'x, y, z'

loop_
  _atom_site_type_symbol
  _atom_site_label
  _atom_site_symmetry_multiplicity
  _atom_site_fract_x
  _atom_site_fract_y
  _atom_site_fract_z
  _atom_site_occupancy
  K   K1        1.0  0.7528130649438081  0.5168903306440811  0.4381652380194935  1.0000
  K   K2        1.0  0.7471845715661158  0.016892201191644998  0.5618365460509905  1.0000
  K   K3        1.0  0.24718954416911734  0.4831148527303525  0.5618343953601366  1.0000
  K   K4        1.0  0.2528134875659659  0.9831100846617459  0.43816353884388776  1.0000
  H   H1        1.0  0.3303809893751292  0.3321372820007581  0.18055027003786245  1.0000
  H   H2        1.0  0.16962066346509627  0.8321371196340693  0.8194500315591566  1.0000
  H   H3        1.0  0.6696170659628676  0.667865003855567  0.8194492737383141  1.0000
  H   H4        1.0  0.8303819532383726  0.16786226869495377  0.18055068406235356  1.0000
  H   H5        1.0  0.46758767575174426  0.33418645478835873  0.05833819514277388  1.0000
  H   H6        1.0  0.032417015052765  0.8341850398041899  0.9416627041514471  1.0000
  H   H7        1.0  0.5324103795868496  0.6658143823080778  0.941661348634511  1.0000
  H   H8        1.0  0.967585601650107  0.16581579728472207  0.05833801146894049  1.0000
  H   H9        1.0  0.9817723569177232  0.6684944736767164  0.13876813094316273  1.0000
  H   H10       1.0  0.5182281872812453  0.16849032244970627  0.8612329379939891  1.0000
  H   H11       1.0  0.0182272163468298  0.33150491465927684  0.8612314427038043  1.0000
  H   H12       1.0  0.48177139357267146  0.8315061683606472  0.13876771789261969  1.0000
  H   H13       1.0  0.8450814121957247  0.6695977919362546  0.262888334310034  1.0000
  H   H14       1.0  0.6549176131710437  0.16959781177899905  0.7371127030541442  1.0000
  H   H15       1.0  0.15491816106823816  0.3304030451596275  0.7371112393358172  1.0000
  H   H16       1.0  0.34508196768168636  0.8304015765511322  0.26288795283022637  1.0000
  H   H17       1.0  0.341082989961272  0.26631798136637735  0.30747504444482127  1.0000
  H   H18       1.0  0.15891566964096165  0.7663191993832256  0.6925236755437965  1.0000
  H   H19       1.0  0.6589165833026909  0.7336828557295049  0.6925245292010372  1.0000
  H   H20       1.0  0.8410854215489676  0.23368018895221343  0.307475927971744  1.0000
  H   H21       1.0  0.20244675497578868  0.47268825143008536  0.2736520266696444  1.0000
  H   H22       1.0  0.29755020601974275  0.972691928709203  0.7263447218928432  1.0000
  H   H23       1.0  0.7975528144946791  0.5273111369088352  0.7263470058586277  1.0000
  H   H24       1.0  0.7024478493194407  0.027307459627344592  0.2736548218855645  1.0000
  C   C1        1.0  0.5790266289119188  0.5028906893959258  0.22966124475087918  1.0000
  C   C2        1.0  0.9209725256268371  0.0028902113430575994  0.7703389674197323  1.0000
  C   C3        1.0  0.4209714264272647  0.4971086989406217  0.7703382990275285  1.0000
  C   C4        1.0  0.07902705522648289  0.9971077282271847  0.22966168846576096  1.0000
  C   C5        1.0  0.47274339529378284  0.4064456313204516  0.17263829792022986  1.0000
  C   C6        1.0  0.02725820038148189  0.9064440083278097  0.8273624302215622  1.0000
  C   C7        1.0  0.5272561779695834  0.5935566545353196  0.8273612757245058  1.0000
  C   C8        1.0  0.9727429021912996  0.09355393123894368  0.1726387966511993  1.0000
  C   C9        1.0  0.5486648424602478  0.4070776455119185  0.10347727932399658  1.0000
  C   C10       1.0  0.9513385380698834  0.9070765021923606  0.8965229403610591  1.0000
  C   C11       1.0  0.4513332128783459  0.5929231915845178  0.8965222644532884  1.0000
  C   C12       1.0  0.048662560708216084  0.0929228861372167  0.10347774539187778  1.0000
  C   C13       1.0  0.7289625858554486  0.5032970435717274  0.09297297002348867  1.0000
  C   C14       1.0  0.7710411297148096  0.0032951626967160997  0.9070284133647559  1.0000
  C   C15       1.0  0.27103698740910426  0.49670234476426595  0.9070266036234784  1.0000
  C   C16       1.0  0.22895997285737474  0.9967042256299334  0.09297281350688988  1.0000
  C   C17       1.0  0.8396396316944176  0.5963433144831569  0.1491333862426032  1.0000
  C   C18       1.0  0.6603624858246062  0.09634209933404488  0.8508672826910625  1.0000
  C   C19       1.0  0.16035994157013528  0.40365607385283647  0.8508661874043708  1.0000
  C   C20       1.0  0.33963860915999783  0.9036558402385776  0.14913286194429523  1.0000
  C   C21       1.0  0.7637535527498824  0.5955519386836909  0.21792719095840593  1.0000
  C   C22       1.0  0.7362470512873783  0.09554998057413397  0.7820739904461717  1.0000
  C   C23       1.0  0.23624602051408053  0.4044488984121913  0.7820723826874454  1.0000
  C   C24       1.0  0.26375253335943677  0.9044494077530629  0.21792720655690087  1.0000
  C   C25       1.0  0.32503634425432176  0.4241516543948761  0.31270270779604187  1.0000
  C   C26       1.0  0.17495915001660475  0.9241529207164871  0.6872957090937744  1.0000
  C   C27       1.0  0.6749617110848617  0.5758477339416714  0.6872968359823657  1.0000
  C   C28       1.0  0.8250404270426299  0.0758450188566897  0.31270440567301694  1.0000
  C   C29       1.0  0.26191833661853536  0.4727962682427673  0.3890079851055431  1.0000
  C   C30       1.0  0.2380831894492061  0.9727939820697455  0.6109904762567877  1.0000
  C   C31       1.0  0.7380842724967634  0.5272031200921106  0.6109916482785563  1.0000
  C   C32       1.0  0.761916387608842  0.027206855023209197  0.38900963850776543  1.0000
  O   O1        1.0  0.5126930868906996  0.5178632662521352  0.2986770906751204  1.0000
  O   O2        1.0  0.987304537438291  0.017866398881146498  0.70132306853813  1.0000
  O   O3        1.0  0.4873064863738533  0.48213612208385814  0.7013224829718467  1.0000
  O   O4        1.0  0.0126965613404053  0.9821315406885416  0.2986776172159295  1.0000
  O   O5        1.0  0.3510429017710449  0.6091837611167749  0.4238275123758512  1.0000
  O   O6        1.0  0.14894828952327535  0.10918407857222691  0.5761702183163776  1.0000
  O   O7        1.0  0.6489566639035614  0.3908199735047403  0.5761709790303655  1.0000
  O   O8        1.0  0.8510497734034884  0.8908167585183473  0.4238304076983112  1.0000
  O   O9        1.0  0.11879806900645208  0.36908236272257966  0.41113019706917686  1.0000
  O   O10       1.0  0.38120051008500155  0.8690860369795316  0.5888689055852152  1.0000
  O   O11       1.0  0.8812045439017451  0.6309199231291485  0.5888699774313864  1.0000
  O   O12       1.0  0.6188005811031444  0.13091769763556724  0.4111306979269712  1.0000
  F   F1        1.0  0.8020034066527016  0.505500955954865  0.025110582815265996  1.0000
  F   F2        1.0  0.6980003033169454  0.005495480374406699  0.9748902560588628  1.0000
  F   F3        1.0  0.19799464868648184  0.49449843238168256  0.9748889609631415  1.0000
  F   F4        1.0  0.302000791667666  0.9945024591982088  0.025109888576487497  1.0000
