data_image0
_chemical_formula_structural       Cd2H24C20S2N4O12
_chemical_formula_sum              "Cd2 H24 C20 S2 N4 O12"
_cell_length_a       7.026125631012531
_cell_length_b       10.142467773749132
_cell_length_c       10.14247929845538
_cell_angle_alpha    79.70881517020865
_cell_angle_beta     76.08537396251614
_cell_angle_gamma    76.08563378476737

_space_group_name_H-M_alt    "P 1"
_space_group_IT_number       1

loop_
  _space_group_symop_operation_xyz
  'x, y, z'

loop_
  _atom_site_type_symbol
  _atom_site_label
  _atom_site_symmetry_multiplicity
  _atom_site_fract_x
  _atom_site_fract_y
  _atom_site_fract_z
  _atom_site_occupancy
  Cd  Cd1       1.0  0.25000334794219736  0.7824759300270046  0.21752208844817744  1.0000
  Cd  Cd2       1.0  0.7500007752665709  0.21752156787172075  0.7824781018768618  1.0000
  H   H1        1.0  0.39197230690373175  0.007455178395922199  0.19600889820481632  1.0000
  H   H2        1.0  0.8919735765942036  0.1960049791638241  0.007458605525073377  1.0000
  H   H3        1.0  0.6080338058594705  0.9925402582053022  0.8039923545130705  1.0000
  H   H4        1.0  0.10803317668206348  0.8039883939404717  0.9925409518706872  1.0000
  H   H5        1.0  0.2002334410356283  0.06460668346267788  0.1297724781067942  1.0000
  H   H6        1.0  0.7002334646466223  0.1297700987206483  0.06461003655732615  1.0000
  H   H7        1.0  0.799771520125319  0.9353877425306366  0.8702281422722605  1.0000
  H   H8        1.0  0.2997727709339981  0.8702253145405979  0.9353882431233487  1.0000
  H   H9        1.0  0.187159474454333  0.9286717147332126  0.4860127410552479  1.0000
  H   H10       1.0  0.6871635088752441  0.4860086526704067  0.9286754408019746  1.0000
  H   H11       1.0  0.812841500991304  0.07133194811688529  0.5139868044839631  1.0000
  H   H12       1.0  0.31283400515718535  0.5139970926177497  0.07132325766662011  1.0000
  H   H13       1.0  0.18057010453492248  0.8689266762494299  0.7368579709505029  1.0000
  H   H14       1.0  0.6805733966213265  0.7368532997343705  0.8689355787087651  1.0000
  H   H15       1.0  0.8194220397579953  0.1310771134439861  0.2631428665221023  1.0000
  H   H16       1.0  0.3194200220912791  0.2631514772269767  0.13106291806546014  1.0000
  H   H17       1.0  0.21015572231964091  0.6208501645950761  0.8378270002441682  1.0000
  H   H18       1.0  0.7101451951428714  0.8378268766677338  0.6208601958947497  1.0000
  H   H19       1.0  0.7898468405456145  0.37915248426597253  0.1621764373737662  1.0000
  H   H20       1.0  0.28985869033780187  0.16217772118977788  0.379132829574246  1.0000
  H   H21       1.0  0.25247526707565987  0.4451322928818725  0.6855034843235616  1.0000
  H   H22       1.0  0.752468396416333  0.6855056730174311  0.4451383526365192  1.0000
  H   H23       1.0  0.7475264644438723  0.554868313622805  0.31449847329448494  1.0000
  H   H24       1.0  0.24753788010343666  0.3144897324638194  0.5548589360317565  1.0000
  C   C1        1.0  0.1999341135616461  0.8228070093525377  0.5349204420335028  1.0000
  C   C2        1.0  0.6999338302785033  0.5349238337155312  0.822812746190735  1.0000
  C   C3        1.0  0.8000636454554879  0.17719260548535226  0.46507834085296207  1.0000
  C   C4        1.0  0.30005727862313597  0.4650840362917777  0.1771855358516987  1.0000
  C   C5        1.0  0.19483442523232242  0.7888363120907158  0.6745829861873888  1.0000
  C   C6        1.0  0.69483311596899  0.6745853501226976  0.7888438332493948  1.0000
  C   C7        1.0  0.8051508371733149  0.21117163469880754  0.3254151661315704  1.0000
  C   C8        1.0  0.3051546946258555  0.3254184874323797  0.21115566816509815  1.0000
  C   C9        1.0  0.21204161364458673  0.6511792938464893  0.7290145923383592  1.0000
  C   C10       1.0  0.712031692644935  0.7290176768445065  0.6511892932154949  1.0000
  C   C11       1.0  0.7879532359876645  0.3488254697543027  0.27098468012603405  1.0000
  C   C12       1.0  0.28796073096537367  0.2709850888804369  0.3488116876084533  1.0000
  C   C13       1.0  0.234410569750068  0.552941412414576  0.6433091792585942  1.0000
  C   C14       1.0  0.7344039841111896  0.64331560789914  0.5529497145344777  1.0000
  C   C15       1.0  0.765586235754064  0.4470622671772232  0.35668506617290074  1.0000
  C   C16       1.0  0.2655987081779402  0.35668190336014044  0.4470497001003864  1.0000
  C   C17       1.0  0.2381189913384034  0.5950320805094408  0.5034366826402703  1.0000
  C   C18       1.0  0.7381092803585716  0.5034418584216312  0.5950355695722962  1.0000
  C   C19       1.0  0.7618792787679212  0.4049706084332881  0.49656442790715266  1.0000
  C   C20       1.0  0.26188516713885696  0.4965639524876054  0.40496653257797294  1.0000
  S   S1        1.0  0.7500038233335431  0.8463881776381826  0.15360935438591383  1.0000
  S   S2        1.0  0.25000260968619153  0.1536062272145813  0.8463910506709098  1.0000
  N   N1        1.0  0.2207012499230531  0.7287726258744627  0.4522884870928934  1.0000
  N   N2        1.0  0.7206977680355849  0.45228875288733417  0.7287809917201574  1.0000
  N   N3        1.0  0.7792943148439377  0.27122908916089017  0.5477141884627343  1.0000
  N   N4        1.0  0.27930042019244894  0.5477139516153784  0.27122210085207143  1.0000
  O   O1        1.0  0.891151065139468  0.8101219035164675  0.24852557026943595  1.0000
  O   O2        1.0  0.39114946074452217  0.2485222546529186  0.8101271818627397  1.0000
  O   O3        1.0  0.10885564719765739  0.18987147736782356  0.7514749781387309  1.0000
  O   O4        1.0  0.6088537901793885  0.7514732086694238  0.1898725194748039  1.0000
  O   O5        1.0  0.6339979427185438  0.9910867967626585  0.16346563950450846  1.0000
  O   O6        1.0  0.1339966109184516  0.16346136684219198  0.9910891305664863  1.0000
  O   O7        1.0  0.3660066981858705  0.008908660979116701  0.8365358285356094  1.0000
  O   O8        1.0  0.8660095837230344  0.8365340541990489  0.008910140126595006  1.0000
  O   O9        1.0  0.2443777617918386  0.009084527213332198  0.2132165374456036  1.0000
  O   O10       1.0  0.7443789458802855  0.2132139035798346  0.009087461908727256  1.0000
  O   O11       1.0  0.7556252098146813  0.9909119600774758  0.7867830205405966  1.0000
  O   O12       1.0  0.2556248227392716  0.7867795195855649  0.9909135171439091  1.0000
