data_image0
_chemical_formula_structural       Cd2H36C36N8O10
_chemical_formula_sum              "Cd2 H36 C36 N8 O10"
_cell_length_a       9.107267506553521
_cell_length_b       10.50818720374138
_cell_length_c       11.576582400689587
_cell_angle_alpha    88.72821996759238
_cell_angle_beta     68.10869216069213
_cell_angle_gamma    68.20574784626672

_space_group_name_H-M_alt    "P 1"
_space_group_IT_number       1

loop_
  _space_group_symop_operation_xyz
  'x, y, z'

loop_
  _atom_site_type_symbol
  _atom_site_label
  _atom_site_symmetry_multiplicity
  _atom_site_fract_x
  _atom_site_fract_y
  _atom_site_fract_z
  _atom_site_occupancy
  Cd  Cd1       1.0  0.8659493134991932  0.6651262950010944  0.14313187979645647  1.0000
  Cd  Cd2       1.0  0.13405646119660736  0.3348727362922474  0.8568666254664733  1.0000
  H   H1        1.0  0.8990719654919131  0.15953858428758133  0.09864402166924441  1.0000
  H   H2        1.0  0.10093308383778775  0.8404645041600032  0.9013485370400147  1.0000
  H   H3        1.0  0.09205795732034283  0.8783977240946326  0.3332634254989131  1.0000
  H   H4        1.0  0.9079315818397617  0.12160564771583887  0.6667354413293367  1.0000
  H   H5        1.0  0.11122489069993696  0.2835991560792976  0.32929386922702963  1.0000
  H   H6        1.0  0.8887739593110665  0.7164020291674688  0.670704896248722  1.0000
  H   H7        1.0  0.1180420791877665  0.23211803891260976  0.5244809074114514  1.0000
  H   H8        1.0  0.8819551100443874  0.7678791049910954  0.4755219185314985  1.0000
  H   H9        1.0  0.2769780595641862  0.0837732434405751  0.5477791108140337  1.0000
  H   H10       1.0  0.7230150827864673  0.9162198413330456  0.4522224350573795  1.0000
  H   H11       1.0  0.3304754316928538  0.15356791083067378  0.40240830280166046  1.0000
  H   H12       1.0  0.6695189037249848  0.8464251702371329  0.597594617919519  1.0000
  H   H13       1.0  0.5277072437803412  0.9410172760745323  0.12104514882958035  1.0000
  H   H14       1.0  0.47228924389489896  0.0589737918563102  0.8789649664757562  1.0000
  H   H15       1.0  0.3282540914893702  0.9131886359628681  0.9962696278798617  1.0000
  H   H16       1.0  0.6717357052511448  0.08680669244130709  0.0037466661105086205  1.0000
  H   H17       1.0  0.7239161280696108  0.5247201764293975  0.9648158206018564  1.0000
  H   H18       1.0  0.276094185240055  0.47527665792486573  0.03517449307029351  1.0000
  H   H19       1.0  0.3173945202243971  0.6614916112746697  0.9252687283106411  1.0000
  H   H20       1.0  0.6826062362888692  0.3385106006744678  0.07473289964319461  1.0000
  H   H21       1.0  0.5239507477618375  0.5253089188152201  0.8712731296598691  1.0000
  H   H22       1.0  0.4760469091714016  0.4746922785369065  0.12872512457919077  1.0000
  H   H23       1.0  0.4219941569547316  0.7973327401831156  0.7599657082859467  1.0000
  H   H24       1.0  0.5780015813865731  0.2026726440222717  0.2400381787457277  1.0000
  H   H25       1.0  0.6376515149705002  0.674730417042646  0.7155948017965484  1.0000
  H   H26       1.0  0.36234612991537335  0.3252759602669214  0.28440849326092627  1.0000
  H   H27       1.0  0.5635137083313922  0.49285423691758007  0.6445695685321198  1.0000
  H   H28       1.0  0.4364875158300805  0.5071520704777156  0.3554318057831622  1.0000
  H   H29       1.0  0.3455688917429852  0.6081000869090474  0.6965475911773638  1.0000
  H   H30       1.0  0.6544309055271995  0.39190417646898357  0.3034525351074322  1.0000
  H   H31       1.0  0.7839829162794988  0.5337486189385315  0.4381471271064399  1.0000
  H   H32       1.0  0.2160192791195499  0.466250499068174  0.5618550261248174  1.0000
  H   H33       1.0  0.4335660661963204  0.8430401545186966  0.3243223993696702  1.0000
  H   H34       1.0  0.5664435095729698  0.15696601774179436  0.6756773719240742  1.0000
  H   H35       1.0  0.2582127567839693  0.8042599420413835  0.5675263487908709  1.0000
  H   H36       1.0  0.7417932397414475  0.1957462749347413  0.43247275240585026  1.0000
  C   C1        1.0  0.005657465808965979  0.23308897667557446  0.20801464308679837  1.0000
  C   C2        1.0  0.9943442500319932  0.7669111166483019  0.7919815776315176  1.0000
  C   C3        1.0  0.9577034444081672  0.1364364425764606  0.16706324239797263  1.0000
  C   C4        1.0  0.04229206020422555  0.8635668183099268  0.8329329989353481  1.0000
  C   C5        1.0  0.9869919275762199  0.008875276209188605  0.21362451345874706  1.0000
  C   C6        1.0  0.013004056668286558  0.9911269505632063  0.7863716150960229  1.0000
  C   C7        1.0  0.06617315891786306  0.9783623186007233  0.29896334190008383  1.0000
  C   C8        1.0  0.9338142278790896  0.021643150342178796  0.7010369664747104  1.0000
  C   C9        1.0  0.10904956677097032  0.07709167785550619  0.34333375503118185  1.0000
  C   C10       1.0  0.8909428381662109  0.9229106440297908  0.6566668851049826  1.0000
  C   C11       1.0  0.07964042765583201  0.2043158505414979  0.2976072203669489  1.0000
  C   C12       1.0  0.9203560362102151  0.7956853505164502  0.7023896590223374  1.0000
  C   C13       1.0  0.9720413360612952  0.3718078445978392  0.1623055450396364  1.0000
  C   C14       1.0  0.027962765935193194  0.6281922245153096  0.8376916981520778  1.0000
  C   C15       1.0  0.9270947666055211  0.9058214747358303  0.1777308840594572  1.0000
  C   C16       1.0  0.0729079085208326  0.09417653356096169  0.8222633838756224  1.0000
  C   C17       1.0  0.22800606304465276  0.13388801066133738  0.47829884408690054  1.0000
  C   C18       1.0  0.7719873131195246  0.8661071302349156  0.5217034385783066  1.0000
  C   C19       1.0  0.5366541722389256  0.8502726889930089  0.07175864041879274  1.0000
  C   C20       1.0  0.46334445581555184  0.1497214113655403  0.9282498924799967  1.0000
  C   C21       1.0  0.43778492186114454  0.8382573281664916  0.010639972436763416  1.0000
  C   C22       1.0  0.5622146654469943  0.16173471236361786  0.9893691985180056  1.0000
  C   C23       1.0  0.6427515339977107  0.6335890149576571  0.9936317094422905  1.0000
  C   C24       1.0  0.35725639310354756  0.36640788560506365  0.006361899821818909  1.0000
  C   C25       1.0  0.4559163148160792  0.6378703735022881  0.8802180647635041  1.0000
  C   C26       1.0  0.5440825351631986  0.36213083694312337  0.11978329155145667  1.0000
  C   C27       1.0  0.502430709831046  0.6868370749673502  0.7512466360874442  1.0000
  C   C28       1.0  0.4975662215986034  0.31316828873312363  0.24875689856785502  1.0000
  C   C29       1.0  0.4777257596352483  0.6026105639913837  0.6596039862588655  1.0000
  C   C30       1.0  0.5222740376455093  0.3973936909871015  0.3403952764128633  1.0000
  C   C31       1.0  0.6664665008982523  0.6139968557500239  0.43929117599218864  1.0000
  C   C32       1.0  0.33353831451215393  0.3860042605704023  0.5607092820539776  1.0000
  C   C33       1.0  0.48132437055840427  0.7733242115862993  0.3840363775279699  1.0000
  C   C34       1.0  0.5186832986768907  0.22668095917046574  0.6159631221269065  1.0000
  C   C35       1.0  0.39199625274782335  0.7548173590501931  0.5040776187152929  1.0000
  C   C36       1.0  0.6080116623272147  0.24518470467086223  0.495919304141097  1.0000
  N   N1        1.0  0.6636092639624067  0.7218571234475489  0.060579589093784136  1.0000
  N   N2        1.0  0.33639723618410505  0.27813778349518253  0.9394179538182498  1.0000
  N   N3        1.0  0.5069268108695224  0.7001437406879064  0.9619721385076546  1.0000
  N   N4        1.0  0.49307228489661975  0.29985440471952524  0.03803095907417747  1.0000
  N   N5        1.0  0.5112680639199425  0.6526818944538489  0.5375462745858783  1.0000
  N   N6        1.0  0.48873579224737557  0.3473212732954636  0.4624526817912482  1.0000
  N   N7        1.0  0.6517878853981572  0.6855343476934476  0.34492417479862064  1.0000
  N   N8        1.0  0.34821931618893837  0.3144667276171588  0.6550755784947954  1.0000
  O   O1        1.0  0.0008940487739649793  0.46082951418707563  0.21414149110010783  1.0000
  O   O2        1.0  0.9991098193878472  0.5391685156025404  0.7858567425239471  1.0000
  O   O3        1.0  0.9120726240107898  0.3972115270584098  0.07660761965571791  1.0000
  O   O4        1.0  0.0879314779962712  0.6027885336551932  0.923388759922922  1.0000
  O   O5        1.0  0.7942963849691156  0.9487842658868788  0.15319582704827878  1.0000
  O   O6        1.0  0.20569962319034124  0.0512077437629372  0.8468049012918398  1.0000
  O   O7        1.0  0.015163414964419612  0.77749295517372  0.17871661595699354  1.0000
  O   O8        1.0  0.9848511910982227  0.22250480607626597  0.8212698101490118  1.0000
  O   O9        1.0  0.1775167287847239  0.039272059065439194  0.4315672841164115  1.0000
  O   O10       1.0  0.8224699564976065  0.9607273003064093  0.5684368591684857  1.0000
