data_image0
_chemical_formula_structural       Li4H40C16N8Cl4
_chemical_formula_sum              "Li4 H40 C16 N8 Cl4"
_cell_length_a       6.644203360014267
_cell_length_b       6.917398486529582
_cell_length_c       13.869421614787042
_cell_angle_alpha    97.09057857968433
_cell_angle_beta     89.99976320558221
_cell_angle_gamma    90.00000888962104

_space_group_name_H-M_alt    "P 1"
_space_group_IT_number       1

loop_
  _space_group_symop_operation_xyz
  'x, y, z'

loop_
  _atom_site_type_symbol
  _atom_site_label
  _atom_site_symmetry_multiplicity
  _atom_site_fract_x
  _atom_site_fract_y
  _atom_site_fract_z
  _atom_site_occupancy
  Li  Li1       1.0  0.12182495754227318  0.12433257727323617  0.7068029693815916  1.0000
  Li  Li2       1.0  0.621825901381911  0.8756618949360797  0.7931958416484973  1.0000
  Li  Li3       1.0  0.8781733147846751  0.8756622603236007  0.29319731461026066  1.0000
  Li  Li4       1.0  0.3781738760166604  0.12433148596222307  0.20680434544523507  1.0000
  H   H1        1.0  0.29469578406427394  0.4840718243097441  0.751393517019558  1.0000
  H   H2        1.0  0.7946925358637672  0.5159168033506843  0.7486024005218112  1.0000
  H   H3        1.0  0.7053070034859986  0.5159230570183837  0.2486046067366486  1.0000
  H   H4        1.0  0.20530874659933573  0.48407946178915745  0.25139942051772823  1.0000
  H   H5        1.0  0.45160088218069216  0.30664512446069364  0.7694620994062331  1.0000
  H   H6        1.0  0.9515948104354451  0.6933449040887039  0.7305336012845911  1.0000
  H   H7        1.0  0.5484034104440241  0.6933497714445309  0.23053530427142016  1.0000
  H   H8        1.0  0.0484064720471977  0.3066470784205321  0.26946360860284807  1.0000
  H   H9        1.0  0.5091058160359339  0.21219205311283665  0.6116159203155644  1.0000
  H   H10       1.0  0.009109438541884202  0.7878025612307908  0.8883780755675585  1.0000
  H   H11       1.0  0.49088794109597694  0.787801415250726  0.388379946321919  1.0000
  H   H12       1.0  0.9908993692987664  0.21219817604405472  0.11161899561499666  1.0000
  H   H13       1.0  0.5053777474848289  0.46992067087319356  0.6183432683722073  1.0000
  H   H14       1.0  0.005379878630407102  0.5300782565820724  0.8816539059651374  1.0000
  H   H15       1.0  0.4946175147187049  0.5300713407918421  0.38165250136715645  1.0000
  H   H16       1.0  0.9946244139732981  0.46992820544507896  0.11834859334770437  1.0000
  H   H17       1.0  0.29529595590979346  0.35027946189985215  0.4816112918470522  1.0000
  H   H18       1.0  0.7953022443535505  0.6497217139739604  0.018385257792346003  1.0000
  H   H19       1.0  0.704697801215012  0.6497183474037767  0.5183863056343653  1.0000
  H   H20       1.0  0.20471258375083326  0.3502935028182603  0.9816171028125991  1.0000
  H   H21       1.0  0.1408285756280563  0.46104070034596123  0.5774752821875281  1.0000
  H   H22       1.0  0.6408268394983239  0.5389596064748261  0.9225231583547141  1.0000
  H   H23       1.0  0.85916668655846  0.5389585219235683  0.4225245724201371  1.0000
  H   H24       1.0  0.35918046323871533  0.461046811819692  0.07748150118624857  1.0000
  H   H25       1.0  0.3533749789937914  0.958862451306885  0.5341639836235429  1.0000
  H   H26       1.0  0.8533757932304765  0.041137736180424184  0.9658361921360379  1.0000
  H   H27       1.0  0.6466172730500619  0.04113677096317759  0.4658358709871279  1.0000
  H   H28       1.0  0.1466209740402888  0.9588746692600408  0.034160934154428384  1.0000
  H   H29       1.0  0.2492048751030751  0.025438426484534194  0.4233405088327728  1.0000
  H   H30       1.0  0.7492062009951468  0.9745626783201757  0.0766604534383291  1.0000
  H   H31       1.0  0.7507918921429136  0.9745578240787437  0.5766620322883256  1.0000
  H   H32       1.0  0.2508041119082733  0.025449683385787094  0.9233388330697279  1.0000
  H   H33       1.0  0.9384928926300661  0.23197104223356033  0.435751232682172  1.0000
  H   H34       1.0  0.43848576541979156  0.7680299806671654  0.06425007117103829  1.0000
  H   H35       1.0  0.0615038746280732  0.7680267233374422  0.5642485250273735  1.0000
  H   H36       1.0  0.5615094967434829  0.23197642305213148  0.935755308459008  1.0000
  H   H37       1.0  0.841129323561596  0.30902311484170736  0.5541444606648368  1.0000
  H   H38       1.0  0.34112490767634535  0.6909858755012477  0.9458534406580907  1.0000
  H   H39       1.0  0.1588689487735095  0.6909775932802802  0.4458540506823424  1.0000
  H   H40       1.0  0.6588733646533101  0.3090264716294868  0.05414656593904969  1.0000
  C   C1        1.0  0.41247717102104536  0.3408334035205058  0.6270027318973774  1.0000
  C   C2        1.0  0.9124773884082772  0.6591624657367916  0.8729934346060231  1.0000
  C   C3        1.0  0.5875226063871537  0.6591585644116333  0.372995198068608  1.0000
  C   C4        1.0  0.08753292449320331  0.34084405459874734  0.12700618439261285  1.0000
  C   C5        1.0  0.2384430707973593  0.3349456965708625  0.5555549973133721  1.0000
  C   C6        1.0  0.7384486924173146  0.6650560030715126  0.9444447850806836  1.0000
  C   C7        1.0  0.7615582116685573  0.665052039844603  0.44444620054574085  1.0000
  C   C8        1.0  0.2615571052509226  0.33495334319717057  0.05555934817797239  1.0000
  C   C9        1.0  0.2131657049913045  0.9909719277806058  0.4974903617729395  1.0000
  C   C10       1.0  0.7131675050245719  0.009032103239370296  0.0025108663554291996  1.0000
  C   C11       1.0  0.7868310622702452  0.009024395669491998  0.5025085789629457  1.0000
  C   C12       1.0  0.2868367875810733  0.990980200158198  0.9974913004668192  1.0000
  C   C13       1.0  0.9185172633448674  0.18922078571406328  0.5095988402129734  1.0000
  C   C14       1.0  0.41851248336307373  0.8107808353019548  0.9904013021892408  1.0000
  C   C15       1.0  0.0814795039228997  0.8107755668907684  0.4903986603688252  1.0000
  C   C16       1.0  0.5814782635949527  0.1892285255467741  0.009602111007410498  1.0000
  N   N1        1.0  0.3349324550500441  0.3432718646549304  0.7268179903613115  1.0000
  N   N2        1.0  0.834933534060987  0.656725488882472  0.7731784280975232  1.0000
  N   N3        1.0  0.6650673223600948  0.6567259446476258  0.2731796071140877  1.0000
  N   N4        1.0  0.16506172811795494  0.34326494946538577  0.22682300536158095  1.0000
  N   N5        1.0  0.11445829468730302  0.1581736156712452  0.5543318128035182  1.0000
  N   N6        1.0  0.6144654412471484  0.8418281134938184  0.9456689375880314  1.0000
  N   N7        1.0  0.8855339573571329  0.8418226932022885  0.44566784801392584  1.0000
  N   N8        1.0  0.3855388513621918  0.15818129108459533  0.054332315363950584  1.0000
  Cl  Cl1       1.0  0.3019849795440024  0.8357279479620201  0.7271367539576303  1.0000
  Cl  Cl2       1.0  0.8019844714366827  0.16426500346791778  0.7728615999263864  1.0000
  Cl  Cl3       1.0  0.6980147978605018  0.16426691878928068  0.2728620898786289  1.0000
  Cl  Cl4       1.0  0.1980168110207785  0.8357283191206619  0.22714146747401995  1.0000
