data_image0
_chemical_formula_structural       Ti12H72C108O48
_chemical_formula_sum              "Ti12 H72 C108 O48"
_cell_length_a       11.822377538000385
_cell_length_b       20.072994344777474
_cell_length_c       20.073021665064896
_cell_angle_alpha    120.00023115721656
_cell_angle_beta     89.99997302173242
_cell_angle_gamma    90.00000351430347

_space_group_name_H-M_alt    "P 1"
_space_group_IT_number       1

loop_
  _space_group_symop_operation_xyz
  'x, y, z'

loop_
  _atom_site_type_symbol
  _atom_site_label
  _atom_site_symmetry_multiplicity
  _atom_site_fract_x
  _atom_site_fract_y
  _atom_site_fract_z
  _atom_site_occupancy
  Ti  Ti1       1.0  0.6048580421386305  0.9999989578536346  0.10258411887582498  1.0000
  Ti  Ti2       1.0  0.604858481579825  0.10258437997386242  0.9999992429365108  1.0000
  Ti  Ti3       1.0  0.6048585641647578  0.8974157986566386  0.8974154965964303  1.0000
  Ti  Ti4       1.0  0.10485841320478781  1.2658575484808369e-06  0.8974156987662097  1.0000
  Ti  Ti5       1.0  0.10485797376315278  0.8974157666702355  1.648137406048316e-06  1.0000
  Ti  Ti6       1.0  0.10485873703208169  0.10258413742923982  0.10258460866992179  1.0000
  Ti  Ti7       1.0  0.895141446552799  0.9999989380581626  0.1025840688226224  1.0000
  Ti  Ti8       1.0  0.8951411227250716  0.8974159894193933  0.8974162323507925  1.0000
  Ti  Ti9       1.0  0.8951418859939936  0.10258436017839778  0.9999991928833082  1.0000
  Ti  Ti10      1.0  0.3951418176189563  1.246062076687132e-06  0.8974156487130144  1.0000
  Ti  Ti11      1.0  0.39514129559270117  0.10258411763382473  0.1025845586168685  1.0000
  Ti  Ti12      1.0  0.39514222403087007  0.8974157468747068  1.598084054344346e-06  1.0000
  H   H1        1.0  0.6175313672824031  0.8366363226742451  0.3273453068120276  1.0000
  H   H2        1.0  0.6175314149323655  0.490708644739577  0.16336531518825836  1.0000
  H   H3        1.0  0.6175321316759083  0.672655914770637  0.5092907256808629  1.0000
  H   H4        1.0  0.11753024380767842  0.16336410986671987  0.6726552922671871  1.0000
  H   H5        1.0  0.11752935030460068  0.5092918648685298  0.8366342104592305  1.0000
  H   H6        1.0  0.1175328628285399  0.32734401958668985  0.4907093752148199  1.0000
  H   H7        1.0  0.8824695153551331  0.1633661319813982  0.4907098622098828  1.0000
  H   H8        1.0  0.8824677687991881  0.5092910087766215  0.6726561195836496  1.0000
  H   H9        1.0  0.8824693853074096  0.3273441145554161  0.8366350684365287  1.0000
  H   H10       1.0  0.3824694389229463  0.8366334786166764  0.5092904349447592  1.0000
  H   H11       1.0  0.3824694937720068  0.49070996288070756  0.3273438128808621  1.0000
  H   H12       1.0  0.3824704148239135  0.6726557066007575  0.16336601452538696  1.0000
  H   H13       1.0  0.382469338328427  0.16336409179957226  0.6726552465840783  1.0000
  H   H14       1.0  0.38247013653244716  0.5092918468012613  0.8366341647758303  1.0000
  H   H15       1.0  0.38246772808154356  0.3273440015198334  0.4907093295324358  1.0000
  H   H16       1.0  0.8824696159497804  0.8366358064237504  0.3273447629461116  1.0000
  H   H17       1.0  0.882468817746016  0.4907086266725429  0.16336526950543365  1.0000
  H   H18       1.0  0.8824678427824678  0.6726558967037165  0.5092906799983368  1.0000
  H   H19       1.0  0.11753119025573969  0.836633496683767  0.509290480627726  1.0000
  H   H20       1.0  0.11753039925125108  0.4907099809478553  0.327343858563971  1.0000
  H   H21       1.0  0.1175304744500423  0.6726558017350471  0.16336498677677005  1.0000
  H   H22       1.0  0.6175304208345124  0.16336643767379402  0.4907096202685394  1.0000
  H   H23       1.0  0.6175320576926353  0.5092910268435348  0.6726561652661757  1.0000
  H   H24       1.0  0.617530290786661  0.3273441326225708  0.8366351141196446  1.0000
  H   H25       1.0  0.6174806488150111  0.9080140968762153  0.25491755821270334  1.0000
  H   H26       1.0  0.6174806848145308  0.34690330422515103  0.09198631117505579  1.0000
  H   H27       1.0  0.6174796349158385  0.745082274168624  0.6530956961466073  1.0000
  H   H28       1.0  0.11748030570272049  0.0919863356716207  0.7450830408838698  1.0000
  H   H29       1.0  0.11748026970349909  0.6530969177645222  0.9080135021141019  1.0000
  H   H30       1.0  0.11747962789513619  0.25491716201251086  0.3469039065843517  1.0000
  H   H31       1.0  0.882519474609552  0.09198770416210787  0.3469041426356013  1.0000
  H   H32       1.0  0.8825201902040191  0.6530960974130977  0.7450835514556146  1.0000
  H   H33       1.0  0.8825201041409089  0.25491645736097734  0.908012359746543  1.0000
  H   H34       1.0  0.3825192903874565  0.9080121940544006  0.6530958668773721  1.0000
  H   H35       1.0  0.38252111235359365  0.34690458661189183  0.2549166686154151  1.0000
  H   H36       1.0  0.3825203525630698  0.7450831532301764  0.09198793739060561  1.0000
  H   H37       1.0  0.3825200567958191  0.09198631759760197  0.7450829951834023  1.0000
  H   H38       1.0  0.3825191749430559  0.6530968996905601  0.9080134564137765  1.0000
  H   H39       1.0  0.3825202248416133  0.25491764212183915  0.3469043590666915  1.0000
  H   H40       1.0  0.8825195540547384  0.9080135806188496  0.254917014329429  1.0000
  H   H41       1.0  0.8825187442005386  0.3469032861512532  0.09198626547487976  1.0000
  H   H42       1.0  0.8825202318624931  0.7450822560945556  0.6530956504459978  1.0000
  H   H43       1.0  0.1174803851479069  0.9080122121283553  0.6530959125776973  1.0000
  H   H44       1.0  0.11747882369996888  0.34690489231132204  0.2549164266918567  1.0000
  H   H45       1.0  0.117479755616543  0.7450834589294928  0.09198769546675575  1.0000
  H   H46       1.0  0.6174805693699952  0.09198772223606978  0.3469041883359266  1.0000
  H   H47       1.0  0.6174795932573715  0.6530961154871662  0.7450835971562312  1.0000
  H   H48       1.0  0.617479507194261  0.2549164754350529  0.9080124054471524  1.0000
  H   H49       1.0  0.7499997569870018  0.8824983463485979  0.055729983090323204  1.0000
  H   H50       1.0  0.7499996952224919  0.1732289654485513  0.11749568769857888  1.0000
  H   H51       1.0  0.7500002971227744  0.9442687720109578  0.8267714123461188  1.0000
  H   H52       1.0  0.2500001027708905  0.1175016470089504  0.9442689986911007  1.0000
  H   H53       1.0  0.25000016453496704  0.826770950841919  0.8825043675147201  1.0000
  H   H54       1.0  0.24999956263454948  0.05573085665426454  0.1732289304916463  1.0000
  H   H55       1.0  0.7499996699823798  0.11749603246884993  0.17322946532883068  1.0000
  H   H56       1.0  0.7500002439116855  0.8267709835676984  0.9442688809405694  1.0000
  H   H57       1.0  0.7500002284219819  0.05572978272682162  0.8824982888383914  1.0000
  H   H58       1.0  0.25000018977507926  0.882503883821613  0.8267705898844679  1.0000
  H   H59       1.0  0.2499996158457733  0.1732289327227718  0.055731174272729306  1.0000
  H   H60       1.0  0.24999963133539177  0.9442690601297558  0.1175018434408769  1.0000
  H   H61       1.0  0.49999998418189767  0.8095947944844823  0.40479787693777064  1.0000
  H   H62       1.0  0.5000009047495341  0.5952031377645853  0.19040526424521434  1.0000
  H   H63       1.0  0.4999999729934217  0.595202552863725  0.4047966956806801  1.0000
  H   H64       1.0  0.9999999796999858  0.19040558589257742  0.5952025902440994  1.0000
  H   H65       1.0  5.425902359e-07  0.40479731080597503  0.809595375365127  1.0000
  H   H66       1.0  0.9999999908885117  0.40479704170469694  0.5952035609426928  1.0000
  H   H67       1.0  0.49999987557538367  0.1904056199893846  0.5952026764584843  1.0000
  H   H68       1.0  0.49999980086129636  0.40479727670923205  0.8095952891508915  1.0000
  H   H69       1.0  0.4999998867639022  0.40479707580149704  0.5952036471570779  1.0000
  H   H70       1.0  8.830663490000007e-08  0.8095950480129235  0.4047975030989263  1.0000
  H   H71       1.0  1.6302076490000004e-07  0.5952026054844312  0.19040467984802223  1.0000
  H   H72       1.0  7.711815899999994e-08  0.595202806392159  0.40479632184183606  1.0000
  C   C1        1.0  0.5651180715936945  0.816839272900964  0.2761373598167083  1.0000
  C   C2        1.0  0.5651197818947439  0.45929886144683973  0.18316139512848642  1.0000
  C   C3        1.0  0.565119652442938  0.7238626250681648  0.5407007606089137  1.0000
  C   C4        1.0  0.06511860085652901  0.1831606686049838  0.723862759154386  1.0000
  C   C5        1.0  0.06511858226253511  0.5407018658676463  0.8168389344008132  1.0000
  C   C6        1.0  0.0651178658611826  0.2761363200709184  0.459298361996133  1.0000
  C   C7        1.0  0.934881152440795  0.18316134443730195  0.45929807147230406  1.0000
  C   C8        1.0  0.9348810650941883  0.5407012521869987  0.7238635386511233  1.0000
  C   C9        1.0  0.9348810140335002  0.276136578165904  0.8168384936945969  1.0000
  C   C10       1.0  0.43488189462372157  0.8168390448210873  0.5407024181661484  1.0000
  C   C11       1.0  0.43488282782404036  0.4592986388879298  0.27613645280423066  1.0000
  C   C12       1.0  0.434882878884558  0.7238638110924286  0.18316199594370622  1.0000
  C   C13       1.0  0.4348809423102153  0.183160643389563  0.7238626953967326  1.0000
  C   C14       1.0  0.4348809237162142  0.5407018406522256  0.8168388706431599  1.0000
  C   C15       1.0  0.43488189902196683  0.27613629485537683  0.4592982982381884  1.0000
  C   C16       1.0  0.9348812589007521  0.8168397458688903  0.2761377942418619  1.0000
  C   C17       1.0  0.9348795857877761  0.45929883623158224  0.18316133137127363  1.0000
  C   C18       1.0  0.9348819938964468  0.723863098036148  0.5407011950342094  1.0000
  C   C19       1.0  0.06511786146311492  0.816838571853225  0.5407019837411368  1.0000
  C   C20       1.0  0.06511710295633581  0.45929816592018113  0.27613601837951757  1.0000
  C   C21       1.0  0.0651188457239513  0.7238633381245663  0.18316156151870186  1.0000
  C   C22       1.0  0.5651188109871085  0.18316136965272986  0.4592981352299573  1.0000
  C   C23       1.0  0.5651187236405093  0.5407012774024198  0.7238636024087768  1.0000
  C   C24       1.0  0.5651186725798211  0.2761366033813318  0.8168385574522503  1.0000
  C   C25       1.0  0.5658294526019886  0.8566365438848892  0.2359645673908162  1.0000
  C   C26       1.0  0.5658286189411825  0.37932755340841606  0.1433644302575274  1.0000
  C   C27       1.0  0.565830139477832  0.7640360096597903  0.6206721662191654  1.0000
  C   C28       1.0  0.0658282538106505  0.14336389570755895  0.7640360495182038  1.0000
  C   C29       1.0  0.065828241618469  0.620673250876422  0.8566348255953  1.0000
  C   C30       1.0  0.0658301044959231  0.23596372119092027  0.37932716669905625  1.0000
  C   C31       1.0  0.934171511279004  0.14336438008231064  0.3793268726205881  1.0000
  C   C32       1.0  0.9341688444828264  0.6206738400770251  0.7640368460104553  1.0000
  C   C33       1.0  0.93417132486325  0.23596289108585483  0.8566354456151686  1.0000
  C   C34       1.0  0.4341713476766457  0.8566355110895217  0.6206731190797966  1.0000
  C   C35       1.0  0.43417063105875536  0.37932633872028293  0.23596285806604564  1.0000
  C   C36       1.0  0.43417153409209414  0.7640372106441405  0.14336533189262465  1.0000
  C   C37       1.0  0.4341712530088415  0.143363870588928  0.7640359860052897  1.0000
  C   C38       1.0  0.4341720866700385  0.6206737239411311  0.8566352602651932  1.0000
  C   C39       1.0  0.43416972027992534  0.235963696072517  0.37932710318672486  1.0000
  C   C40       1.0  0.9341716059468085  0.8566360205829116  0.2359640056950949  1.0000
  C   C41       1.0  0.9341707722858243  0.3793275282898351  0.14336436674475547  1.0000
  C   C42       1.0  0.9341697552615286  0.7640361950995499  0.6206728885142425  1.0000
  C   C43       1.0  0.06582834847844772  0.8566355362081597  0.6206731825927108  1.0000
  C   C44       1.0  0.0658293235676553  0.37932636383879986  0.23596292157867532  1.0000
  C   C45       1.0  0.0658285348942016  0.7640370252046155  0.14336460959812997  1.0000
  C   C46       1.0  0.5658285120808131  0.14336440520094135  0.3793269361335021  1.0000
  C   C47       1.0  0.5658309204059293  0.6206738651953149  0.7640369095225026  1.0000
  C   C48       1.0  0.5658283256650591  0.2359629162044856  0.8566355091280897  1.0000
  C   C49       1.0  0.5000008888163946  0.7497069139468311  0.2502947479143174  1.0000
  C   C50       1.0  0.4999991841083186  0.5005870519459208  0.25029378673000485  1.0000
  C   C51       1.0  0.5000007889995787  0.7497061545277222  0.49941266327567757  1.0000
  C   C52       1.0  5.585233822000001e-07  0.25029353462373655  0.7497058916960312  1.0000
  C   C53       1.0  0.9999982422129179  0.49941332843132374  0.7497066804522987  1.0000
  C   C54       1.0  1.5041942234000001e-06  0.2502935853012148  0.5005866923441502  1.0000
  C   C55       1.0  0.4999998167944355  0.25029350052698635  0.7497058054817883  1.0000
  C   C56       1.0  0.5000015215025115  0.49941336252789637  0.7497067666661009  1.0000
  C   C57       1.0  0.4999982249046298  0.25029355120464203  0.5005866061303479  1.0000
  C   C58       1.0  1.4708761850000007e-07  0.7497063816666769  0.2502941635171253  1.0000
  C   C59       1.0  7.716909423e-07  0.5005873736678554  0.250293585319639  1.0000
  C   C60       1.0  0.9999983555632354  0.7497063309892483  0.4994133628691485  1.0000
  C   C61       1.0  0.5000009254485676  0.8305960489537726  0.16940583310124416  1.0000
  C   C62       1.0  0.5000008997838706  0.33880814430327894  0.16940257596519354  1.0000
  C   C63       1.0  0.5000007283996908  0.8305957936722311  0.66119092961398  1.0000
  C   C64       1.0  0.9999998842866945  0.16940482960664138  0.8305951322634256  1.0000
  C   C65       1.0  0.9999999099521729  0.6611918149574125  0.8305963196016961  1.0000
  C   C66       1.0  8.133596200000002e-08  0.16940330271272339  0.3388088288262949  1.0000
  C   C67       1.0  0.4999997801619642  0.1694045760782076  0.8305955061022702  1.0000
  C   C68       1.0  0.5000006516811197  0.6611918490541555  0.8305964058159389  1.0000
  C   C69       1.0  0.49999997721118217  0.16940383499293432  0.3388094132236361  1.0000
  C   C70       1.0  1.837200969e-07  0.8305953061154555  0.1694044628966367  1.0000
  C   C71       1.0  0.9999993122013748  0.3388081102065855  0.16940248975109984  1.0000
  C   C72       1.0  0.9999999866708789  0.8305960472007216  0.6611905557752776  1.0000
  C   C73       1.0  0.500000098999287  0.873441722316102  0.1265582836422681  1.0000
  C   C74       1.0  0.4999975290644514  0.253115442031806  0.12655798154306547  1.0000
  C   C75       1.0  0.5000023880070898  0.8734413844553189  0.7468845116178287  1.0000
  C   C76       1.0  1.3483408381000005e-06  0.12655772988765795  0.8734413596021682  1.0000
  C   C77       1.0  0.9999982055499929  0.746884727787382  0.8734416998321135  1.0000
  C   C78       1.0  2.4427471814e-06  0.12655885355685115  0.2531153421845147  1.0000
  C   C79       1.0  0.4999989149046585  0.12655740816578034  0.873441561012683  1.0000
  C   C80       1.0  0.5000023306931354  0.7468847618839051  0.8734417860457738  1.0000
  C   C81       1.0  0.49999747175049697  0.12655881946039224  0.2531152559710037  1.0000
  C   C82       1.0  2.0312419480000004e-07  0.8734414776611319  0.12655741162046744  1.0000
  C   C83       1.0  1.6542075940000002e-06  0.253115476128329  0.12655806775671857  1.0000
  C   C84       1.0  0.9999982628639471  0.8734413503588032  0.7468844254041754  1.0000
  C   C85       1.0  0.5000008695773701  0.7072243777767042  0.2927771684398123  1.0000
  C   C86       1.0  0.5000000173747452  0.5855521766096174  0.2927749371029335  1.0000
  C   C87       1.0  0.5000016666798358  0.7072239307263574  0.4144477313206281  1.0000
  C   C88       1.0  5.777623997000001e-07  0.2927760707938631  0.7072234711705361  1.0000
  C   C89       1.0  0.9999991006537668  0.41444770558410254  0.7072250318961223  1.0000
  C   C90       1.0  1.4723672095e-06  0.29277601966068556  0.5855524101064731  1.0000
  C   C91       1.0  0.49999983603346  0.29277603669711294  0.7072233849562934  1.0000
  C   C92       1.0  0.5000006882362555  0.4144477396807887  0.707225118110216  1.0000
  C   C93       1.0  0.49999819307761567  0.2927759855641059  0.5855523238926708  1.0000
  C   C94       1.0  1.2784860100000008e-07  0.7072238454965502  0.29277658404262036  1.0000
  C   C95       1.0  1.2149935460000003e-07  0.5855521425128104  0.29277485088854854  1.0000
  C   C96       1.0  0.9999983873902423  0.7072238966297848  0.4144476451068256  1.0000
  C   C97       1.0  0.5000016851863336  0.7468406859870244  0.3734202310608835  1.0000
  C   C98       1.0  0.5000017270961052  0.6265794225807754  0.2531596520220347  1.0000
  C   C99       1.0  0.5000008330565251  0.6265793031108728  0.37342003084613395  1.0000
  C   C100      1.0  6.080072907000001e-07  0.2531595520253163  0.6265796227419073  1.0000
  C   C101      1.0  0.9999999284930466  0.373420459612774  0.7468403169765877  1.0000
  C   C102      1.0  6.142834224e-07  0.3734206472762835  0.6265801105812584  1.0000
  C   C103      1.0  0.49999902042466726  0.25315923030338183  0.6265798241522731  1.0000
  C   C104      1.0  0.4999998243684445  0.37342049370958125  0.7468404031909728  1.0000
  C   C105      1.0  0.4999998725543477  0.3734203255542924  0.626580311991475  1.0000
  C   C106      1.0  0.9999992517502889  0.7468406518903948  0.37342014484693203  1.0000
  C   C107      1.0  0.9999992936601956  0.6265796761093868  0.25315927818362377  1.0000
  C   C108      1.0  0.9999992454743348  0.6265790584560236  0.3734191588246317  1.0000
  O   O1        1.0  0.5688864062510745  0.9291031808048517  0.14826270975891725  1.0000
  O   O2        1.0  0.5688830167869057  0.21915674696488455  0.07089054658487016  1.0000
  O   O3        1.0  0.5688793819222298  0.8517362701585117  0.7808428470486745  1.0000
  O   O4        1.0  0.06888597546860352  0.07089676018721044  0.8517374079128074  1.0000
  O   O5        1.0  0.06888344395818541  0.7808437692780716  0.929108995838959  1.0000
  O   O6        1.0  0.0688786202870162  0.14826259740063824  0.21915734769149958  1.0000
  O   O7        1.0  0.9311163486541146  0.07088993571307611  0.21915686706802257  1.0000
  O   O8        1.0  0.9311203615109989  0.7808428734881263  0.8517369599370566  1.0000
  O   O9        1.0  0.9311143765228919  0.14826280200812653  0.9291038649112408  1.0000
  O   O10       1.0  0.43111606426219845  0.9291085948163131  0.7808434903764051  1.0000
  O   O11       1.0  0.43112135579453087  0.21915780390841638  0.14826324337382596  1.0000
  O   O12       1.0  0.43111465297900514  0.8517370125135457  0.07089720127521544  1.0000
  O   O13       1.0  0.43111345350638436  0.07089673548561844  0.8517373454543814  1.0000
  O   O14       1.0  0.431116842970809  0.7808437445760675  0.9291089333795097  1.0000
  O   O15       1.0  0.4311213236885152  0.14826307088141283  0.21915778341340086  1.0000
  O   O16       1.0  0.9311138842888127  0.9291039419119045  0.14826285785898816  1.0000
  O   O17       1.0  0.9311164157995365  0.2191567222628876  0.07089048412542096  1.0000
  O   O18       1.0  0.9311203936168013  0.8517362454559887  0.7808427845879107  1.0000
  O   O19       1.0  0.0688835111031239  0.9291086195182532  0.780843552835712  1.0000
  O   O20       1.0  0.06887865239286131  0.21915782861104566  0.14826330583487385  1.0000
  O   O21       1.0  0.0688854832342543  0.8517373248404996  0.07089697610947346  1.0000
  O   O22       1.0  0.568883795495168  0.07089024804026424  0.2191566419028632  1.0000
  O   O23       1.0  0.5688793498164273  0.7808428981906488  0.8517370223978203  1.0000
  O   O24       1.0  0.5688852067781838  0.14826232852643528  0.929103429187009  1.0000
  O   O25       1.0  0.7499997488765189  0.9381383007613097  0.08321890497056461  1.0000
  O   O26       1.0  0.7499997160477038  0.14508756701411585  0.061855665619589176  1.0000
  O   O27       1.0  0.7500002844105611  0.9167748951036715  0.854916837121621  1.0000
  O   O28       1.0  0.2500001108812384  0.061861404970997666  0.9167803644353256  1.0000
  O   O29       1.0  0.2500001437100536  0.8549121387181915  0.9381436037863009  1.0000
  O   O30       1.0  0.24999957534689093  0.08322502118679863  0.1450832180916777  1.0000
  O   O31       1.0  0.7499996783542855  0.06185593495261802  0.145088067475541  1.0000
  O   O32       1.0  0.7500002563969447  0.8549167719939563  0.916774791843089  1.0000
  O   O33       1.0  0.7500002075628558  0.0832197774381386  0.9381380901560803  1.0000
  O   O34       1.0  0.2500001814031664  0.9381439813378523  0.8549119877377578  1.0000
  O   O35       1.0  0.2499996033603367  0.14508364247991784  0.08322576155316597  1.0000
  O   O36       1.0  0.24999965219477363  0.9167796406689279  0.06186146687426222  1.0000
  O   O37       1.0  0.4264048902602155  2.1039334540655253e-07  0.0851370836800243  1.0000
  O   O38       1.0  0.4264040829623426  0.0851367073790996  8.184503811991681e-07  1.0000
  O   O39       1.0  0.42639614701335654  0.914869168237033  0.914868868942726  1.0000
  O   O40       1.0  0.9264055599719397  0.9999998923958632  0.9148636965060035  1.0000
  O   O41       1.0  0.9264046755628497  0.9148636830354637  0.9999996741114786  1.0000
  O   O42       1.0  0.9263948485876057  0.08513101162058233  0.0851308378147806  1.0000
  O   O43       1.0  0.07359514563875541  2.34452713207325e-07  0.0851371445145688  1.0000
  O   O44       1.0  0.0736041653164676  0.9148684064865336  0.914868719215711  1.0000
  O   O45       1.0  0.0735960300479803  0.08513673143835382  8.792846272987734e-07  1.0000
  O   O46       1.0  0.5735941236435593  0.9999994182719336  0.9148632591578758  1.0000
  O   O47       1.0  0.5736054044513281  0.08513103567856463  0.08513089864581498  1.0000
  O   O48       1.0  0.5735949309413897  0.9148637070948313  0.9999997349460159  1.0000
