data_image0
_chemical_formula_structural       Al4H44C60S8N4O20
_chemical_formula_sum              "Al4 H44 C60 S8 N4 O20"
_cell_length_a       6.652228818
_cell_length_b       14.746764277509506
_cell_length_c       15.089
_cell_angle_alpha    90.0
_cell_angle_beta     90.0
_cell_angle_gamma    90.90465676317497

_space_group_name_H-M_alt    "P 1"
_space_group_IT_number       1

loop_
  _space_group_symop_operation_xyz
  'x, y, z'

loop_
  _atom_site_type_symbol
  _atom_site_label
  _atom_site_symmetry_multiplicity
  _atom_site_fract_x
  _atom_site_fract_y
  _atom_site_fract_z
  _atom_site_occupancy
  Al  Al1       1.0  0.9999940610656142  0.9999948368001768  0.0  1.0000
  Al  Al2       1.0  0.5000106429132245  0.4999997920979736  0.5000026509377662  1.0000
  Al  Al3       1.0  0.499997706624896  0.9999941586007777  0.9999986745311134  1.0000
  Al  Al4       1.0  6.642234709046544e-07  0.4999964011009936  0.4999993372655567  1.0000
  H   H1        1.0  0.2538113944064122  0.1191487827332267  0.0223076413281191  1.0000
  H   H2        1.0  0.24619598088610672  0.380843549171388  0.5222963748426039  1.0000
  H   H3        1.0  0.7462004446164272  0.880838593873591  0.9776989860162999  1.0000
  H   H4        1.0  0.753804211887946  0.6191546786257687  0.4777022996885165  1.0000
  H   H5        1.0  0.560777319947249  0.7284227743548257  0.6579123865067231  1.0000
  H   H6        1.0  0.9392167425564537  0.7715684635463447  0.1579176883822626  1.0000
  H   H7        1.0  0.43922179684145146  0.2715876610314609  0.3420703823977718  1.0000
  H   H8        1.0  0.06077483421718449  0.22844129364055016  0.8420995427132354  1.0000
  H   H9        1.0  0.5579142169297883  0.8499445767755842  0.7754536417257611  1.0000
  H   H10       1.0  0.9420651453395337  0.6500561559171343  0.2754629200079535  1.0000
  H   H11       1.0  0.44208053251561813  0.1500699278070883  0.2245278017098542  1.0000
  H   H12       1.0  0.057924856966835116  0.3499515666715709  0.7245483464775688  1.0000
  H   H13       1.0  0.9303526855252429  0.678901332639036  0.699076148187423  1.0000
  H   H14       1.0  0.5696498030809991  0.8210729502772336  0.1990695208429969  1.0000
  H   H15       1.0  0.06967564183435121  0.3210846875689909  0.3009205381403675  1.0000
  H   H16       1.0  0.4303540686565483  0.17890154054105514  0.8009225263436974  1.0000
  H   H17       1.0  0.9250287955803175  0.801626938988157  0.8152210219365088  1.0000
  H   H18       1.0  0.5749619043537422  0.6983541259220727  0.3152196964676222  1.0000
  H   H19       1.0  0.0749738340112458  0.19835501202349085  0.1847769898601612  1.0000
  H   H20       1.0  0.4250404641282515  0.3016203648962161  0.684765723374646  1.0000
  H   H21       1.0  0.7629882620447861  0.0847505093547198  0.3942938564517178  1.0000
  H   H22       1.0  0.7369896293541913  0.4152533519396329  0.8943110875472229  1.0000
  H   H23       1.0  0.23696718912078302  0.9152578914333771  0.6056995162038561  1.0000
  H   H24       1.0  0.2630458504149189  0.5847652218394117  0.1056981907349694  1.0000
  H   H25       1.0  0.2500766575689752  0.9102636310792889  0.32131619060242395  1.0000
  H   H26       1.0  0.2498784511892396  0.589736423414031  0.8213559546689666  1.0000
  H   H27       1.0  0.7498519011570438  0.0897495171045861  0.6786447080654767  1.0000
  H   H28       1.0  0.7501279919794187  0.410268586377093  0.1786758565842632  1.0000
  H   H29       1.0  0.4879134946667066  0.003273668485768199  0.40922062429584116  1.0000
  H   H30       1.0  0.012079014230785402  0.4967234108146242  0.9092637020345933  1.0000
  H   H31       1.0  0.5120344164838003  0.996734054102937  0.5907482271853652  1.0000
  H   H32       1.0  0.9879570905162182  0.5032700695867618  0.0907694346875232  1.0000
  H   H33       1.0  0.8426394903879029  0.8655682562673093  0.3129962224136804  1.0000
  H   H34       1.0  0.6573413513997508  0.6344317982260108  0.8130055006958727  1.0000
  H   H35       1.0  0.15731910971220486  0.1344442137171669  0.6869984757107801  1.0000
  H   H36       1.0  0.3426776637698269  0.3655888101512232  0.18700245211744  1.0000
  H   H37       1.0  0.9030267215928234  0.9381518684530616  0.2230817151567379  1.0000
  H   H38       1.0  0.5969596584724073  0.5618346220523378  0.7231002717211226  1.0000
  H   H39       1.0  0.0969404232960045  0.06184703754349389  0.7769083438266264  1.0000
  H   H40       1.0  0.4030496962584422  0.43816767494119796  0.2769222612499149  1.0000
  H   H41       1.0  0.6974576444972485  0.9638678331605917  0.2932135993107536  1.0000
  H   H42       1.0  0.8025200483558664  0.5361281521363495  0.7932467360328701  1.0000
  H   H43       1.0  0.30249613725212043  0.03613582023173478  0.7067559149048961  1.0000
  H   H44       1.0  0.19749448078424342  0.4638931344402835  0.20677977334482017  1.0000
  C   C1        1.0  0.24673274272787893  0.6212787991348703  0.6076665120286293  1.0000
  C   C2        1.0  0.25324866503903104  0.878699552977771  0.107659221949767  1.0000
  C   C3        1.0  0.7532746577399578  0.37871061207013657  0.3923374643780235  1.0000
  C   C4        1.0  0.7467301498358125  0.1212891800278371  0.8923421035191197  1.0000
  C   C5        1.0  0.24595889671342525  0.6967508625493011  0.673226191265158  1.0000
  C   C6        1.0  0.2540375198719147  0.8032268113639416  0.1732208893896185  1.0000
  C   C7        1.0  0.7540577131856878  0.3032439742508757  0.3267685068593025  1.0000
  C   C8        1.0  0.7459563987702893  0.196763956239856  0.8267830870170343  1.0000
  C   C9        1.0  0.4232522384065049  0.7453092611224006  0.6928828948240451  1.0000
  C   C10       1.0  0.07673852121508422  0.7546785857817894  0.1928822320896018  1.0000
  C   C11       1.0  0.5767421312431509  0.2546943922699256  0.3071045132215531  1.0000
  C   C12       1.0  0.9232512911934094  0.2453237112117463  0.8071217443170511  1.0000
  C   C13       1.0  0.24095705295249556  0.8995446896213435  0.8743521770826419  1.0000
  C   C14       1.0  0.2590476632394072  0.6004553648719835  0.3743594671615114  1.0000
  C   C15       1.0  0.7590399196753097  0.10044743438125177  0.1256431837762619  1.0000
  C   C16       1.0  0.7409691602948101  0.3995455757227617  0.6256398701040524  1.0000
  C   C17       1.0  0.24140278887647784  0.8320068809437939  0.8013367353701355  1.0000
  C   C18       1.0  0.25858350845288675  0.6679823223591868  0.3013380608390221  1.0000
  C   C19       1.0  0.758601913664272  0.1679913468533627  0.1986573000198817  1.0000
  C   C20       1.0  0.7414012482325205  0.3320043760482392  0.6986606136920912  1.0000
  C   C21       1.0  0.4214025639266126  0.8125493402649866  0.7574173238783217  1.0000
  C   C22       1.0  0.0785838995633839  0.6874446104337721  0.2574226257538612  1.0000
  C   C23       1.0  0.5785965291248516  0.18746041692190824  0.242571409636156  1.0000
  C   C24       1.0  0.9214087057211274  0.3125515827652022  0.7425873152627744  1.0000
  C   C25       1.0  0.0655983277856862  0.717582435204946  0.7161945788322583  1.0000
  C   C26       1.0  0.4343982312230636  0.7823993079046758  0.2161866260189527  1.0000
  C   C27       1.0  0.9344077118499925  0.2824110451964401  0.2838093975743945  1.0000
  C   C28       1.0  0.5656060203102413  0.2175860341039524  0.7838093975743945  1.0000
  C   C29       1.0  0.0627458487683583  0.7854200080156346  0.7798800450659442  1.0000
  C   C30       1.0  0.43725214228425824  0.7145597004957975  0.2798826960037104  1.0000
  C   C31       1.0  0.937263007480581  0.21456804679057476  0.2201100139174201  1.0000
  C   C32       1.0  0.5627623709284322  0.2854181813194714  0.7201120021207501  1.0000
  C   C33       1.0  0.05304527104767941  0.1170348352150725  0.4509510239247163  1.0000
  C   C34       1.0  0.4469472853242777  0.3829636004841105  0.9509728941613105  1.0000
  C   C35       1.0  0.9469175777095558  0.8829701745760443  0.5490390350586551  1.0000
  C   C36       1.0  0.5531041130879687  0.6170373401106344  0.0490357213864385  1.0000
  C   C37       1.0  0.9199415626036895  0.06524820751575788  0.399033733183117  1.0000
  C   C38       1.0  0.5800556337453102  0.4347488717846345  0.8990476506064056  1.0000
  C   C39       1.0  0.0800198778469152  0.9347595150729473  0.6009609649413505  1.0000
  C   C40       1.0  0.4199941427252014  0.5652486778131303  0.1009616276757868  1.0000
  C   C41       1.0  0.9896979497963373  0.9911382308843668  0.35075949367088544  1.0000
  C   C42       1.0  0.5102846088819888  0.5088679274035214  0.8507879912519059  1.0000
  C   C43       1.0  0.010247215952610102  0.0088769518976974  0.6492206242958432  1.0000
  C   C44       1.0  0.4897524928288561  0.4911540373725031  0.1492418317980011  1.0000
  C   C45       1.0  0.19451298250696425  0.9687942735750565  0.3574093710650175  1.0000
  C   C46       1.0  0.305454532091531  0.5312166321086096  0.8574537742726491  1.0000
  C   C47       1.0  0.8054232349202906  0.031222943805197197  0.6425621313539693  1.0000
  C   C48       1.0  0.6945629086107773  0.46880194167044204  0.1425926171383125  1.0000
  C   C49       1.0  0.3300642347847998  0.0214439867104659  0.4067287427927653  1.0000
  C   C50       1.0  0.169933068726202  0.4785612309826773  0.9067724832659536  1.0000
  C   C51       1.0  0.6699048643670409  0.9785678050746114  0.5932480615017539  1.0000
  C   C52       1.0  0.830104895334884  0.521442422409649  0.0932692690039119  1.0000
  C   C53       1.0  0.2605628660550607  0.0971256137383492  0.4528663264629884  1.0000
  C   C54       1.0  0.2394388522737074  0.4028768911572129  0.9529027768573144  1.0000
  C   C55       1.0  0.739393898468208  0.9028773614545855  0.5471204188481664  1.0000
  C   C56       1.0  0.7606172695403544  0.5971301532321007  0.0471243952548193  1.0000
  C   C57       1.0  0.8503054653480221  0.9370185972619038  0.2921028563854478  1.0000
  C   C58       1.0  0.6496632791833934  0.5629794226332263  0.7921247266220419  1.0000
  C   C59       1.0  0.1496289165023796  0.0629891253268013  0.7078792497846109  1.0000
  C   C60       1.0  0.3503586238111467  0.4370377947470202  0.2078964808801089  1.0000
  S   S1        1.0  0.9916312811748469  0.2070956458425428  0.5185883756378828  1.0000
  S   S2        1.0  0.5083825934087898  0.2929055026542287  0.018610245874477  1.0000
  S   S3        1.0  0.008327390136962305  0.7929188587401299  0.481396381469942  1.0000
  S   S4        1.0  0.4916910452529138  0.7070866213483666  0.9813957187355058  1.0000
  S   S5        1.0  0.3997941140557941  0.17425519647725443  0.5160017231095466  1.0000
  S   S6        1.0  0.10023012936923692  0.3257466302189087  0.0160421499105325  1.0000
  S   S7        1.0  0.6001793049648754  0.8257511697126602  0.4839777321227388  1.0000
  S   S8        1.0  0.8998482089570389  0.6742509193788493  0.9839843594671648  1.0000
  N   N1        1.0  0.2177402805125013  0.24248612493777694  0.5491364570216745  1.0000
  N   N2        1.0  0.2822807190290533  0.2575089197644189  0.0491563390549388  1.0000
  N   N3        1.0  0.782231611515364  0.7575195630527389  0.4508536019616969  1.0000
  N   N4        1.0  0.717794232990343  0.7424777786429999  0.9508469746172707  1.0000
  O   O1        1.0  0.2513221191326309  0.05507114737542199  0.0049758101928532  1.0000
  O   O2        1.0  0.2486821784370505  0.44491914993100307  0.504971171051757  1.0000
  O   O3        1.0  0.7486733027651481  0.9449196202283756  0.9950195506660506  1.0000
  O   O4        1.0  0.7513299929070669  0.5550777214673559  0.4950281662137996  1.0000
  O   O5        1.0  0.0717732693772035  0.9307723808223114  0.8976771157797074  1.0000
  O   O6        1.0  0.4282207816023345  0.5692236044746295  0.397680429451917  1.0000
  O   O7        1.0  0.9282266860245086  0.06921906498088497  0.1023242096891792  1.0000
  O   O8        1.0  0.5717793874344821  0.4307739451231285  0.6023268606269454  1.0000
  O   O9        1.0  0.07671381949858612  0.5853952690785462  0.5894598714295185  1.0000
  O   O10       1.0  0.42329321482466037  0.914585117632285  0.0894558950228657  1.0000
  O   O11       1.0  0.9233026954515894  0.4145968549240492  0.4105427795082477  1.0000
  O   O12       1.0  0.5767050236863724  0.08540022437634318  0.9105441049771343  1.0000
  O   O13       1.0  0.4104820216117703  0.9186095528497162  0.9092921996156136  1.0000
  O   O14       1.0  0.0895045130899348  0.5813864324472247  0.4093021406322492  1.0000
  O   O15       1.0  0.5895118495559757  0.0813798583552909  0.0907038239777336  1.0000
  O   O16       1.0  0.910500047027412  0.418607726153553  0.5906978593677508  1.0000
  O   O17       1.0  0.41566898542519237  0.5990847238921333  0.5751010670024499  1.0000
  O   O18       1.0  0.08434272482539738  0.9009004102144755  0.07509377692358749  1.0000
  O   O19       1.0  0.5843551170145177  0.4009094347086517  0.4249002584664296  1.0000
  O   O20       1.0  0.9156738138620144  0.09909239198751149  0.9249062230764125  1.0000
