data_image0
_chemical_formula_structural       Mn2Hg2H24C24S8N16
_chemical_formula_sum              "Mn2 Hg2 H24 C24 S8 N16"
_cell_length_a       8.783803363884749
_cell_length_b       8.848011049914183
_cell_length_c       14.20535041539677
_cell_angle_alpha    99.29821119819644
_cell_angle_beta     98.1355308587412
_cell_angle_gamma    106.31386884054118

_space_group_name_H-M_alt    "P 1"
_space_group_IT_number       1

loop_
  _space_group_symop_operation_xyz
  'x, y, z'

loop_
  _atom_site_type_symbol
  _atom_site_label
  _atom_site_symmetry_multiplicity
  _atom_site_fract_x
  _atom_site_fract_y
  _atom_site_fract_z
  _atom_site_occupancy
  Mn  Mn1       1.0  1.7400690865102407e-05  0.5001123238514324  8.944072124710776e-05  1.0000
  Mn  Mn2       1.0  0.5116430981910368  0.0008587593723419017  0.5033253282090655  1.0000
  Hg  Hg1       1.0  0.5385464709520704  0.46170601308895703  0.2522537461320766  1.0000
  Hg  Hg2       1.0  0.4593233839980825  0.5369005270223114  0.7472641658766647  1.0000
  H   H1        1.0  0.73459855333774  0.14655364662408493  0.8551749064125145  1.0000
  H   H2        1.0  0.8405477014141809  0.2635796348073923  0.642694532209731  1.0000
  H   H3        1.0  0.2653508031193468  0.8533692819780256  0.14481232035649327  1.0000
  H   H4        1.0  0.15414969303327544  0.7351958786725916  0.3557631139665247  1.0000
  H   H5        1.0  0.8339975198751758  0.8755344255534184  0.8051570482397209  1.0000
  H   H6        1.0  0.11566706655267467  0.1715831338587037  0.6925881007974083  1.0000
  H   H7        1.0  0.1658674924644359  0.12427089991734158  0.1950116465408271  1.0000
  H   H8        1.0  0.8794774847112591  0.828473136504691  0.30630775768513974  1.0000
  H   H9        1.0  0.22557529564772946  0.2547771880280366  0.9855416829068346  1.0000
  H   H10       1.0  0.7407455785738932  0.7707498948637623  0.5164796221173303  1.0000
  H   H11       1.0  0.7743670162435095  0.7452175478390758  0.014434313077096333  1.0000
  H   H12       1.0  0.25652666983142314  0.22763427062839275  0.4821905800033121  1.0000
  H   H13       1.0  0.21590077453645767  0.9407242457294703  0.8215993992487682  1.0000
  H   H14       1.0  0.059946174702659574  0.7958345542399173  0.6795601052702196  1.0000
  H   H15       1.0  0.784087667620831  0.05909620053500931  0.17841587795949468  1.0000
  H   H16       1.0  0.9385515437652713  0.20605022714845944  0.31986761264136726  1.0000
  H   H17       1.0  0.09692469867902533  0.811100607121702  0.8872818935412565  1.0000
  H   H18       1.0  0.18668110313439715  0.9117307990732827  0.610874690817539  1.0000
  H   H19       1.0  0.9030014667959562  0.1888513025844035  0.11279334288713731  1.0000
  H   H20       1.0  0.8106303791368036  0.0903447788796043  0.38788139912907127  1.0000
  H   H21       1.0  0.2644377227201816  0.9807934336467744  0.9507592138806088  1.0000
  H   H22       1.0  0.01960584937967281  0.7396740478513169  0.5504412365052715  1.0000
  H   H23       1.0  0.7355184420429807  0.019168086105906906  0.04925000009277618  1.0000
  H   H24       1.0  0.9787832445045622  0.26087423935823045  0.44894959125144845  1.0000
  C   C1        1.0  0.8511711377407424  0.12875601840347173  0.8752856206247727  1.0000
  C   C2        1.0  0.8611263961665826  0.14835902190204564  0.6235240132076569  1.0000
  C   C3        1.0  0.14884012674507122  0.8712547116587147  0.12460388568842261  1.0000
  C   C4        1.0  0.13429953316486376  0.8507921128822106  0.37522041173712484  1.0000
  C   C5        1.0  0.8978585687564757  0.9939855447621327  0.8505191688247749  1.0000
  C   C6        1.0  0.9974853811292165  0.10498001755456703  0.6478662543801548  1.0000
  C   C7        1.0  0.1021253713106987  0.005978394756446901  0.1494301578759192  1.0000
  C   C8        1.0  0.9977917391050255  0.8946355840217209  0.3510055406881634  1.0000
  C   C9        1.0  0.1047766774268268  0.19140397300440531  0.9432573500907822  1.0000
  C   C10       1.0  0.8027132140976929  0.8925357111642429  0.5575358267626669  1.0000
  C   C11       1.0  0.8952060966293799  0.8086196699999777  0.05664771680842052  1.0000
  C   C12       1.0  0.19410726459341282  0.10584194330466799  0.4412263386078194  1.0000
  C   C13       1.0  0.16477179486269483  0.9355256494715577  0.8875193654987257  1.0000
  C   C14       1.0  0.06298493993047324  0.842153559867569  0.6125301808170107  1.0000
  C   C15       1.0  0.8351795976563352  0.0643818451177012  0.1124911791272112  1.0000
  C   C16       1.0  0.9347750211181917  0.15883834039253492  0.386572090829894  1.0000
  C   C17       1.0  0.6464801471019895  0.3431748712694614  0.055282417771728404  1.0000
  C   C18       1.0  0.6534460222829067  0.3232291371782453  0.4412107231474635  1.0000
  C   C19       1.0  0.35348347589827966  0.6567300122238394  0.944449507701158  1.0000
  C   C20       1.0  0.35327577776884306  0.6781274001233301  0.5607879227268739  1.0000
  C   C21       1.0  0.5474611013826731  0.828253651547222  0.3033804346414399  1.0000
  C   C22       1.0  0.16292359353903413  0.4511287577916009  0.2167679003564231  1.0000
  C   C23       1.0  0.45838153012593347  0.17156440380520624  0.6987680669521693  1.0000
  C   C24       1.0  0.8364331430371337  0.5488774044202884  0.7831713523268249  1.0000
  S   S1        1.0  0.5049534286547087  0.23473980071857176  0.10334311973242903  1.0000
  S   S2        1.0  0.748356261259822  0.48537051583177526  0.40502991988090287  1.0000
  S   S3        1.0  0.4949320449783841  0.7649389241169687  0.8962342992183208  1.0000
  S   S4        1.0  0.25032355614252566  0.5170927309484696  0.5948988789694454  1.0000
  S   S5        1.0  0.5685883801021346  0.7371808228080073  0.1984176486398113  1.0000
  S   S6        1.0  0.2655862490409504  0.42994517905223273  0.31704131634451466  1.0000
  S   S7        1.0  0.4262314652870743  0.26154281672754826  0.8007704797927743  1.0000
  S   S8        1.0  0.7332812885598015  0.570204416221877  0.6830799737571168  1.0000
  N   N1        1.0  0.9813380976940208  0.2509577453070548  0.9333747126361942  1.0000
  N   N2        1.0  0.7404935388395513  0.014561602147395504  0.5669602263319291  1.0000
  N   N3        1.0  0.018674393799408114  0.7490899041671569  0.06646571162080053  1.0000
  N   N4        1.0  0.25484778596226937  0.9836679535626943  0.4314682869073608  1.0000
  N   N5        1.0  0.0591748910555339  0.035871023299762314  0.894373508324925  1.0000
  N   N6        1.0  0.9584498465911793  0.9433273801113132  0.6053241750926687  1.0000
  N   N7        1.0  0.9408187890245684  0.9641098035707075  0.10557061063543216  1.0000
  N   N8        1.0  0.03779085247394679  0.05633505236527721  0.39353594501754685  1.0000
  N   N9        1.0  0.7477329269910556  0.4180109155967601  0.019596677082191115  1.0000
  N   N10       1.0  0.5919948004187744  0.20573312193165805  0.4683245482390887  1.0000
  N   N11       1.0  0.2522452189640134  0.5818581901221124  0.9801380063713694  1.0000
  N   N12       1.0  0.42280387925325863  0.7953687546871465  0.5361794794147912  1.0000
  N   N13       1.0  0.5335694365757178  0.8925279856268632  0.3798363665454758  1.0000
  N   N14       1.0  0.08537792140570843  0.4637382825084232  0.1452119886284535  1.0000
  N   N15       1.0  0.4804489717422554  0.10788883966286991  0.6245001309013105  1.0000
  N   N16       1.0  0.9144338490046026  0.5360553766973697  0.8544980603060068  1.0000
