data_image0
_chemical_formula_structural       Zn6H80C132N4O30
_chemical_formula_sum              "Zn6 H80 C132 N4 O30"
_cell_length_a       9.173466607903288
_cell_length_b       18.005074716450007
_cell_length_c       23.692839270329983
_cell_angle_alpha    81.54065784325009
_cell_angle_beta     78.83772061747837
_cell_angle_gamma    75.2526864397998

_space_group_name_H-M_alt    "P 1"
_space_group_IT_number       1

loop_
  _space_group_symop_operation_xyz
  'x, y, z'

loop_
  _atom_site_type_symbol
  _atom_site_label
  _atom_site_symmetry_multiplicity
  _atom_site_fract_x
  _atom_site_fract_y
  _atom_site_fract_z
  _atom_site_occupancy
  Zn  Zn1       1.0  0.5000018805240598  0.9999998656340101  0.5000013721018917  1.0000
  Zn  Zn2       1.0  5.560520931364625e-07  0.5000001123580236  1.1459865234857637e-06  1.0000
  Zn  Zn3       1.0  0.8160889671365724  0.8552464861626634  0.49082819785493104  1.0000
  Zn  Zn4       1.0  0.16229849088477266  0.6447745749683735  0.009218691239851763  1.0000
  Zn  Zn5       1.0  0.18391227108967464  0.14475402506760562  0.5091728316627382  1.0000
  Zn  Zn6       1.0  0.8377018943238925  0.35522535460712146  0.9907816265889619  1.0000
  H   H1        1.0  0.6817739791372973  0.1241701694329436  0.46569110804085767  1.0000
  H   H2        1.0  0.2713133869452235  0.37582319202260817  0.034223199245346295  1.0000
  H   H3        1.0  0.31822142649631485  0.8758309142377388  0.5343090355716029  1.0000
  H   H4        1.0  0.728684177366233  0.6241755723178815  0.9657753586845814  1.0000
  H   H5        1.0  0.7098421156382672  0.25320318694717514  0.41325592896902913  1.0000
  H   H6        1.0  0.3757867632263654  0.24677898043464105  0.08671180488562409  1.0000
  H   H7        1.0  0.29015329355728176  0.7467978990618537  0.5867446361763555  1.0000
  H   H8        1.0  0.6242119195090579  0.7532197881696522  0.9132875110983887  1.0000
  H   H9        1.0  0.13597038708841322  0.14403699424871524  0.3148534974306329  1.0000
  H   H10       1.0  0.5944574992763236  0.3559696178397617  0.18508998530973025  1.0000
  H   H11       1.0  0.8640247495768701  0.8559646644745983  0.6851461782836877  1.0000
  H   H12       1.0  0.4055386564638113  0.6440274268453196  0.8149109894039694  1.0000
  H   H13       1.0  0.10297880106670482  0.015006156364194103  0.3648124590204275  1.0000
  H   H14       1.0  0.4825946324060909  0.4850150902751336  0.1350860069106687  1.0000
  H   H15       1.0  0.8970163320366429  0.9849955000207657  0.6351867951609761  1.0000
  H   H16       1.0  0.5174004227197884  0.5149819618378759  0.8649163174135381  1.0000
  H   H17       1.0  0.8562995928589386  0.24603086008388442  0.15888505622944385  1.0000
  H   H18       1.0  0.2607318988651811  0.2540988110515699  0.3410282281191213  1.0000
  H   H19       1.0  0.14369577734788674  0.753967923789169  0.8411170439873458  1.0000
  H   H20       1.0  0.7392684366689225  0.7458988093729106  0.6589723601823394  1.0000
  H   H21       1.0  0.8542035784721875  0.20253955456340123  0.26351918589079293  1.0000
  H   H22       1.0  0.3195039880828218  0.29736396958671224  0.23632490500815348  1.0000
  H   H23       1.0  0.14579104519005145  0.7974632706335998  0.7364825047576743  1.0000
  H   H24       1.0  0.68049497074481  0.7026342286416353  0.7636757219398332  1.0000
  H   H25       1.0  0.038869469522111934  0.39384107816571395  0.2810720883308093  1.0000
  H   H26       1.0  0.7137458413468849  0.10652116096360943  0.21893435185256038  1.0000
  H   H27       1.0  0.9611336548517218  0.6061576864486471  0.7189264660732703  1.0000
  H   H28       1.0  0.28625169109972143  0.8934753059175978  0.7810665842146063  1.0000
  H   H29       1.0  0.038982854887848285  0.4373462638209136  0.17521003028784313  1.0000
  H   H30       1.0  0.6516776896244707  0.06313419904545732  0.3248296353026774  1.0000
  H   H31       1.0  0.9610183158541329  0.5626519265666092  0.8247891620378878  1.0000
  H   H32       1.0  0.34831903947910786  0.9368639953319902  0.6751703186029868  1.0000
  H   H33       1.0  0.313242751082427  0.9141899032935545  0.38666506547151863  1.0000
  H   H34       1.0  0.6146330032956583  0.5858160792342916  0.11312269963444516  1.0000
  H   H35       1.0  0.6867666557408967  0.08581693874008071  0.6133316531807224  1.0000
  H   H36       1.0  0.38537301302158516  0.4141861737961677  0.8868798733933828  1.0000
  H   H37       1.0  0.22817621862214554  0.8700295372011341  0.3049199782882183  1.0000
  H   H38       1.0  0.4035404336652064  0.6296023000676172  0.19490609651133173  1.0000
  H   H39       1.0  0.7718281767612754  0.12997616146841307  0.6950789442849227  1.0000
  H   H40       1.0  0.5964663753092337  0.37039821845155535  0.8050961940792404  1.0000
  H   H41       1.0  0.6220277044507085  0.6785514210308818  0.2967195375022982  1.0000
  H   H42       1.0  0.5966705714388355  0.8214006061023653  0.20338356853002176  1.0000
  H   H43       1.0  0.3779693114309026  0.32144620998566614  0.7032829919660981  1.0000
  H   H44       1.0  0.4033323656987094  0.17860106376075896  0.7966180412995313  1.0000
  H   H45       1.0  0.7076004409719869  0.7248722906090708  0.37669784469431983  1.0000
  H   H46       1.0  0.8085744297042228  0.775516735947747  0.12333440299305916  1.0000
  H   H47       1.0  0.2923994205477952  0.2751287984250653  0.6233032234698894  1.0000
  H   H48       1.0  0.19143046818905424  0.22448551281890877  0.8766674119806834  1.0000
  H   H49       1.0  0.10759558773519014  0.8029812795102274  0.41247182649956204  1.0000
  H   H50       1.0  0.32423042537173064  0.6967675620533883  0.08743856410196568  1.0000
  H   H51       1.0  0.8924048542719163  0.19702096389296744  0.5875290639224388  1.0000
  H   H52       1.0  0.6757785173469699  0.30323062076717383  0.9125591900756475  1.0000
  H   H53       1.0  0.33263146090930457  0.6897743338140786  0.40790281405238454  1.0000
  H   H54       1.0  0.430931749882589  0.8102110917541625  0.09203333699828421  1.0000
  H   H55       1.0  0.6673695047866772  0.31022675013046813  0.5920973260342279  1.0000
  H   H56       1.0  0.5690741704548473  0.18978882172677916  0.9079640265742409  1.0000
  H   H57       1.0  0.13828842847375702  0.6052037900794434  0.5787358553933046  1.0000
  H   H58       1.0  0.3217921407099808  0.8948850242420862  0.9213620943157321  1.0000
  H   H59       1.0  0.8617116202823072  0.39479439370592934  0.4212621573454242  1.0000
  H   H60       1.0  0.6782107146955242  0.10511431542490612  0.07863599219020048  1.0000
  H   H61       1.0  0.920122055838128  0.7214341341469109  0.5752719168530261  1.0000
  H   H62       1.0  0.21676339767719094  0.7784737948870916  0.9248296752675031  1.0000
  H   H63       1.0  0.0798780107276471  0.2785640613301936  0.4247282035502876  1.0000
  H   H64       1.0  0.7832386118346122  0.22152496780181968  0.07516854261540826  1.0000
  H   H65       1.0  0.12852328074132652  0.5400856118606826  0.4664480658458387  1.0000
  H   H66       1.0  0.1348590287477406  0.9600701984606703  0.0335559175726559  1.0000
  H   H67       1.0  0.8714740714002499  0.4599160413601454  0.5335505967791362  1.0000
  H   H68       1.0  0.8651437876690266  0.039926839070346914  0.9664437040046819  1.0000
  H   H69       1.0  0.4607887864495979  0.6984002430503015  0.508373866471416  1.0000
  H   H70       1.0  0.666983978407245  0.8016257836842372  0.9914437574153252  1.0000
  H   H71       1.0  0.5392040779409655  0.3015991073477908  0.49162624973906316  1.0000
  H   H72       1.0  0.3330169269283587  0.19837298409426302  0.008555388545182998  1.0000
  H   H73       1.0  0.7016677379104196  0.7061165473513923  0.5348063571743252  1.0000
  H   H74       1.0  0.9420555938262111  0.7937604808288443  0.9650039723323399  1.0000
  H   H75       1.0  0.29832680401977996  0.2938839476494763  0.4651918101505216  1.0000
  H   H76       1.0  0.05794334719171698  0.20623770570777825  0.034994546951061495  1.0000
  H   H77       1.0  0.9073400514181599  0.5855201468577038  0.5481258698625452  1.0000
  H   H78       1.0  0.040848078307177856  0.9142481509998251  0.951821729178981  1.0000
  H   H79       1.0  0.09265369429289903  0.4144820803160983  0.45187215836663336  1.0000
  H   H80       1.0  0.9591522429791511  0.08574946007126984  0.04817717299080467  1.0000
  C   C1        1.0  0.8733859703042413  0.9838320130093622  0.4439825600515376  1.0000
  C   C2        1.0  0.30104105890614347  0.5161361947667304  0.05602214147528879  1.0000
  C   C3        1.0  0.1266141494980388  0.0161684939571032  0.5560177114120534  1.0000
  C   C4        1.0  0.6989551571943834  0.48386316608440455  0.9439798273645149  1.0000
  C   C5        1.0  0.8895387736315782  0.06189533387789942  0.41737667840231296  1.0000
  C   C6        1.0  0.36852205805353566  0.4380710120268106  0.0825762796794294  1.0000
  C   C7        1.0  0.11045885816415073  0.9381057513053366  0.58262371671956  1.0000
  C   C8        1.0  0.6314752729090147  0.5619283507497741  0.9174260256815427  1.0000
  C   C9        1.0  0.7795326552205921  0.1288589146961172  0.4321391602656987  1.0000
  C   C10       1.0  0.3401496480862035  0.3711289064057156  0.0677948502621035  1.0000
  C   C11       1.0  0.22046610212298373  0.871142179427608  0.5678628359760934  1.0000
  C   C12       1.0  0.6598529419129235  0.6288710106522545  0.9322031898786064  1.0000
  C   C13       1.0  0.7954539183388931  0.20046414599912055  0.4035498109597739  1.0000
  C   C14       1.0  0.39896621958396833  0.2995300191243119  0.09640027106419068  1.0000
  C   C15       1.0  0.20454149441859917  0.7995369423482543  0.5964511757185278  1.0000
  C   C16       1.0  0.6010302298654651  0.7004687432907276  0.9035979503445757  1.0000
  C   C17       1.0  0.923264293010547  0.20487756559587925  0.3615241322744822  1.0000
  C   C18       1.0  0.48916589917354963  0.2951523423194403  0.1384215652807015  1.0000
  C   C19       1.0  0.07673143838983515  0.7951252568498718  0.6384770518293194  1.0000
  C   C20       1.0  0.5108296725173176  0.7048435456582356  0.8615791656422827  1.0000
  C   C21       1.0  0.0360229193578689  0.13895909888803004  0.3472115611819717  1.0000
  C   C22       1.0  0.52177034573954  0.36106844417158623  0.1527324963886727  1.0000
  C   C23       1.0  0.9639708512867811  0.861043144654197  0.6527894177776403  1.0000
  C   C24       1.0  0.47822438718151256  0.6389268715047012  0.8472692089771241  1.0000
  C   C25       1.0  0.017797609323721993  0.0676641217606146  0.3751027696648847  1.0000
  C   C26       1.0  0.4602467977442047  0.43236041645994316  0.12485003472343684  1.0000
  C   C27       1.0  0.9821992333767471  0.9323387002722469  0.6248983294271608  1.0000
  C   C28       1.0  0.5397496269642517  0.5676360531725068  0.8751514078884026  1.0000
  C   C29       1.0  0.9389412143072917  0.3727030933532944  0.09834999861517696  1.0000
  C   C30       1.0  0.41002457425606287  0.12764095035552714  0.4016585366089274  1.0000
  C   C31       1.0  0.06106160923335568  0.6272939488544156  0.9016504660279947  1.0000
  C   C32       1.0  0.5899766214195097  0.8723572564004203  0.59834360644723  1.0000
  C   C33       1.0  0.9472465808152604  0.3445675313764269  0.16045380439494036  1.0000
  C   C34       1.0  0.4521307865772997  0.15573625538389282  0.339524014375172  1.0000
  C   C35       1.0  0.05275042438051971  0.6554300926250818  0.8395474604747049  1.0000
  C   C36       1.0  0.5478675917630086  0.8442607884754025  0.6604767903150162  1.0000
  C   C37       1.0  0.8975877230357125  0.27794165624217027  0.18559845767582317  1.0000
  C   C38       1.0  0.3606762000750691  0.2222018944350098  0.31432777699749437  1.0000
  C   C39       1.0  0.10240901675369665  0.7220565451503165  0.8144027608285993  1.0000
  C   C40       1.0  0.6393216510144197  0.7777963065445805  0.6856733564951722  1.0000
  C   C41       1.0  0.896429644602435  0.2532994694080272  0.24408858160149546  1.0000
  C   C42       1.0  0.3932460826751478  0.24673468182495387  0.2558113241761575  1.0000
  C   C43       1.0  0.10356937102363872  0.7467010426480273  0.7559126179396854  1.0000
  C   C44       1.0  0.6067481158711983  0.7532617862949423  0.7441898669262769  1.0000
  C   C45       1.0  0.9468221658746573  0.2959203209666868  0.27804125497063126  1.0000
  C   C46       1.0  0.5203636114566805  0.20419728401017784  0.2218847993289117  1.0000
  C   C47       1.0  0.05317684618947267  0.7040801887510216  0.7219595230376327  1.0000
  C   C48       1.0  0.4796347668836275  0.7957997598491177  0.7781160053612834  1.0000
  C   C49       1.0  0.9995823016642263  0.3619386255906037  0.2536195506367561  1.0000
  C   C50       1.0  0.6149155046099041  0.1383366417209615  0.24635582288205873  1.0000
  C   C51       1.0  0.0004183489508163456  0.6380607265939137  0.7463808135572803  1.0000
  C   C52       1.0  0.38508174818255  0.8616603931978448  0.75364338068821  1.0000
  C   C53       1.0  0.9993670615166792  0.38594749421366714  0.19510634937795857  1.0000
  C   C54       1.0  0.580341878331147  0.11440751136142784  0.3048913527630006  1.0000
  C   C55       1.0  0.0006341199111261131  0.6140507031888945  0.8048941075465237  1.0000
  C   C56       1.0  0.41965596563445473  0.8855906849414695  0.695108937663825  1.0000
  C   C57       1.0  0.5766351925410689  0.8539786305391461  0.4294952015272244  1.0000
  C   C58       1.0  0.8601851158785578  0.6464094011659186  0.0703836936847466  1.0000
  C   C59       1.0  0.42336774103452507  0.14602303698563193  0.5705059867694117  1.0000
  C   C60       1.0  0.1398158569413113  0.35359168745532804  0.9296172894677068  1.0000
  C   C61       1.0  0.5172780172964053  0.8233259062257617  0.3853397263755126  1.0000
  C   C62       1.0  0.7259999894233006  0.6768562756517511  0.11457372586436779  1.0000
  C   C63       1.0  0.482726013331508  0.17667575153273424  0.6146596907776994  1.0000
  C   C64       1.0  0.2740012949155641  0.32314654239118573  0.8854266116477376  1.0000
  C   C65       1.0  0.38030881402807626  0.8630459525248855  0.3662300846620567  1.0000
  C   C66       1.0  0.6098560587032653  0.6369469697858252  0.13363064662493673  1.0000
  C   C67       1.0  0.6196994957429284  0.1369608992750386  0.6337684051336153  1.0000
  C   C68       1.0  0.3901504813028538  0.363054123785986  0.8663711760675028  1.0000
  C   C69       1.0  0.33237749795390653  0.8383580172067299  0.3212097648420311  1.0000
  C   C70       1.0  0.4921521492638874  0.661438018444102  0.178682059607695  1.0000
  C   C71       1.0  0.6676226893326458  0.16164481060248193  0.6787923438135053  1.0000
  C   C72       1.0  0.5078524228626192  0.338562491547478  0.8213187148747136  1.0000
  C   C73       1.0  0.4221226535119482  0.7729140097805783  0.2957630360843382  1.0000
  C   C74       1.0  0.4907920374533959  0.7268204045695016  0.20425914504970416  1.0000
  C   C75       1.0  0.5778756191314899  0.22709054593777014  0.7042381754214445  1.0000
  C   C76       1.0  0.5092122657047895  0.2731806804747094  0.7957411615345649  1.0000
  C   C77       1.0  0.5552414047032102  0.7302427807095243  0.3164882678375491  1.0000
  C   C78       1.0  0.6015405040187075  0.7697550972096325  0.1835137754229449  1.0000
  C   C79       1.0  0.4447553883226901  0.2697577321723231  0.6835131017271366  1.0000
  C   C80       1.0  0.39845883025025575  0.23024714894481246  0.8164876215437287  1.0000
  C   C81       1.0  0.6028025340513776  0.7560533817690074  0.3607273079527006  1.0000
  C   C82       1.0  0.7192206895494805  0.7441540798577578  0.1392453131056044  1.0000
  C   C83       1.0  0.3971992775383057  0.2439482791536279  0.6392727007569334  1.0000
  C   C84       1.0  0.2807792252067997  0.25584932066573896  0.8607559061188679  1.0000
  C   C85       1.0  0.11848021943016805  0.7569407693508058  0.4477304623562616  1.0000
  C   C86       1.0  0.3240399174930388  0.7428828424501788  0.052227722843390695  1.0000
  C   C87       1.0  0.8815187890720325  0.24305973802855624  0.5522698941190852  1.0000
  C   C88       1.0  0.675970140087685  0.25711534229583327  0.9477703678553835  1.0000
  C   C89       1.0  0.2433469494951196  0.6939663993565477  0.44582214165964007  1.0000
  C   C90       1.0  0.3836764316741963  0.8059848292921715  0.05414267079220279  1.0000
  C   C91       1.0  0.7566528977768955  0.3060346803242028  0.554177240372887  1.0000
  C   C92       1.0  0.6163292232568621  0.19401566157974062  0.9458546464151067  1.0000
  C   C93       1.0  0.2527412021930003  0.6369588159677947  0.4929389804064357  1.0000
  C   C94       1.0  0.3826327223157689  0.8630879120136189  0.00708389166490518  1.0000
  C   C95       1.0  0.7472577423868643  0.36303937290717414  0.5070599604098831  1.0000
  C   C96       1.0  0.6173715487849378  0.13691315198547474  0.9929126211230965  1.0000
  C   C97       1.0  0.1346885918725889  0.6470035564060909  0.5404691983164724  1.0000
  C   C98       1.0  0.32205284064866635  0.8530253505307501  0.9595869323564443  1.0000
  C   C99       1.0  0.8653103562692196  0.3529946348072175  0.45953016403276337  1.0000
  C   C100      1.0  0.6779513843394227  0.14697340665567546  0.040410272437121385  1.0000
  C   C101      1.0  0.01370567322061331  0.7114240267815078  0.5391503416111547  1.0000
  C   C102      1.0  0.2643813534580274  0.788519782798659  0.9609066410021893  1.0000
  C   C103      1.0  0.9862932749211951  0.2885741644318003  0.460849020738081  1.0000
  C   C104      1.0  0.735620925022097  0.21147840483762087  0.039092044778861586  1.0000
  C   C105      1.0  0.38130305332551734  0.5676041129385397  0.4945265600532806  1.0000
  C   C106      1.0  0.4432851055810188  0.9324813239267942  0.0054674937038825915  1.0000
  C   C107      1.0  0.6186953568796412  0.43239522838003125  0.5054718664996755  1.0000
  C   C108      1.0  0.5567188611245727  0.06751801532730894  0.9945305077902943  1.0000
  C   C109      1.0  0.35783488180631906  0.49541266745615803  0.48717447312757384  1.0000
  C   C110      1.0  0.34038262787606044  0.0046622301478365  0.012889066628353886  1.0000
  C   C111      1.0  0.6421624206607035  0.5045866766136556  0.5128244599700479  1.0000
  C   C112      1.0  0.6596193923215665  0.995336539556114  0.9871104158533086  1.0000
  C   C113      1.0  0.21897525668783385  0.4883495967445913  0.47214594695556394  1.0000
  C   C114      1.0  0.17942337897845562  0.011767252788317304  0.027919108360464392  1.0000
  C   C115      1.0  0.7810215114044823  0.5116508997688315  0.5278524718786952  1.0000
  C   C116      1.0  0.8205791827177574  0.9882303691487171  0.9720817314504085  1.0000
  C   C117      1.0  0.5219494304102668  0.5736294436214424  0.5067837046664465  1.0000
  C   C118      1.0  0.6022103437874052  0.9263644927957911  0.9931149454894879  1.0000
  C   C119      1.0  0.4780478898664597  0.4263699121401033  0.49321733609576757  1.0000
  C   C120      1.0  0.39779500318659444  0.07363427099277693  0.006883438891080089  1.0000
  C   C121      1.0  0.5491801628637916  0.6458911960260139  0.514486303856934  1.0000
  C   C122      1.0  0.7091831512698477  0.8540754308173961  0.9853564604771917  1.0000
  C   C123      1.0  0.4508160211792572  0.35410814378000327  0.4855118711866026  1.0000
  C   C124      1.0  0.29082077288506275  0.14592160396238543  0.014642654555466098  1.0000
  C   C125      1.0  0.6845336737952721  0.6502369262602415  0.5288160002296178  1.0000
  C   C126      1.0  0.863202899084733  0.8496634006404168  0.9710049473857508  1.0000
  C   C127      1.0  0.3154606134143735  0.34976415314663717  0.4711833853287644  1.0000
  C   C128      1.0  0.13679884858262167  0.15033594177781856  0.0289936456648547  1.0000
  C   C129      1.0  0.8008208690597697  0.5820747021474093  0.5360731731847536  1.0000
  C   C130      1.0  0.9188069603355657  0.9177762106404261  0.963826379847539  1.0000
  C   C131      1.0  0.19917562650228152  0.41792636708029823  0.46392435621844186  1.0000
  C   C132      1.0  0.0811936760317096  0.0822231321907054  0.0361722982148223  1.0000
  N   N1        1.0  0.005014815986136373  0.76539660906807  0.49349128937235776  1.0000
  N   N2        1.0  0.26452458360368764  0.7344424063606713  0.006515704646609795  1.0000
  N   N3        1.0  0.9949858310669623  0.23460274077810092  0.5065086532887619  1.0000
  N   N4        1.0  0.7354805015258704  0.26555693715722845  0.9934830549016523  1.0000
  O   O1        1.0  0.7552479422396632  0.9753934401219267  0.4827913096530309  1.0000
  O   O2        1.0  0.2133327343324324  0.5246446357869063  0.017187936022232  1.0000
  O   O3        1.0  0.24475055325947892  0.024608233731122208  0.5172110617564626  1.0000
  O   O4        1.0  0.7866640586934749  0.4753558770949413  0.9828134335424605  1.0000
  O   O5        1.0  0.9745272267247814  0.9249458749561442  0.42899068412290114  1.0000
  O   O6        1.0  0.3284568631908655  0.5749835725482131  0.07103034145533368  1.0000
  O   O7        1.0  0.02547262767112099  0.0750552094013059  0.5710095409754672  1.0000
  O   O8        1.0  0.671542117008414  0.42501463971021297  0.9289728146901692  1.0000
  O   O9        1.0  0.9414816101730634  0.2779402957527284  0.3368807000971188  1.0000
  O   O10       1.0  0.5558798446456378  0.22212577541579043  0.16304871003035254  1.0000
  O   O11       1.0  0.058513537178050946  0.7220613699856174  0.66312024021596  1.0000
  O   O12       1.0  0.44411879910105506  0.7778706910525203  0.8369521410250654  1.0000
  O   O13       1.0  0.8908351878603397  0.33053326891737106  0.07008055386133087  1.0000
  O   O14       1.0  0.29154191243332406  0.16982056911958673  0.4299461395108678  1.0000
  O   O15       1.0  0.10916460973711384  0.669465501612365  0.92991909864385  1.0000
  O   O16       1.0  0.7084609607818919  0.8301787822391378  0.570054054659664  1.0000
  O   O17       1.0  0.9777395249098574  0.4353959904689334  0.0787824783661577  1.0000
  O   O18       1.0  0.4918855186401032  0.06496027700895012  0.4212403812934085  1.0000
  O   O19       1.0  0.022260541655917624  0.564602205008171  0.9212176420371563  1.0000
  O   O20       1.0  0.5081165371769385  0.9350385160784572  0.5787633165174455  1.0000
  O   O21       1.0  0.48837847025231457  0.9080011282393344  0.4568071354086455  1.0000
  O   O22       1.0  0.8533699375638122  0.5924092803057875  0.04301161653759779  1.0000
  O   O23       1.0  0.5116280626299244  0.09199996065578381  0.5431938442179528  1.0000
  O   O24       1.0  0.14663188114975872  0.40759238529354047  0.9569892352378772  1.0000
  O   O25       1.0  0.7157692104399017  0.8223209065353035  0.435442623275513  1.0000
  O   O26       1.0  0.9735580838291044  0.6781250872862972  0.06446444712042167  1.0000
  O   O27       1.0  0.2842340204069345  0.17768248105777934  0.5645562332491068  1.0000
  O   O28       1.0  0.026438288226359005  0.3218834821087384  0.9355313814337761  1.0000
  O   O29       1.0  0.3754664359960812  0.7496920168250228  0.2500761207981411  1.0000
  O   O30       1.0  0.6245340024490816  0.25031022423982563  0.7499243480909425  1.0000
