data_image0
_chemical_formula_structural       Zn6H36C56N4O28
_chemical_formula_sum              "Zn6 H36 C56 N4 O28"
_cell_length_a       10.427423910807681
_cell_length_b       10.699531486459176
_cell_length_c       14.8264
_cell_angle_alpha    87.81036720049667
_cell_angle_beta     85.50288951335791
_cell_angle_gamma    60.837834923420964

_space_group_name_H-M_alt    "P 1"
_space_group_IT_number       1

loop_
  _space_group_symop_operation_xyz
  'x, y, z'

loop_
  _atom_site_type_symbol
  _atom_site_label
  _atom_site_symmetry_multiplicity
  _atom_site_fract_x
  _atom_site_fract_y
  _atom_site_fract_z
  _atom_site_occupancy
  Zn  Zn1       1.0  0.9892438199572382  0.616433025879104  0.6706500770675987  1.0000
  Zn  Zn2       1.0  0.6056767660074269  0.3835667467922691  0.1706500923602761  1.0000
  Zn  Zn3       1.0  0.010756217999706014  0.3835667467922691  0.3293499945544838  1.0000
  Zn  Zn4       1.0  0.3943232719495171  0.616433025879104  0.8293499792618063  1.0000
  Zn  Zn5       1.0  0.02278206430099059  0.9544377225149888  0.7500001390096356  1.0000
  Zn  Zn6       1.0  0.9772174385143302  0.0455631204418054  0.2500006070852336  1.0000
  H   H1        1.0  0.8156590640829151  0.5912984431712687  0.9086220854836355  1.0000
  H   H2        1.0  0.40695801356711314  0.4087002592146973  0.4086221115257445  1.0000
  H   H3        1.0  0.1843409738740291  0.4087013295001114  0.0913779861384398  1.0000
  H   H4        1.0  0.5930425595314474  0.5912984431712687  0.5913779600961035  1.0000
  H   H5        1.0  0.7957988260041731  0.6474745137974978  0.19633138519427717  1.0000
  H   H6        1.0  0.443274158958168  0.3525252588738823  0.6963313341630907  1.0000
  H   H7        1.0  0.20420024998150407  0.3525252588738823  0.803668739475718  1.0000
  H   H8        1.0  0.5567253438571526  0.6474755840829118  0.3036687374592191  1.0000
  H   H9        1.0  0.969040268397002  0.8604495384291582  0.013506417506398787  1.0000
  H   H10       1.0  0.8294900855260464  0.1395523748130501  0.5135068968142845  1.0000
  H   H11       1.0  0.03095827244705162  0.13955130452763603  0.986493032691264  1.0000
  H   H12       1.0  0.1705103792605414  0.8604484681437442  0.4864931217601054  1.0000
  H   H13       1.0  0.7039105901674885  0.8231169128359  0.726772754616178  1.0000
  H   H14       1.0  0.5270285009079815  0.176881789550059  0.22677397741042427  1.0000
  H   H15       1.0  0.2960898746190992  0.17688393012089426  0.2732265894856525  1.0000
  H   H16       1.0  0.47297153704896294  0.8231179831213211  0.7732267686842176  1.0000
  H   H17       1.0  0.4680161019286331  0.9873832481883227  0.6588079229834135  1.0000
  H   H18       1.0  0.4554005498526479  0.0126143839122221  0.1588090755233367  1.0000
  H   H19       1.0  0.5319844711699346  0.0126154541976362  0.3411914741658748  1.0000
  H   H20       1.0  0.5445990612746526  0.9873843184737439  0.8411923980915574  1.0000
  H   H21       1.0  0.7194505421331101  0.899071857948627  0.39872375759031786  1.0000
  H   H22       1.0  0.6185221735839619  0.1009289850081672  0.8987249479002981  1.0000
  H   H23       1.0  0.28054896068221064  0.1009289850081672  0.6012756395594323  1.0000
  H   H24       1.0  0.3814778643729825  0.8990707876632058  0.1012757981943437  1.0000
  H   H25       1.0  0.9397683344814496  0.7422290222411334  0.47904161041022764  1.0000
  H   H26       1.0  0.681994989388258  0.2577728910010819  0.9790422994228931  1.0000
  H   H27       1.0  0.0602321303051383  0.2577718207156607  0.5209584081641623  1.0000
  H   H28       1.0  0.3180025894845284  0.7422279519557122  0.020958552767808697  1.0000
  H   H29       1.0  0.9801029467661023  0.3751821308438323  0.6894574907580803  1.0000
  H   H30       1.0  0.35528591412947463  0.6248187121129618  0.18945755618223353  1.0000
  H   H31       1.0  0.019896556049211308  0.6248187121129618  0.3105425808642295  1.0000
  H   H32       1.0  0.6447141238274696  0.3751810605584112  0.8105425154398418  1.0000
  H   H33       1.0  0.8799961945566468  0.4684842619780412  0.606741244705006  1.0000
  H   H34       1.0  0.3484812120481563  0.5315144404079177  0.1067419977453454  1.0000
  H   H35       1.0  0.12000384340029056  0.5315155106933389  0.3932588269170765  1.0000
  H   H36       1.0  0.6515178639375208  0.4684853322634552  0.8932588013972165  1.0000
  C   C1        1.0  0.8985461949539724  0.7270909053181356  0.9517701028632644  1.0000
  C   C2        1.0  0.6256362607672088  0.2729099376386586  0.4517700708295536  1.0000
  C   C3        1.0  0.10145384300297164  0.27290886735324454  0.048229968758811  1.0000
  C   C4        1.0  0.37436377718972846  0.7270898350327144  0.5482300007925218  1.0000
  C   C5        1.0  0.8341818764881312  0.6393392743509665  0.9661476320673045  1.0000
  C   C6        1.0  0.4735219865026962  0.36066049832041364  0.4661475845154256  1.0000
  C   C7        1.0  0.16581719949753895  0.36066049832041364  0.033853167075250185  1.0000
  C   C8        1.0  0.5264784782838845  0.6393403446363806  0.5338524340589643  1.0000
  C   C9        1.0  0.7963630810944408  0.6116938020573458  0.053957357212226505  1.0000
  C   C10       1.0  0.40805681293915796  0.3883059706140344  0.553957374531798  1.0000
  C   C11       1.0  0.20363695686250347  0.3883059706140344  0.9460433888824153  1.0000
  C   C12       1.0  0.5919432250177862  0.6116938020573458  0.44604269709028427  1.0000
  C   C13       1.0  0.8236902872466985  0.6714371339748837  0.127884563191941  1.0000
  C   C14       1.0  0.4951281917558673  0.3285626386964964  0.627885176384879  1.0000
  C   C15       1.0  0.1763087887389716  0.3285626386964964  0.872115561478054  1.0000
  C   C16       1.0  0.5048717378890969  0.6714392745457191  0.3721148421897382  1.0000
  C   C17       1.0  0.8843564408390988  0.7624370811794137  0.1138291435400447  1.0000
  C   C18       1.0  0.6467945347357257  0.23756376177738053  0.6138296647660724  1.0000
  C   C19       1.0  0.1156415648633313  0.23756483206279463  0.8861703066578455  1.0000
  C   C20       1.0  0.353205930050862  0.7624370811794137  0.38617035380831766  1.0000
  C   C21       1.0  0.9215112722715731  0.7900675694772162  0.02529901315009651  1.0000
  C   C22       1.0  0.7115792632597361  0.2099343437649921  0.5252995225592301  1.0000
  C   C23       1.0  0.0784872685724807  0.20993327347957802  0.974701111520126  1.0000
  C   C24       1.0  0.28842066638522806  0.7900675694772162  0.4747004960153873  1.0000
  C   C25       1.0  0.9422290748765647  0.752789528440168  0.857432250786772  1.0000
  C   C26       1.0  0.6950201707512774  0.24721024423120502  0.3574327761386726  1.0000
  C   C27       1.0  0.05777053625073588  0.24720917394579092  0.14256854835555538  1.0000
  C   C28       1.0  0.3049808291769267  0.752789528440168  0.6425679169080496  1.0000
  C   C29       1.0  0.7286912083988427  0.5170088621657385  0.06901398443343958  1.0000
  C   C30       1.0  0.2457011544471115  0.4829909105056345  0.5690146636728883  1.0000
  C   C31       1.0  0.27130936469972516  0.4829898402202204  0.9309860871884152  1.0000
  C   C32       1.0  0.7542993103394765  0.5170099324511597  0.4309853549015017  1.0000
  C   C33       1.0  0.906364156361775  0.8337352144474011  0.19227839519842146  1.0000
  C   C34       1.0  0.7400997037147192  0.1662666987948072  0.6922788859315929  1.0000
  C   C35       1.0  0.09363534645353869  0.1662656285093931  0.8077216764238884  1.0000
  C   C36       1.0  0.2599002259302381  0.8337352144474011  0.307721807115584  1.0000
  C   C37       1.0  0.6993397284480165  0.8452568369499505  0.654475798586766  1.0000
  C   C38       1.0  0.5445965564074838  0.1547418654360087  0.1544757160149146  1.0000
  C   C39       1.0  0.3006612714801875  0.1547429357214298  0.34552421998739646  1.0000
  C   C40       1.0  0.455401557606926  0.8452579072353643  0.8455244617030004  1.0000
  C   C41       1.0  0.5692658157609075  0.9354187506738043  0.6156545588600792  1.0000
  C   C42       1.0  0.5046868335821061  0.0645788814267405  0.1156556805764737  1.0000
  C   C43       1.0  0.4307342221960295  0.0645810219975687  0.38434483828943655  1.0000
  C   C44       1.0  0.4953137395164545  0.9354198209592255  0.884345065517941  1.0000
  C   C45       1.0  0.5695212368517347  0.9556846050245512  0.5216395954666879  1.0000
  C   C46       1.0  0.5252056088183679  0.04431409736140782  0.021640814611764404  1.0000
  C   C47       1.0  0.4304797630764696  0.044315167646829  0.478359748634908  1.0000
  C   C48       1.0  0.4747940023089327  0.9556846050245512  0.9783599845305628  1.0000
  C   C49       1.0  0.7061448770504412  0.8881624387039865  0.4716907945137692  1.0000
  C   C50       1.0  0.5943066845631649  0.1118373339673866  0.971692042537228  1.0000
  C   C51       1.0  0.293855160906503  0.1118373339673866  0.5283086026357465  1.0000
  C   C52       1.0  0.4056923914225122  0.8881624387039865  0.0283094310778935  1.0000
  C   C53       1.0  0.8323487914006338  0.7994261451541576  0.5154931037603632  1.0000
  C   C54       1.0  0.6317739502754804  0.20057469780263662  0.015494389735152887  1.0000
  C   C55       1.0  0.16765124655630356  0.2005736275172154  0.4845062933891526  1.0000
  C   C56       1.0  0.3682245905685733  0.7994261451541576  0.9845064094076361  1.0000
  N   N1        1.0  0.8285008688870477  0.776061814524283  0.6051229085283083  1.0000
  N   N2        1.0  0.6045613177106047  0.223937958147097  0.1051242575433378  1.0000
  N   N3        1.0  0.1715001310411637  0.223937958147097  0.39487643557328767  1.0000
  N   N4        1.0  0.39543679630380524  0.776061814524283  0.8948765946471369  1.0000
  O   O1        1.0  0.9188389426399581  0.6892873541418609  0.7949567555379957  1.0000
  O   O2        1.0  0.6081281013797193  0.3107102779586839  0.29495668662366376  1.0000
  O   O3        1.0  0.0811627007418494  0.3107092076732698  0.20504399055595707  1.0000
  O   O4        1.0  0.3918735420020879  0.6892862838564471  0.7050433849977296  1.0000
  O   O5        1.0  0.9965810262137111  0.83630496973106  0.8476807854296735  1.0000
  O   O6        1.0  0.8328868587776839  0.163695873225727  0.3476819495361383  1.0000
  O   O7        1.0  0.003417087800698899  0.1636948029403129  0.1523187178156817  1.0000
  O   O8        1.0  0.16711510312178748  0.836303899445646  0.652318690462671  1.0000
  O   O9        1.0  0.7120935729068946  0.487327707011005  0.1531992099202242  1.0000
  O   O10       1.0  0.19942114353710846  0.5126688548041188  0.653199386524335  1.0000
  O   O11       1.0  0.2879059299084261  0.5126731359457892  0.8468015361746453  1.0000
  O   O12       1.0  0.8005793212494792  0.48733198815266837  0.3467999575774954  1.0000
  O   O13       1.0  0.6916766109249862  0.4707703916264805  0.0046946187725111985  1.0000
  O   O14       1.0  0.1624490339151095  0.5292315216157277  0.5046952116920521  1.0000
  O   O15       1.0  0.3083254592864719  0.5292272404740643  0.9953053998011896  1.0000
  O   O16       1.0  0.8375519660130946  0.4707682510556452  0.4953048068821104  1.0000
  O   O17       1.0  0.9173339730277517  0.945979256872846  0.1701270994113671  1.0000
  O   O18       1.0  0.8633161126551484  0.05402479694019751  0.6701273299483432  1.0000
  O   O19       1.0  0.0826649946459455  0.0540226563693622  0.8298729722111701  1.0000
  O   O20       1.0  0.13668712973326083  0.945978186587432  0.3298724764348363  1.0000
  O   O21       1.0  0.9095300973753523  0.7864328802046999  0.271774333027345  1.0000
  O   O22       1.0  0.6959620176651881  0.2135679627520943  0.7717749500865876  1.0000
  O   O23       1.0  0.09046940543996838  0.2135679627520943  0.7282250641223983  1.0000
  O   O24       1.0  0.3040365231788654  0.7864328802046999  0.22822517458364186  1.0000
  O   O25       1.0  0.9137968555181998  0.4741235958346053  0.6665554389284125  1.0000
  O   O26       1.0  0.38792162225322346  0.5258761768367678  0.16655613650921447  1.0000
  O   O27       1.0  0.08620318243874435  0.5258761768367678  0.3334446326936699  1.0000
  O   O28       1.0  0.6120784157037137  0.4741235958346053  0.8334446095854275  1.0000
