data_image0
_chemical_formula_structural       Zn4H36C76N16Cl12O16
_chemical_formula_sum              "Zn4 H36 C76 N16 Cl12 O16"
_cell_length_a       17.26353142350051
_cell_length_b       22.659428718738763
_cell_length_c       24.14125314874035
_cell_angle_alpha    93.92551334169784
_cell_angle_beta     89.53864466820825
_cell_angle_gamma    94.2765478134299

_space_group_name_H-M_alt    "P 1"
_space_group_IT_number       1

loop_
  _space_group_symop_operation_xyz
  'x, y, z'

loop_
  _atom_site_type_symbol
  _atom_site_label
  _atom_site_symmetry_multiplicity
  _atom_site_fract_x
  _atom_site_fract_y
  _atom_site_fract_z
  _atom_site_occupancy
  Zn  Zn1       1.0  0.014366092672652483  0.9528659426989065  0.4578265079792274  1.0000
  Zn  Zn2       1.0  0.0040890195078234015  0.0368773979945516  0.5497128122196884  1.0000
  Zn  Zn3       1.0  0.9408843018284256  0.5309027393311824  0.05263321210539119  1.0000
  Zn  Zn4       1.0  0.9498222067581992  0.44277426521389185  0.9648108324756706  1.0000
  H   H1        1.0  0.023446980516219205  0.643502544934563  0.08056187035009539  1.0000
  H   H2        1.0  0.03971849687116702  0.7236384977227818  0.15828912998836836  1.0000
  H   H3        1.0  0.8698788444663207  0.6207061086426436  0.2511410375000622  1.0000
  H   H4        1.0  0.09214509951380727  0.8575879430682959  0.26254333075350894  1.0000
  H   H5        1.0  0.9085069071103148  0.763092131212133  0.35056383329192187  1.0000
  H   H6        1.0  0.9262765743456711  0.8431328306825637  0.428200573141936  1.0000
  H   H7        1.0  0.03370496576562939  0.4209572243673065  0.8633141946924283  1.0000
  H   H8        1.0  0.045030352719074095  0.34413004208535375  0.7835290584030902  1.0000
  H   H9        1.0  0.8625360961113699  0.23768649656918228  0.8611548400713218  1.0000
  H   H10       1.0  0.09592999983843947  0.24042768809300702  0.6558475535203101  1.0000
  H   H11       1.0  0.9044540875974716  0.13836962391533805  0.7281659921162813  1.0000
  H   H12       1.0  0.9169664332248428  0.0611672695615439  0.6489173607793646  1.0000
  H   H13       1.0  0.763870717496033  0.0518707634124311  0.5588667366637665  1.0000
  H   H14       1.0  0.6183545859505984  0.05177247185923049  0.5582273930401769  1.0000
  H   H15       1.0  0.6112756393326249  0.9158605242867071  0.42479687818101297  1.0000
  H   H16       1.0  0.4018275103336748  0.03989396895310189  0.6048852536927214  1.0000
  H   H17       1.0  0.3988139649873048  0.9687562589478277  0.4350916366520749  1.0000
  H   H18       1.0  0.2531101598015227  0.967765092430497  0.4361745486218709  1.0000
  H   H19       1.0  0.9404899224077923  0.5535555259003644  0.8299542845055043  1.0000
  H   H20       1.0  0.9522219968328115  0.6277604403516294  0.7570936115836346  1.0000
  H   H21       1.0  0.9993619910031981  0.7664621163071106  0.8855756298336459  1.0000
  H   H22       1.0  0.9647918790454355  0.7119456067650348  0.624769057616966  1.0000
  H   H23       1.0  0.0030975430957980014  0.8519732871948947  0.7531644691394702  1.0000
  H   H24       1.0  0.008903358735615485  0.9261056729846686  0.6802524457325418  1.0000
  H   H25       1.0  0.9883700490130709  0.43050517163058544  0.18615934992388364  1.0000
  H   H26       1.0  0.0237407602999866  0.3617618750605446  0.2578300955579421  1.0000
  H   H27       1.0  0.06451327303923192  0.22933551627713206  0.1267363786720708  1.0000
  H   H28       1.0  0.9781614900815966  0.26854380786871707  0.379577387085959  1.0000
  H   H29       1.0  0.09219653727816987  0.1494982880766145  0.2648834800790922  1.0000
  H   H30       1.0  0.0752504484814835  0.0707095819987984  0.3334045778470127  1.0000
  H   H31       1.0  0.7017315640501282  0.518716789171009  0.0779367938239091  1.0000
  H   H32       1.0  0.5563680560921043  0.5205829062098531  0.07810703868631208  1.0000
  H   H33       1.0  0.5513993152755745  0.43334571560836116  0.9142450905693806  1.0000
  H   H34       1.0  0.34035233957033023  0.5588640915538933  0.09523420999348528  1.0000
  H   H35       1.0  0.3375867013174343  0.44066480650234036  0.9480744437614346  1.0000
  H   H36       1.0  0.19243900198793537  0.4423981617935766  0.9448556140367473  1.0000
  C   C1        1.0  0.8574206022801291  0.9881224643858958  0.4988575906288162  1.0000
  C   C2        1.0  0.9968130693371791  0.910425382789704  0.5721629027816205  1.0000
  C   C3        1.0  0.15817680622932784  0.9997901007185562  0.5150786912659484  1.0000
  C   C4        1.0  0.0137642495835593  0.07553364263959139  0.4329922961239062  1.0000
  C   C5        1.0  0.9517021221110226  0.5689957902672517  0.938218989320866  1.0000
  C   C6        1.0  0.09746152094389518  0.5000696944591567  0.009834779449874992  1.0000
  C   C7        1.0  0.9721200610304378  0.41099666514085  0.07914283735515679  1.0000
  C   C8        1.0  0.795878213328045  0.4776317119460741  0.00208679732480019  1.0000
  C   C9        1.0  0.9903307538542947  0.6410768095170951  0.11908880980694649  1.0000
  C   C10       1.0  0.9992482607621653  0.6849325495733467  0.1618584255284361  1.0000
  C   C11       1.0  0.9544508880212135  0.6777842570972581  0.21013655732605943  1.0000
  C   C12       1.0  0.9042361949238468  0.6271006811737507  0.21376781801675543  1.0000
  C   C13       1.0  0.8995525113551748  0.5851169124319499  0.16858722830849618  1.0000
  C   C14       1.0  0.05497575392251968  0.8530398169883071  0.2988345035092408  1.0000
  C   C15       1.0  0.0002232254135349925  0.8048510811005939  0.300990101042494  1.0000
  C   C16       1.0  0.9521796218927534  0.7999755432347797  0.34798138901059156  1.0000
  C   C17       1.0  0.9620226558087451  0.8437673723854574  0.3907861755020221  1.0000
  C   C18       1.0  0.06111589765773567  0.8945971126076414  0.344286493924514  1.0000
  C   C19       1.0  0.9973349040293797  0.3793764088172936  0.8607805328911056  1.0000
  C   C20       1.0  0.003465047334785307  0.33727217463359693  0.8169910357730928  1.0000
  C   C21       1.0  0.9540238258907723  0.28503310412486377  0.8171587332740273  1.0000
  C   C22       1.0  0.9012759437128465  0.2777609420589472  0.8605180061976938  1.0000
  C   C23       1.0  0.8992945885086099  0.3227720454042996  0.9030282390141052  1.0000
  C   C24       1.0  0.05561935191145299  0.20114437518118683  0.655515500863352  1.0000
  C   C25       1.0  0.9998137920557753  0.1953545709924001  0.6971206827982143  1.0000
  C   C26       1.0  0.9483016498710839  0.1441746290944295  0.6959967499397947  1.0000
  C   C27       1.0  0.9552859459052667  0.10174834820180222  0.6525751816657248  1.0000
  C   C28       1.0  0.0590362827292168  0.1555011072807275  0.6137155446315532  1.0000
  C   C29       1.0  0.7700927548067042  0.9836052362897548  0.4938590392102568  1.0000
  C   C30       1.0  0.7290927901124676  0.021745715767501398  0.5302079759111535  1.0000
  C   C31       1.0  0.649025366340247  0.022022682384587697  0.5299543412299741  1.0000
  C   C32       1.0  0.6063726501087886  0.9830907217589911  0.491683057654967  1.0000
  C   C33       1.0  0.6451639898890349  0.9453232673283483  0.4545448786576712  1.0000
  C   C34       1.0  0.7260151813023937  0.9450944985168592  0.45568151297630516  1.0000
  C   C35       1.0  0.36873389727656297  0.024050265095034693  0.5679047132853086  1.0000
  C   C36       1.0  0.40863251458583955  0.004106461115767994  0.5203996206069235  1.0000
  C   C37       1.0  0.3672735545497474  0.9837097337327169  0.472025044979425  1.0000
  C   C38       1.0  0.28714087999787097  0.9833081840660897  0.4728264888884011  1.0000
  C   C39       1.0  0.2451072894238848  0.0024253270628519963  0.520308820598693  1.0000
  C   C40       1.0  0.2877467537490688  0.02283893854087179  0.5683534913712904  1.0000
  C   C41       1.0  0.9614500034110092  0.6174488834863041  0.8984246031798335  1.0000
  C   C42       1.0  0.9529124663894136  0.6006627001926788  0.8413035271987682  1.0000
  C   C43       1.0  0.9595589818713889  0.6413223234453653  0.8009715166377944  1.0000
  C   C44       1.0  0.9762654649759169  0.7017378797234813  0.8172063696105097  1.0000
  C   C45       1.0  0.985858287160212  0.7196267535159393  0.8735691810201445  1.0000
  C   C46       1.0  0.9784159571437739  0.6781033889464042  0.9137783402656722  1.0000
  C   C47       1.0  0.9751709117835929  0.7590933572059415  0.6367021874099521  1.0000
  C   C48       1.0  0.983713320645961  0.7773224027343704  0.6930695033492639  1.0000
  C   C49       1.0  0.9965077042906642  0.8380811652185189  0.7092977380851339  1.0000
  C   C50       1.0  0.9997763669931244  0.8787287148516542  0.6689362586089372  1.0000
  C   C51       1.0  0.9915460397222944  0.8617019792688937  0.6118268357971886  1.0000
  C   C52       1.0  0.9792369640751629  0.8006266650526755  0.5964582672412106  1.0000
  C   C53       1.0  0.0019060937222264197  0.3680961729920328  0.11701646194615727  1.0000
  C   C54       1.0  0.004328756081001488  0.38578942504460656  0.174183052928683  1.0000
  C   C55       1.0  0.024230562179667504  0.3483592501455419  0.21368636097486157  1.0000
  C   C56       1.0  0.04335440049381129  0.2907270603314203  0.1962935399089574  1.0000
  C   C57       1.0  0.0472948304304879  0.273504919699647  0.13960754625711758  1.0000
  C   C58       1.0  0.0262728597269799  0.31164418974734087  0.1001481897315131  1.0000
  C   C59       1.0  0.0009439085106919098  0.22539668272222005  0.37035843045077843  1.0000
  C   C60       1.0  0.0359390417198071  0.21355165304083104  0.3186176731260559  1.0000
  C   C61       1.0  0.0649106613835428  0.15795696435235135  0.305163439803934  1.0000
  C   C62       1.0  0.05565098616673231  0.11486859204907061  0.3430775265212844  1.0000
  C   C63       1.0  0.019828301281727103  0.12542302467528543  0.3951113623350722  1.0000
  C   C64       1.0  0.9930282775438214  0.18178829498344126  0.4084459856215119  1.0000
  C   C65       1.0  0.7089240390742119  0.4756009397533418  0.996860011668737  1.0000
  C   C66       1.0  0.6673740761288655  0.5001831449544556  0.04237633446458489  1.0000
  C   C67       1.0  0.5873901633457308  0.5013617541309472  0.04266231136783459  1.0000
  C   C68       1.0  0.5454479746009541  0.4770773879373279  0.9957529306621709  1.0000
  C   C69       1.0  0.5848707735566379  0.45197918417414223  0.9501779777099059  1.0000
  C   C70       1.0  0.6656726516657014  0.451336813962918  0.9502547313056694  1.0000
  C   C71       1.0  0.3075526323267681  0.5339766035141268  0.06183082327111578  1.0000
  C   C72       1.0  0.3474818420620807  0.5004579301011844  0.02167207912683009  1.0000
  C   C73       1.0  0.3061067284256751  0.4671486050140389  0.978738173659252  1.0000
  C   C74       1.0  0.2262404254720281  0.4685679505614644  0.9769803375600573  1.0000
  C   C75       1.0  0.18439421995800834  0.5027411553571781  0.016278941967996684  1.0000
  C   C76       1.0  0.22692696515304783  0.535441717785453  0.059155403726897794  1.0000
  N   N1        1.0  0.9408096532814054  0.5920401422688074  0.12189364453021057  1.0000
  N   N2        1.0  0.9553890394266489  0.7179789393326245  0.2579444522635228  1.0000
  N   N3        1.0  0.9989070097499493  0.7646185523537242  0.2532588202709363  1.0000
  N   N4        1.0  0.01584868487029918  0.8904073713105375  0.389409897550081  1.0000
  N   N5        1.0  0.9464654642302007  0.37264213893169557  0.9033550586155669  1.0000
  N   N6        1.0  0.9521702672090127  0.23686867861354696  0.7762846353463858  1.0000
  N   N7        1.0  0.0013232814009285034  0.24364665868340302  0.7378415244972487  1.0000
  N   N8        1.0  0.009415900544830397  0.10688585448861689  0.6118060139952775  1.0000
  N   N9        1.0  0.5245996828467057  0.9790126226380523  0.4866503035636498  1.0000
  N   N10       1.0  0.49021311567994985  0.006751578076581696  0.5257782940020448  1.0000
  N   N11       1.0  0.9842729474125845  0.7480360780500134  0.7806264004958406  1.0000
  N   N12       1.0  0.9772069332927343  0.731010987490549  0.7296692955875838  1.0000
  N   N13       1.0  0.054838332448433405  0.24596667673733927  0.2327760336027822  1.0000
  N   N14       1.0  0.0334707484031824  0.25935083650033164  0.2821360526573642  1.0000
  N   N15       1.0  0.4640428388250442  0.475379644492719  0.9895426597458439  1.0000
  N   N16       1.0  0.4289730315243431  0.5028916135504674  0.028490848383242496  1.0000
  Cl  Cl1       1.0  0.8391537389281681  0.5222636731523095  0.1737639444590329  1.0000
  Cl  Cl2       1.0  0.1300099007293198  0.952824645173749  0.341529466726655  1.0000
  Cl  Cl3       1.0  0.8342885257957775  0.31295833802540324  0.955742975313079  1.0000
  Cl  Cl4       1.0  0.12968785931841603  0.1631109869146883  0.5643713403067493  1.0000
  Cl  Cl5       1.0  0.7659433563180683  0.8961472453646097  0.4070255534447469  1.0000
  Cl  Cl6       1.0  0.24605859878580819  0.046634247232070394  0.6306328384450737  1.0000
  Cl  Cl7       1.0  0.993831285328973  0.7056453332193372  0.9819256650617519  1.0000
  Cl  Cl8       1.0  0.9654207484450337  0.7725154850552942  0.5283174744378627  1.0000
  Cl  Cl9       1.0  0.03352542800708139  0.2860501137667768  0.031174562677158194  1.0000
  Cl  Cl10      1.0  0.9450774552193124  0.19915554189105927  0.47005406586519155  1.0000
  Cl  Cl11      1.0  0.7061237159950194  0.4201496333534679  0.8902683629442123  1.0000
  Cl  Cl12      1.0  0.1841244587974984  0.5771447367224029  0.1122898918451867  1.0000
  O   O1        1.0  0.8951876159527856  0.9497306317641829  0.4716127669991792  1.0000
  O   O2        1.0  0.8869022609696913  0.030898966340508597  0.5310136296639811  1.0000
  O   O3        1.0  0.980489546653537  0.961470504779577  0.5925917399736065  1.0000
  O   O4        1.0  0.01820832123748058  0.8976787992858276  0.5225920716669918  1.0000
  O   O5        1.0  0.11919209207248829  0.0219699364526491  0.554978319932836  1.0000
  O   O6        1.0  0.13002053730747323  0.9755017408139683  0.46967357285340944  1.0000
  O   O7        1.0  0.002210778954626801  0.0234523177010644  0.4100167361732828  1.0000
  O   O8        1.0  0.023143728923237496  0.08897954754985449  0.4844609112562638  1.0000
  O   O9        1.0  0.9279065415991639  0.5826941050065245  0.9870644771096478  1.0000
  O   O10       1.0  0.9670691559660582  0.5174288608105044  0.9187634167590345  1.0000
  O   O11       1.0  0.06755299370439621  0.45462568954746274  0.9811554719845148  1.0000
  O   O12       1.0  0.060655688980851594  0.5417687234928295  0.032456113421517295  1.0000
  O   O13       1.0  0.9449945935508808  0.3914589196605932  0.0322186127812429  1.0000
  O   O14       1.0  0.974974841713198  0.46500336840407663  0.09824335137516019  1.0000
  O   O15       1.0  0.8251182219485143  0.503823084647145  0.046356984274829885  1.0000
  O   O16       1.0  0.834075381297076  0.45335320377197524  0.9627965435704907  1.0000
