data_image0
_chemical_formula_structural       Zn4H56C32N8Cl8O8
_chemical_formula_sum              "Zn4 H56 C32 N8 Cl8 O8"
_cell_length_a       5.913698242418183
_cell_length_b       11.848902455083286
_cell_length_c       17.179080129595015
_cell_angle_alpha    89.99933785424368
_cell_angle_beta     96.65531660474034
_cell_angle_gamma    90.0003902656885

_space_group_name_H-M_alt    "P 1"
_space_group_IT_number       1

loop_
  _space_group_symop_operation_xyz
  'x, y, z'

loop_
  _atom_site_type_symbol
  _atom_site_label
  _atom_site_symmetry_multiplicity
  _atom_site_fract_x
  _atom_site_fract_y
  _atom_site_fract_z
  _atom_site_occupancy
  Zn  Zn1       1.0  0.0024275149453458996  0.38184566509870865  0.1568942676431249  1.0000
  Zn  Zn2       1.0  0.9975703284855298  0.8818561926596827  0.8431067328463515  1.0000
  Zn  Zn3       1.0  0.0625076661607338  0.42685379184816696  0.6286510819687763  1.0000
  Zn  Zn4       1.0  0.9374910799275256  0.9268454310414068  0.3713463906426995  1.0000
  H   H1        1.0  0.07508510027090412  0.6010091590799503  0.5181497922030829  1.0000
  H   H2        1.0  0.9249307027253408  0.10101029598362028  0.4818543116366385  1.0000
  H   H3        1.0  0.1852883539062375  0.6296268160844887  0.42973732736481923  1.0000
  H   H4        1.0  0.8147432205651272  0.12963760346799083  0.5702669088915187  1.0000
  H   H5        1.0  0.24363655504524223  0.6578950818675792  0.223348281274184  1.0000
  H   H6        1.0  0.7563686211870506  0.15790706371741683  0.7766488039757322  1.0000
  H   H7        1.0  0.3915020467192961  0.558736705201049  0.1711123364031906  1.0000
  H   H8        1.0  0.6084913645143359  0.05875171391154769  0.8288860972606643  1.0000
  H   H9        1.0  0.1221463559717719  0.6258472496348372  0.7240870656586652  1.0000
  H   H10       1.0  0.8778346602008187  0.12583503313394567  0.2759071574878291  1.0000
  H   H11       1.0  0.3251539792828382  0.6855060382490377  0.7946672638505278  1.0000
  H   H12       1.0  0.6748291703455463  0.18549446866492753  0.2053327822524196  1.0000
  H   H13       1.0  0.7617237984965398  0.5572841762407776  0.382543819293339  1.0000
  H   H14       1.0  0.23830090848550614  0.05730270847586638  0.6174468168403565  1.0000
  H   H15       1.0  0.5586615708522231  0.6632959764630468  0.3979679421966509  1.0000
  H   H16       1.0  0.4413743177572228  0.16331138933470157  0.6020306219623848  1.0000
  H   H17       1.0  0.7487951488881424  0.5526660505167128  0.7717844729907952  1.0000
  H   H18       1.0  0.25119281335907573  0.05265162103279408  0.22821720087600994  1.0000
  H   H19       1.0  0.5632850324924804  0.3551304999943027  0.8615764795305623  1.0000
  H   H20       1.0  0.4366735380735563  0.8551199936247682  0.1384191704257631  1.0000
  H   H21       1.0  0.661269384308241  0.3474359822468713  0.7686257907166479  1.0000
  H   H22       1.0  0.3387009038517875  0.8474198365669136  0.23137160494930956  1.0000
  H   H23       1.0  0.712266606805187  0.8133107347767561  0.9728050833575496  1.0000
  H   H24       1.0  0.2877453128602454  0.31331007208479617  0.0272002116149395  1.0000
  H   H25       1.0  0.8891089329502009  0.6989250608980551  0.009092376889860497  1.0000
  H   H26       1.0  0.11088636582616834  0.19892856607803103  0.9909076524067045  1.0000
  H   H27       1.0  0.2790213487886106  0.3595536660406537  0.385757220463411  1.0000
  H   H28       1.0  0.7209997028301416  0.8595668473686755  0.6142490192415409  1.0000
  H   H29       1.0  0.5999382732869378  0.47788198990293285  0.975017471690471  1.0000
  H   H30       1.0  0.4000474632017088  0.9778806944901814  0.024981029009644808  1.0000
  H   H31       1.0  0.3353252583494354  0.5250487261123737  0.9247945771677878  1.0000
  H   H32       1.0  0.6646572011395264  0.02504526522303509  0.0752068778490411  1.0000
  H   H33       1.0  0.6218441467326841  0.7261097192040961  0.2705847574775363  1.0000
  H   H34       1.0  0.3781569896558139  0.22611940823244217  0.7294108493429478  1.0000
  H   H35       1.0  0.7452344303478284  0.595376616849151  0.2485480248239754  1.0000
  H   H36       1.0  0.2547685286466361  0.0953810358190665  0.751443820652206  1.0000
  H   H37       1.0  0.5458146917709996  0.6331210517700467  0.0590472661386769  1.0000
  H   H38       1.0  0.4541813628601332  0.13312291718620628  0.9409529137099001  1.0000
  H   H39       1.0  0.3701410713780504  0.7063034900449593  0.9843362825439501  1.0000
  H   H40       1.0  0.6298608002128746  0.2063034020457407  0.015668710774313904  1.0000
  H   H41       1.0  0.05174974886569567  0.4054032688109288  0.8244748270456344  1.0000
  H   H42       1.0  0.9482243078163606  0.905398309884795  0.1755290560140494  1.0000
  H   H43       1.0  0.963004446338587  0.28466872821790185  0.8732029333396911  1.0000
  H   H44       1.0  0.03694264396234101  0.7846640722139424  0.12679577600219727  1.0000
  H   H45       1.0  0.962216728767345  0.41814789813845704  0.919819133930858  1.0000
  H   H46       1.0  0.037748958909247704  0.9181463370260227  0.0801849038017224  1.0000
  H   H47       1.0  0.5770880035017072  0.3194651785144201  0.4984005822851927  1.0000
  H   H48       1.0  0.4229443425521922  0.8194656292565127  0.5016068564263777  1.0000
  H   H49       1.0  0.7274198653030198  0.4404085990247494  0.47597238764603134  1.0000
  H   H50       1.0  0.2726062639585436  0.9404095913296824  0.5240269707120007  1.0000
  H   H51       1.0  0.6179666273381983  0.23404662741515375  0.3686457918176202  1.0000
  H   H52       1.0  0.38205402345573697  0.7340582318383608  0.631364721750636  1.0000
  H   H53       1.0  0.8919566875629883  0.27416570859017486  0.4134797659783871  1.0000
  H   H54       1.0  0.1080720295478059  0.7741651467305244  0.5865217524490163  1.0000
  H   H55       1.0  0.7510930739110862  0.35690172968367034  0.3369750647326057  1.0000
  H   H56       1.0  0.2489096018911923  0.8569077433583131  0.6630250485407388  1.0000
  C   C1        1.0  0.7519064992934759  0.6794219887984664  0.8911616503080566  1.0000
  C   C2        1.0  0.24807988150647733  0.1794136783149226  0.1088397274730681  1.0000
  C   C3        1.0  0.29922943125615825  0.5022123649098303  0.28137696154824  1.0000
  C   C4        1.0  0.700776740081672  0.0022200133515112995  0.7186227705956725  1.0000
  C   C5        1.0  0.3937841579499874  0.5247205323113062  0.7557278719293735  1.0000
  C   C6        1.0  0.6061952338715244  0.024710950472886888  0.2442687767210927  1.0000
  C   C7        1.0  0.3770401701453707  0.5927279800029196  0.2295548662544959  1.0000
  C   C8        1.0  0.6229640265678001  0.0927405751082944  0.7704428666358042  1.0000
  C   C9        1.0  0.2550748852217524  0.4714250300027202  0.4791814873694449  1.0000
  C   C10       1.0  0.7449216916705553  0.9714200020705657  0.5208309423915767  1.0000
  C   C11       1.0  0.5988280532192505  0.5946733979088774  0.3586670104490324  1.0000
  C   C12       1.0  0.401193574317773  0.09468665696644506  0.6413263231642433  1.0000
  C   C13       1.0  0.6235118554112375  0.5154492148711822  0.8072526255009294  1.0000
  C   C14       1.0  0.3764673604676503  0.015435402416976298  0.19274461296417664  1.0000
  C   C15       1.0  0.6857591137622165  0.3916966553164085  0.8249630972529047  1.0000
  C   C16       1.0  0.3142150441905258  0.891691413941686  0.17503673844321102  1.0000
  C   C17       1.0  0.7299369037633314  0.7212625787366562  0.9725242272316876  1.0000
  C   C18       1.0  0.27005684372466726  0.2212618522726259  0.027478017367542407  1.0000
  C   C19       1.0  0.38789888261534605  0.42669464212837466  0.4145703148131333  1.0000
  C   C20       1.0  0.6121220289839187  0.9267024430999058  0.5854276498718393  1.0000
  C   C21       1.0  0.51111268404172  0.5499708377348113  0.9449131725467694  1.0000
  C   C22       1.0  0.48886672986544266  0.04996321281455349  0.05508809174421  1.0000
  C   C23       1.0  0.6016386307328503  0.6345568615585718  0.273413283529088  1.0000
  C   C24       1.0  0.3983648489501377  0.13456332328844664  0.7265791016318275  1.0000
  C   C25       1.0  0.5258487696704393  0.6558887485589506  0.9968991770932691  1.0000
  C   C26       1.0  0.47415084565052723  0.15588770761925724  0.0031034650286656993  1.0000
  C   C27       1.0  0.9290588319726822  0.37495735908427  0.863065277557709  1.0000
  C   C28       1.0  0.0709063625822353  0.874951659930971  0.1369370641989605  1.0000
  C   C29       1.0  0.6140627446292585  0.3736136021449352  0.4496411156947176  1.0000
  C   C30       1.0  0.38595702022846  0.8736175317861096  0.5503621258938554  1.0000
  C   C31       1.0  0.7250998200676406  0.30648273546793087  0.38886249995256617  1.0000
  C   C32       1.0  0.2749189796610594  0.8064878620065058  0.6111408110871467  1.0000
  N   N1        1.0  0.41861839941505957  0.5080449229573246  0.35310210903486455  1.0000
  N   N2        1.0  0.5813995562281137  0.008059422401728997  0.6469010954792793  1.0000
  N   N3        1.0  0.6288674236633653  0.5843439955869556  0.8776315280487239  1.0000
  N   N4        1.0  0.37112112191071134  0.08433481875013628  0.1223683723804214  1.0000
  N   N5        1.0  0.1723512799224807  0.5753873253835022  0.47564384068241594  1.0000
  N   N6        1.0  0.8277167043446241  0.07540713241484549  0.5243424560984877  1.0000
  N   N7        1.0  0.2703225995036718  0.6168098045411553  0.7608032740220028  1.0000
  N   N8        1.0  0.7296696887999802  0.11679654233804368  0.2391984984270934  1.0000
  Cl  Cl1       1.0  0.0666148418128572  0.4996015703263834  0.06141308759435301  1.0000
  Cl  Cl2       1.0  0.9333677605070604  0.9996064881701014  0.9385858059083888  1.0000
  Cl  Cl3       1.0  0.6303370129158594  0.35859372620245006  0.1658777275054106  1.0000
  Cl  Cl4       1.0  0.3696601126529587  0.8586042462347051  0.8341285190252918  1.0000
  Cl  Cl5       1.0  0.8432419506625735  0.5841195302735682  0.6179427258738814  1.0000
  Cl  Cl6       1.0  0.15675735733374546  0.08411536121394649  0.38205012674993816  1.0000
  Cl  Cl7       1.0  0.8849755519390147  0.26823327688158116  0.6525494615746937  1.0000
  Cl  Cl8       1.0  0.11502938073123661  0.76823065654829  0.347449167719553  1.0000
  O   O1        1.0  0.8704392868727526  0.7221095714136182  0.8418427882441719  1.0000
  O   O2        1.0  0.12954115560231122  0.22209518405370682  0.15815473416453332  1.0000
  O   O3        1.0  0.33423054297522736  0.4438030918544057  0.7095339982153988  1.0000
  O   O4        1.0  0.6657617242446036  0.9437845018504445  0.2904619665363199  1.0000
  O   O5        1.0  0.14202261896726037  0.4308935267639382  0.264795959438473  1.0000
  O   O6        1.0  0.857968823598739  0.9309068682757412  0.7352087219616197  1.0000
  O   O7        1.0  0.22590845372270252  0.4030144490711079  0.5338539686853494  1.0000
  O   O8        1.0  0.7741140323882834  0.9030136919360812  0.4661412018720697  1.0000
