data_image0
_chemical_formula_structural       Zn3H60C78N30
_chemical_formula_sum              "Zn3 H60 C78 N30"
_cell_length_a       10.251073224002743
_cell_length_b       16.003464412037776
_cell_length_c       16.006116209957103
_cell_angle_alpha    115.58831547057677
_cell_angle_beta     102.35080094349732
_cell_angle_gamma    102.3088073612088

_space_group_name_H-M_alt    "P 1"
_space_group_IT_number       1

loop_
  _space_group_symop_operation_xyz
  'x, y, z'

loop_
  _atom_site_type_symbol
  _atom_site_label
  _atom_site_symmetry_multiplicity
  _atom_site_fract_x
  _atom_site_fract_y
  _atom_site_fract_z
  _atom_site_occupancy
  Zn  Zn1       1.0  9.667913759990608e-08  0.4999999008770645  0.9999998488704381  1.0000
  Zn  Zn2       1.0  0.5000002588559127  0.5000003547871971  0.4999999072028346  1.0000
  Zn  Zn3       1.0  5.454714865998322e-07  5.484832286000027e-07  0.5000009398555392  1.0000
  H   H1        1.0  0.8619162334289427  0.2653252981641359  0.8525608201387769  1.0000
  H   H2        1.0  0.5966377275719309  0.587147832690178  0.7344985036228381  1.0000
  H   H3        1.0  0.009429599069527188  0.1475905963383326  0.4131617568948229  1.0000
  H   H4        1.0  0.13808429085430854  0.7346754118385731  0.14744086963134603  1.0000
  H   H5        1.0  0.4033637909352025  0.41285287700242895  0.2655020713663135  1.0000
  H   H6        1.0  0.9905695551275215  0.8524093748835784  0.586838802846785  1.0000
  H   H7        1.0  0.951290571767629  0.12152766770907421  0.794159341985811  1.0000
  H   H8        1.0  0.8297968337248136  0.6724877002392589  0.8782882324981572  1.0000
  H   H9        1.0  0.1569114277619121  0.20582646069776442  0.32762435652997374  1.0000
  H   H10       1.0  0.04870995032515415  0.8784730421508584  0.2058417226628322  1.0000
  H   H11       1.0  0.17020431549141787  0.32751227079074846  0.12171197304595441  1.0000
  H   H12       1.0  0.8430867234493673  0.794173510263171  0.6723748175066645  1.0000
  H   H13       1.0  0.21042988778526706  0.1542689203935694  0.8688135180971559  1.0000
  H   H14       1.0  0.05616503252262116  0.7145982671739406  0.8456353825849662  1.0000
  H   H15       1.0  0.34116944054287773  0.13101239329729714  0.2855099573387179  1.0000
  H   H16       1.0  0.7895702628261387  0.8457310506610014  0.13118655198496035  1.0000
  H   H17       1.0  0.9438354851892116  0.2854024424004535  0.15436443182070295  1.0000
  H   H18       1.0  0.658824231118899  0.868984622658651  0.714485457167342  1.0000
  H   H19       1.0  0.4904973427240335  0.8233084828996128  0.2256266836426662  1.0000
  H   H20       1.0  0.6669126945902234  0.4021599123807037  0.17656022039259517  1.0000
  H   H21       1.0  0.2652560297507519  0.7745625084007983  0.5976153053280059  1.0000
  H   H22       1.0  0.509506168611807  0.17669222645831437  0.7743729120275091  1.0000
  H   H23       1.0  0.3330854610019997  0.5978400588657706  0.8234402038870101  1.0000
  H   H24       1.0  0.734746118070305  0.22543746260464562  0.40238503567810113  1.0000
  H   H25       1.0  0.7190938988364761  0.9612151496475645  0.3456573556368382  1.0000
  H   H26       1.0  0.7574824216634111  0.3843408519547537  0.03865750144277766  1.0000
  H   H27       1.0  0.3734746021094609  0.654400169239942  0.6154687808758939  1.0000
  H   H28       1.0  0.28090824898458067  0.0387848213578792  0.6543429853692688  1.0000
  H   H29       1.0  0.242514361652141  0.6156583803681528  0.9613411676868324  1.0000
  H   H30       1.0  0.6265279128120226  0.34560054028532516  0.38453130445376627  1.0000
  H   H31       1.0  0.9116964494883814  0.7664453884126343  0.37070781848770906  1.0000
  H   H32       1.0  0.1448553638555906  0.6041651169829335  0.23349645358440801  1.0000
  H   H33       1.0  0.5412277225932628  0.6292120229902239  0.395795491903293  1.0000
  H   H34       1.0  0.08830296473169598  0.23355310545953506  0.6292921378258214  1.0000
  H   H35       1.0  0.8551416751020398  0.395832637704693  0.766500361874158  1.0000
  H   H36       1.0  0.4587737915329198  0.37078868641683727  0.6042038328428916  1.0000
  H   H37       1.0  0.6911189329080046  0.6201964120041127  0.25010702450165223  1.0000
  H   H38       1.0  0.07073803788399849  0.62968580042903  0.37974659895060375  1.0000
  H   H39       1.0  0.4415888098359061  0.7499430467733746  0.37017654538267664  1.0000
  H   H40       1.0  0.30888085060297493  0.37980282053064235  0.7498933012569183  1.0000
  H   H41       1.0  0.9292623683694853  0.3703126929902609  0.6202516174604682  1.0000
  H   H42       1.0  0.5584107092711007  0.2500576628255828  0.629823133560997  1.0000
  H   H43       1.0  0.439079514900321  0.2603113449260023  0.9776026720350545  1.0000
  H   H44       1.0  0.17863641924990492  0.7174580963492545  0.7396097954950634  1.0000
  H   H45       1.0  0.4610777307442788  0.022317357633198795  0.28280349575586433  1.0000
  H   H46       1.0  0.5609196371062523  0.7396886261531322  0.02239726258506638  1.0000
  H   H47       1.0  0.8213640984619275  0.28254261322513946  0.26039001891060565  1.0000
  H   H48       1.0  0.5389200533665743  0.9776818748079138  0.7171959339572214  1.0000
  H   H49       1.0  0.44670861899459163  0.3605257561748871  0.09029804355899528  1.0000
  H   H50       1.0  0.08591378290034153  0.729887949463503  0.6394006375266841  1.0000
  H   H51       1.0  0.3561019917199528  0.9096196066440853  0.2703058079249629  1.0000
  H   H52       1.0  0.5532915316168143  0.6394742148796909  0.9097020265231209  1.0000
  H   H53       1.0  0.9140861033070918  0.2701134986552773  0.3605987857405424  1.0000
  H   H54       1.0  0.6438977896005511  0.09037962574790732  0.7296938927121204  1.0000
  H   H55       1.0  0.4828156041630577  0.3841738983455584  0.9992230594897081  1.0000
  H   H56       1.0  0.0984615527205505  0.6151479238620468  0.6157343238360441  1.0000
  H   H57       1.0  0.48332733547404416  0.0007561664737921001  0.38506972895947206  1.0000
  H   H58       1.0  0.5171845464483482  0.6158260727090195  0.000777010592408126  1.0000
  H   H59       1.0  0.9015393364726592  0.3848535245177089  0.3842664851361449  1.0000
  H   H60       1.0  0.516670188613787  0.9992445433170687  0.6149303041816978  1.0000
  C   C1        1.0  0.9735203708268898  0.27421938694088505  0.8824316722575248  1.0000
  C   C2        1.0  0.6993116609966917  0.6081598748355078  0.7256255804920358  1.0000
  C   C3        1.0  0.09100386103743568  0.11761776584464909  0.3920605321678039  1.0000
  C   C4        1.0  0.026478783370166206  0.725780584281026  0.11756888748407607  1.0000
  C   C5        1.0  0.300688118133337  0.3918393574137086  0.2743734950235608  1.0000
  C   C6        1.0  0.9089952931596202  0.8823822053772691  0.6079400275738039  1.0000
  C   C7        1.0  0.023529040306392773  0.1955126238292024  0.8507431129767795  1.0000
  C   C8        1.0  0.828035245346605  0.6551795623875946  0.8043453303972115  1.0000
  C   C9        1.0  0.1725594516273503  0.14922631027631186  0.34498214041532554  1.0000
  C   C10       1.0  0.9764711124954883  0.8044873473681448  0.14925758222681645  1.0000
  C   C11       1.0  0.17196453378343077  0.3448196698616215  0.19565374511838485  1.0000
  C   C12       1.0  0.8274383324835026  0.8507729221648076  0.6550172892977671  1.0000
  C   C13       1.0  0.1678256733499666  0.21424283025108082  0.8926690144091864  1.0000
  C   C14       1.0  0.9535663820908623  0.678468881256059  0.7856512040983362  1.0000
  C   C15       1.0  0.2748154720748914  0.107222270920353  0.3216838585359341  1.0000
  C   C16       1.0  0.8321744794519147  0.7857571409462664  0.10733168079441663  1.0000
  C   C17       1.0  0.04643513860673918  0.32153182857931745  0.2143499960122953  1.0000
  C   C18       1.0  0.725181938364116  0.8927762225726353  0.6783139514891516  1.0000
  C   C19       1.0  0.2609340862515169  0.3095746993240526  0.9646595034639491  1.0000
  C   C20       1.0  0.9512673471170815  0.6551791462513277  0.6903308522204198  1.0000
  C   C21       1.0  0.29595051780820103  0.0352344707571959  0.3449858436805684  1.0000
  C   C22       1.0  0.7390660643598892  0.6904252717305255  0.035340566618167285  1.0000
  C   C23       1.0  0.04873353988565299  0.34482230198565134  0.309669331630289  1.0000
  C   C24       1.0  0.7040468948212745  0.9647640228785618  0.6550125914659972  1.0000
  C   C25       1.0  0.20134215990192664  0.3851576485206465  0.991866592839692  1.0000
  C   C26       1.0  0.8161075092457253  0.6067416805035678  0.6147257510663167  1.0000
  C   C27       1.0  0.20924315266319843  0.0080558863568854  0.3933648855771566  1.0000
  C   C28       1.0  0.7986593651766255  0.6148430616002685  0.00813585751390631  1.0000
  C   C29       1.0  0.18389200767081348  0.3932590289526204  0.3852733027558771  1.0000
  C   C30       1.0  0.7907553700294514  0.9919448234094119  0.6066352830260089  1.0000
  C   C31       1.0  0.2828892729645816  0.4894281234120045  0.06298115806274039  1.0000
  C   C32       1.0  0.7933675850120707  0.5735109760300006  0.510458403600275  1.0000
  C   C33       1.0  0.21978926251942713  0.9369297242014981  0.4264422404234837  1.0000
  C   C34       1.0  0.7171098812324743  0.5105718478099064  0.9370194016788673  1.0000
  C   C35       1.0  0.20663330199066365  0.4264904722069786  0.48954178025043404  1.0000
  C   C36       1.0  0.7802105166106018  0.06306950804771821  0.5735568350921129  1.0000
  C   C37       1.0  0.4379109135135764  0.6299282449035389  0.16290976947696836  1.0000
  C   C38       1.0  0.8078327018811038  0.5328233704900001  0.36996647472935257  1.0000
  C   C39       1.0  0.2752706311836589  0.8371039559740082  0.4669879058791794  1.0000
  C   C40       1.0  0.5620896063887244  0.37007246481363143  0.8370906700501879  1.0000
  C   C41       1.0  0.19216981304037964  0.4671773390352669  0.6300336106003144  1.0000
  C   C42       1.0  0.724729890909117  0.16289675388593142  0.5330131587694639  1.0000
  C   C43       1.0  0.571884248150333  0.710508226604496  0.2293150611727769  1.0000
  C   C44       1.0  0.8611605773678973  0.5186297547826656  0.2893882389901493  1.0000
  C   C45       1.0  0.3429975851716164  0.7707831841212353  0.48118995692151856  1.0000
  C   C46       1.0  0.428117268166325  0.28949248294533453  0.7706848886948878  1.0000
  C   C47       1.0  0.1388398332665304  0.48136873892216414  0.7106112276638967  1.0000
  C   C48       1.0  0.6570025654397825  0.22921678693334258  0.5188101131605976  1.0000
  C   C49       1.0  0.5822112784272235  0.8082311087562462  0.2560585482735861  1.0000
  C   C50       1.0  0.7737085571617328  0.44766100792188723  0.19163960856121795  1.0000
  C   C51       1.0  0.3265645293248624  0.7440918573908633  0.5521751881434157  1.0000
  C   C52       1.0  0.417790495721988  0.191768123301074  0.7439401730445214  1.0000
  C   C53       1.0  0.2262915934496732  0.5523389631326836  0.8083604615208985  1.0000
  C   C54       1.0  0.673436991372739  0.25590885244451306  0.4478260119672158  1.0000
  C   C55       1.0  0.7088307345453798  0.8845350153613224  0.32247393600443514  1.0000
  C   C56       1.0  0.8239433716461022  0.4378159366241262  0.11535132032265948  1.0000
  C   C57       1.0  0.38657980456635943  0.6776124628015907  0.5620399553843641  1.0000
  C   C58       1.0  0.2911734126757962  0.11546495573777091  0.6775273010471495  1.0000
  C   C59       1.0  0.17605503958819924  0.5621825569870681  0.8846472502859088  1.0000
  C   C60       1.0  0.6134217117502986  0.3223882467482397  0.43795999448330053  1.0000
  C   C61       1.0  0.8161903930336364  0.7759567092638663  0.3362374329398109  1.0000
  C   C62       1.0  0.03987625341286355  0.5601349995742595  0.22396333086313552  1.0000
  C   C63       1.0  0.48024915103190574  0.6637704653330659  0.4397745132124273  1.0000
  C   C64       1.0  0.1838100176007984  0.2240417844409706  0.6637620337142283  1.0000
  C   C65       1.0  0.9601227871353685  0.4398627553497789  0.7760350057623883  1.0000
  C   C66       1.0  0.5197517359708214  0.33623098290392045  0.5602256706382819  1.0000
  C   C67       1.0  0.693815096570475  0.6948302076959578  0.2696111178972701  1.0000
  C   C68       1.0  0.9987370764381892  0.5745848837833235  0.30508980123670426  1.0000
  C   C69       1.0  0.4246719503281824  0.7304701368098421  0.42529032626338653  1.0000
  C   C70       1.0  0.3061863126687783  0.3051682859843083  0.7303884842187716  1.0000
  C   C71       1.0  0.001263332005763121  0.4254136097787367  0.6949090402958477  1.0000
  C   C72       1.0  0.5753295659884755  0.2695305727399884  0.574709623604278  1.0000
  C   C73       1.0  0.4156991866714747  0.3289280998690174  0.009896878504420682  1.0000
  C   C74       1.0  0.0866254442644418  0.681106256674468  0.6709898902712652  1.0000
  C   C75       1.0  0.4054754088754321  0.9900207884619546  0.3191041144703064  1.0000
  C   C76       1.0  0.5843009639399311  0.6710718711855604  0.9901031915776954  1.0000
  C   C77       1.0  0.9133757049517897  0.3188937143555464  0.3290103152728464  1.0000
  C   C78       1.0  0.5945230001684011  0.009977705006463103  0.6808938310167748  1.0000
  N   N1        1.0  0.06039791704840515  0.36614391023961446  0.951150070213096  1.0000
  N   N2        1.0  0.6942257602490401  0.58500107112215  0.6337304640114213  1.0000
  N   N3        1.0  0.10910954142025993  0.048834863792606605  0.4151438264058811  1.0000
  N   N4        1.0  0.939602605044378  0.6338567996203254  0.04885099443553994  1.0000
  N   N5        1.0  0.305775756067618  0.4149996384276804  0.3662694858562432  1.0000
  N   N6        1.0  0.8908896105863136  0.9511651072865349  0.5848561082142395  1.0000
  N   N7        1.0  0.2157847199433362  0.5566366323868195  0.07775525612564135  1.0000
  N   N8        1.0  0.6590740502228555  0.5208934323053073  0.44323482476080767  1.0000
  N   N9        1.0  0.13816268878066734  0.9221898123232248  0.4789920145983189  1.0000
  N   N10       1.0  0.7842174322586642  0.44336333890417023  0.9222463351234327  1.0000
  N   N11       1.0  0.3409268367798717  0.4791080159316722  0.5567653590899013  1.0000
  N   N12       1.0  0.8618378311216403  0.07781089739393818  0.5210084249288373  1.0000
  N   N13       1.0  0.31411932584684615  0.6469326799584181  0.14107971150715307  1.0000
  N   N14       1.0  0.6670797404201779  0.4938647507295074  0.3529520985759192  1.0000
  N   N15       1.0  0.17341060874900902  0.8589256475272437  0.5059302261091859  1.0000
  N   N16       1.0  0.6858811940554617  0.35306802975874524  0.8589207280200029  1.0000
  N   N17       1.0  0.33292177589648014  0.5061359588203231  0.6470478512917454  1.0000
  N   N18       1.0  0.8265899155342424  0.1410750624754655  0.4940714636609372  1.0000
  N   N19       1.0  0.42327011849219787  0.5328414426209277  0.11637034502943785  1.0000
  N   N20       1.0  0.890272341997672  0.583523621717056  0.467060963617719  1.0000
  N   N21       1.0  0.30682937844517244  0.8835809865643752  0.41637428106394486  1.0000
  N   N22       1.0  0.5767290400858016  0.4671585288865289  0.8836314649551371  1.0000
  N   N23       1.0  0.10972817571416014  0.4164770878573378  0.5329388507879499  1.0000
  N   N24       1.0  0.693169773561408  0.116418984514759  0.583625653556176  1.0000
  N   N25       1.0  0.8244543479442255  0.8698066540610084  0.3636781430115547  1.0000
  N   N26       1.0  0.9542562052734311  0.4937653443527665  0.13010624085575268  1.0000
  N   N27       1.0  0.46092620028000636  0.6363189585512784  0.5061167872735198  1.0000
  N   N28       1.0  0.17554779987683125  0.13019331694443542  0.6363221979945524  1.0000
  N   N29       1.0  0.045740208751219306  0.5062331493075548  0.8698920588288247  1.0000
  N   N30       1.0  0.5390753160366515  0.36368175099855193  0.4938831625941447  1.0000
