data_image0
_chemical_formula_structural       Cu2H24C28N8O8
_chemical_formula_sum              "Cu2 H24 C28 N8 O8"
_cell_length_a       4.768445904150416
_cell_length_b       11.062881064762122
_cell_length_c       14.59703920438684
_cell_angle_alpha    107.01411298859986
_cell_angle_beta     99.4168820927892
_cell_angle_gamma    102.46423368829335

_space_group_name_H-M_alt    "P 1"
_space_group_IT_number       1

loop_
  _space_group_symop_operation_xyz
  'x, y, z'

loop_
  _atom_site_type_symbol
  _atom_site_label
  _atom_site_symmetry_multiplicity
  _atom_site_fract_x
  _atom_site_fract_y
  _atom_site_fract_z
  _atom_site_occupancy
  Cu  Cu1       1.0  0.5000123705802368  0.9999967316586266  0.9999992671806482  1.0000
  Cu  Cu2       1.0  1.721773309529017e-05  0.500008623351228  0.5000069927186246  1.0000
  H   H1        1.0  0.46893215831082846  0.8401821891080492  0.14919942644311143  1.0000
  H   H2        1.0  0.9797039833332165  0.6596571801732127  0.3505558451555543  1.0000
  H   H3        1.0  0.531099488840496  0.15981482750131454  0.8507961907492924  1.0000
  H   H4        1.0  0.020288656683128157  0.3403584938643861  0.6494509454156727  1.0000
  H   H5        1.0  0.17656780296028532  0.9037299200478589  0.2991208686386885  1.0000
  H   H6        1.0  0.473034179087236  0.5961597252544378  0.2007820493054169  1.0000
  H   H7        1.0  0.8234489193115947  0.0962611779984641  0.70087470287514  1.0000
  H   H8        1.0  0.5269529058199253  0.40383330432661063  0.7992190267893234  1.0000
  H   H9        1.0  0.11916501460357405  0.1546381644232682  0.13083811944166968  1.0000
  H   H10       1.0  0.33346000135657056  0.3453299366681294  0.3691637267348469  1.0000
  H   H11       1.0  0.8808543883715955  0.8453666734611859  0.8691672628514481  1.0000
  H   H12       1.0  0.6665631056372943  0.6546709111657522  0.6308482522339672  1.0000
  H   H13       1.0  0.8819291442095791  0.716345082328232  0.0643862295935236  1.0000
  H   H14       1.0  0.5993449385718891  0.7833993195849446  0.4353120418820637  1.0000
  H   H15       1.0  0.11803827934235761  0.283651888029496  0.9356151628742281  1.0000
  H   H16       1.0  0.40065622935019723  0.2166085562616757  0.5646815827087295  1.0000
  H   H17       1.0  0.02402830902245484  0.47252936093151743  0.886573384081835  1.0000
  H   H18       1.0  0.16594537050284688  0.027772570134054302  0.6136683233915504  1.0000
  H   H19       1.0  0.9759326284952509  0.527469559038842  0.11343122736416689  1.0000
  H   H20       1.0  0.8340404108078233  0.9722254904273345  0.38631825992562346  1.0000
  H   H21       1.0  0.9985905918817367  0.09951182693060191  0.28242884386742856  1.0000
  H   H22       1.0  0.11587309038753091  0.40040892504298853  0.2175863971074676  1.0000
  H   H23       1.0  0.0014197521080135567  0.9004841582422219  0.7175730190075386  1.0000
  H   H24       1.0  0.884135862594448  0.599586039910868  0.7824203735944834  1.0000
  C   C1        1.0  0.3502408135867728  0.913523613380733  0.1673041810118293  1.0000
  C   C2        1.0  0.7693691015354531  0.5863670305687095  0.33254541172274077  1.0000
  C   C3        1.0  0.6497753809352459  0.08647336431013031  0.8326968550918323  1.0000
  C   C4        1.0  0.23062828720837567  0.41364275109564386  0.667457821000923  1.0000
  C   C5        1.0  0.2056246031032958  0.944237720018322  0.2411514036367991  1.0000
  C   C6        1.0  0.5199083904413584  0.5556065229670536  0.2587132632467046  1.0000
  C   C7        1.0  0.7943883875364077  0.05575732777873553  0.7588434139655644  1.0000
  C   C8        1.0  0.4800637664763057  0.4443884816840511  0.7412872183417462  1.0000
  C   C9        1.0  0.1786968829865215  0.07797366752451751  0.15541339034803767  1.0000
  C   C10       1.0  0.4451118304474804  0.42195862618550006  0.34453960207291345  1.0000
  C   C11       1.0  0.8213217920963277  0.92202724831013  0.844588664800881  1.0000
  C   C12       1.0  0.5549102793836695  0.5780461679040486  0.6554721693748249  1.0000
  C   C13       1.0  0.38975608348454216  0.7214792010594523  0.9454289305158027  1.0000
  C   C14       1.0  0.2225265619894545  0.7786439114949959  0.5546571366679914  1.0000
  C   C15       1.0  0.6102444443647315  0.27852568661806754  0.054568958593783565  1.0000
  C   C16       1.0  0.7774890292149051  0.22136197892616855  0.44533857656654147  1.0000
  C   C17       1.0  0.44718817521517445  0.6062789158797841  0.9725183001804325  1.0000
  C   C18       1.0  0.367944696214309  0.8937567529376764  0.5274569901366206  1.0000
  C   C19       1.0  0.5527849404607964  0.39372195918221564  0.027489006349739498  1.0000
  C   C20       1.0  0.6320577381408794  0.10623930834779571  0.472533722352125  1.0000
  C   C21       1.0  0.7155534193952063  0.6212412665910989  0.036747447937919696  1.0000
  C   C22       1.0  0.5566387094220816  0.8786133476359198  0.4631019113220347  1.0000
  C   C23       1.0  0.2844258007216564  0.37875665935009556  0.9632585591660784  1.0000
  C   C24       1.0  0.44336457593929873  0.1213856465465923  0.5368925537255436  1.0000
  C   C25       1.0  0.2324992949887131  0.4840500866075602  0.9361302478102543  1.0000
  C   C26       1.0  0.31278376849048317  0.01612259797666841  0.5639777340663058  1.0000
  C   C27       1.0  0.7674696304331546  0.5159429478498936  0.06386985804113009  1.0000
  C   C28       1.0  0.687185362885707  0.9838695682275402  0.4360052689070102  1.0000
  N   N1        1.0  0.3309292039169522  0.9975294855960686  0.11401633093240805  1.0000
  N   N2        1.0  0.719474722197745  0.5023797152966695  0.38585747225130956  1.0000
  N   N3        1.0  0.6690961957470022  0.0024694656537179024  0.8859846795516402  1.0000
  N   N4        1.0  0.28053558027755093  0.49763398017582017  0.6141504592165958  1.0000
  N   N5        1.0  0.10031908908169379  0.04779155357837791  0.23256657550866316  1.0000
  N   N6        1.0  0.31942343160171294  0.452154606358711  0.2674230491880962  1.0000
  N   N7        1.0  0.8996902654262229  0.9522064145168019  0.7674337563611004  1.0000
  N   N8        1.0  0.6805840072586163  0.5478403275289524  0.7325882039261912  1.0000
  O   O1        1.0  0.16321030395794595  0.7076969973409604  0.8813178001997668  1.0000
  O   O2        1.0  0.07366344224425354  0.792448396574365  0.6186762321583216  1.0000
  O   O3        1.0  0.8367855258199697  0.2923079330097026  0.11867383354076105  1.0000
  O   O4        1.0  0.9263232100052079  0.20755460051721997  0.38130958443758783  1.0000
  O   O5        1.0  0.5868170745534655  0.8320777569694473  0.9953814668054406  1.0000
  O   O6        1.0  0.25916362695051715  0.668074527610827  0.5048630639228405  1.0000
  O   O7        1.0  0.413187308041863  0.16792219180457124  0.004617601630236767  1.0000
  O   O8        1.0  0.7408337725842388  0.33192539708712593  0.4951393941444166  1.0000
