data_image0
_chemical_formula_structural       Dy2H32C36N6O16
_chemical_formula_sum              "Dy2 H32 C36 N6 O16"
_cell_length_a       9.452773719283822
_cell_length_b       10.444489111468181
_cell_length_c       10.444502480283877
_cell_angle_alpha    83.26543564852669
_cell_angle_beta     84.5778564078132
_cell_angle_gamma    84.57777169301839

_space_group_name_H-M_alt    "P 1"
_space_group_IT_number       1

loop_
  _space_group_symop_operation_xyz
  'x, y, z'

loop_
  _atom_site_type_symbol
  _atom_site_label
  _atom_site_symmetry_multiplicity
  _atom_site_fract_x
  _atom_site_fract_y
  _atom_site_fract_z
  _atom_site_occupancy
  Dy  Dy1       1.0  0.24999710986370632  0.9743132833543909  0.025690471754359116  1.0000
  Dy  Dy2       1.0  0.7499999627520425  0.025686338124984297  0.974308026184744  1.0000
  H   H1        1.0  0.026066057793855197  0.795589328342331  0.11040754904620086  1.0000
  H   H2        1.0  0.4739355807129114  0.8895889064371119  0.2044038481234836  1.0000
  H   H3        1.0  0.973931384789161  0.20440643056453206  0.8895894403768384  1.0000
  H   H4        1.0  0.5260617673009025  0.11040781999800232  0.7955930396711184  1.0000
  H   H5        1.0  0.17688912816648641  0.7164087689396653  0.15203313560301268  1.0000
  H   H6        1.0  0.32311707910422177  0.8479632154120011  0.28359021961288994  1.0000
  H   H7        1.0  0.8231124480269257  0.28358799313247834  0.8479585856296057  1.0000
  H   H8        1.0  0.6768791983617177  0.15203351436719004  0.7164048478987796  1.0000
  H   H9        1.0  0.9210705326289246  0.5043658470517726  0.8639387708771481  1.0000
  H   H10       1.0  0.5789136768592301  0.13606529412097504  0.49562138866597394  1.0000
  H   H11       1.0  0.0789282028784442  0.49562794329243354  0.136067902204914  1.0000
  H   H12       1.0  0.42107567222571163  0.8639372043383914  0.5043765101010109  1.0000
  H   H13       1.0  0.8034336000522514  0.7238139482451801  0.9013777978101417  1.0000
  H   H14       1.0  0.696550815993554  0.09862836939336721  0.27617224425007697  1.0000
  H   H15       1.0  0.1965654233174661  0.27617693574399743  0.09863013767212443  1.0000
  H   H16       1.0  0.3034336959490035  0.9013799363010974  0.7238206361592676  1.0000
  H   H17       1.0  0.4033025960603993  0.5831796416439518  0.8427362601533446  1.0000
  H   H18       1.0  0.09668165627595467  0.15725922419193952  0.4168131206470989  1.0000
  H   H19       1.0  0.5966981153425763  0.41681517363472403  0.1572576741128132  1.0000
  H   H20       1.0  0.9033098661525116  0.842742356604866  0.5831741575906548  1.0000
  H   H21       1.0  0.539580975658005  0.3690427279308111  0.80249221372862  1.0000
  H   H22       1.0  0.9604044405305461  0.1974982532549775  0.6309495355530431  1.0000
  H   H23       1.0  0.4604248494888098  0.6309540509270662  0.19749912851651893  1.0000
  H   H24       1.0  0.03958844030815102  0.8025004178427083  0.3690408253678471  1.0000
  H   H25       1.0  0.14218358775375614  0.6070505577730787  0.6404116706180574  1.0000
  H   H26       1.0  0.35782263659350383  0.35961419227649577  0.3929666671931927  1.0000
  H   H27       1.0  0.8578290286864957  0.39295388888898947  0.3596040482739015  1.0000
  H   H28       1.0  0.6421924671845717  0.6403970736049941  0.6070394384249981  1.0000
  H   H29       1.0  0.13934579346550888  0.4309789370033101  0.8271110144122676  1.0000
  H   H30       1.0  0.3606611412732549  0.17291161476685352  0.5690339214010011  1.0000
  H   H31       1.0  0.8606693132639479  0.5690216592493585  0.17290204895498115  1.0000
  H   H32       1.0  0.6393508662042038  0.8270986747673346  0.4309716125713265  1.0000
  C   C1        1.0  0.8063665742653823  0.5260441259340496  0.8585944759353198  1.0000
  C   C2        1.0  0.6936186710527749  0.1414135856227006  0.47394827181516075  1.0000
  C   C3        1.0  0.19363322763509672  0.47394966483633977  0.14141305991478256  1.0000
  C   C4        1.0  0.306372128060211  0.8585957052381162  0.5260458535143402  1.0000
  C   C5        1.0  0.7415237237663419  0.6477101495559197  0.879772821889752  1.0000
  C   C6        1.0  0.7584647244725745  0.12022053182896288  0.3522858768296261  1.0000
  C   C7        1.0  0.2584766467526975  0.35228850190348027  0.12022932349679391  1.0000
  C   C8        1.0  0.24152364863368808  0.879781002446222  0.6477103032828566  1.0000
  C   C9        1.0  0.5935306713664305  0.6693234652527806  0.8767161483764739  1.0000
  C   C10       1.0  0.9064524906669931  0.12328223134406358  0.33067652519672225  1.0000
  C   C11       1.0  0.40646642202312216  0.3306761373753133  0.12328713713714731  1.0000
  C   C12       1.0  0.09353146927605142  0.8767211985803557  0.6693255757357832  1.0000
  C   C13       1.0  0.5175877115738247  0.7951703071814223  0.9131441897615178  1.0000
  C   C14       1.0  0.9823991684477634  0.08686260204140692  0.20482573715484884  1.0000
  C   C15       1.0  0.48240560155355183  0.2048244447898924  0.0868590253668415  1.0000
  C   C16       1.0  0.017589415774089928  0.9131476441845406  0.795169433554861  1.0000
  C   C17       1.0  0.5186110483243099  0.5691279197414687  0.8461792316641524  1.0000
  C   C18       1.0  0.9813779149540525  0.15381380082442317  0.4308656135122251  1.0000
  C   C19       1.0  0.48139084481477573  0.4308659095838436  0.1538204545729869  1.0000
  C   C20       1.0  0.01861266473382982  0.8461867856261449  0.5691276061902428  1.0000
  C   C21       1.0  0.593274310073319  0.4508137931201972  0.8244892748743311  1.0000
  C   C22       1.0  0.9067113770542791  0.17550719344941973  0.5491786730864876  1.0000
  C   C23       1.0  0.406731531692536  0.5491829706566591  0.17550589743041914  1.0000
  C   C24       1.0  0.09327699189722688  0.8244943445960264  0.45081654951108874  1.0000
  C   C25       1.0  0.1904456444383413  0.509656149387034  0.6276849845584352  1.0000
  C   C26       1.0  0.309561894521032  0.3723388450020337  0.4903637792326592  1.0000
  C   C27       1.0  0.8095709206286728  0.49035123172657086  0.37232622040114205  1.0000
  C   C28       1.0  0.6904528173125897  0.6276656364447035  0.5096450475612431  1.0000
  C   C29       1.0  0.1874920520059575  0.412418516149515  0.731325016747583  1.0000
  C   C30       1.0  0.31252081984024466  0.268691892215287  0.5876005280210707  1.0000
  C   C31       1.0  0.8125236399610998  0.5875869257111435  0.2686864862157279  1.0000
  C   C32       1.0  0.6874916978760482  0.7313135257452928  0.4124141317275517  1.0000
  C   C33       1.0  0.24999849712328642  0.2889535596841953  0.7110612449257943  1.0000
  C   C34       1.0  0.7500017091859305  0.7110470042101795  0.2889464422932947  1.0000
  C   C35       1.0  0.25000438000257924  0.18131632523688523  0.8186946407857151  1.0000
  C   C36       1.0  0.7500077946360832  0.8186813822335068  0.18131230910312016  1.0000
  N   N1        1.0  0.734503875549848  0.42850311227438465  0.8330922256364846  1.0000
  N   N2        1.0  0.7654834312163176  0.16690313337839063  0.5714914483841513  1.0000
  N   N3        1.0  0.26550101516590263  0.5714926646967485  0.16690697310318114  1.0000
  N   N4        1.0  0.23450716093584842  0.8330974417614032  0.42850464386302894  1.0000
  N   N5        1.0  0.2500039984219455  0.49132625112334694  0.508690124553084  1.0000
  N   N6        1.0  0.7500108942405463  0.5086763028073806  0.4913169904678868  1.0000
  O   O1        1.0  0.38216788607588364  0.803976503204936  0.9246605997593917  1.0000
  O   O2        1.0  0.11782219691671969  0.07533395123478213  0.19601872484003022  1.0000
  O   O3        1.0  0.6178298890815342  0.19601542706171662  0.07532626351345331  1.0000
  O   O4        1.0  0.8821703002870364  0.9246579278876369  0.8039762722863771  1.0000
  O   O5        1.0  0.592414953290607  0.8839643182059053  0.9337922090516957  1.0000
  O   O6        1.0  0.9075763017713995  0.06621452074509898  0.11602621301582872  1.0000
  O   O7        1.0  0.4075804105180795  0.1160313908352606  0.0662155025290119  1.0000
  O   O8        1.0  0.09241630902736381  0.9337977074851624  0.8839607153303181  1.0000
  O   O9        1.0  0.1564225106721508  0.18708496863867202  0.9147148800058604  1.0000
  O   O10       1.0  0.34358022892190826  0.08529292228617888  0.8129210365002635  1.0000
  O   O11       1.0  0.843584044138595  0.8129156430558525  0.0852864936426059  1.0000
  O   O12       1.0  0.6564280210282405  0.9147009472987689  0.18707425119605156  1.0000
  O   O13       1.0  0.12275645084059052  0.8053278404842319  0.1347816528751906  1.0000
  O   O14       1.0  0.37724473371316963  0.8652137624248937  0.19466959700755376  1.0000
  O   O15       1.0  0.8772441452193861  0.19466796117398394  0.8652073921880191  1.0000
  O   O16       1.0  0.6227538573678616  0.13478104069065466  0.8053254842672433  1.0000
