data_image0
_chemical_formula_structural       CdH36C34S2N4O8
_chemical_formula_sum              "Cd1 H36 C34 S2 N4 O8"
_cell_length_a       7.633932493078183
_cell_length_b       9.092257448032548
_cell_length_c       12.613198810224953
_cell_angle_alpha    92.82731222016915
_cell_angle_beta     91.34397540081092
_cell_angle_gamma    111.63559798886448

_space_group_name_H-M_alt    "P 1"
_space_group_IT_number       1

loop_
  _space_group_symop_operation_xyz
  'x, y, z'

loop_
  _atom_site_type_symbol
  _atom_site_label
  _atom_site_symmetry_multiplicity
  _atom_site_fract_x
  _atom_site_fract_y
  _atom_site_fract_z
  _atom_site_occupancy
  Cd  Cd1       1.0  0.49999913836345655  0.4999978598631997  0.5000003836881675  1.0000
  H   H1        1.0  0.22446595206255887  0.7067450169543077  0.4405704824941452  1.0000
  H   H2        1.0  0.7755287000972259  0.29324828381874823  0.5594269737369757  1.0000
  H   H3        1.0  0.2482957069401124  0.9024285095863006  0.9946635979940269  1.0000
  H   H4        1.0  0.7516900205543919  0.09756237631695795  0.005335204232352502  1.0000
  H   H5        1.0  0.7881705169203812  0.8078438654512539  0.3590012401756084  1.0000
  H   H6        1.0  0.2118299999412159  0.192160171296905  0.6410029858783872  1.0000
  H   H7        1.0  0.0244092995263614  0.1017306988054756  0.3155260983427226  1.0000
  H   H8        1.0  0.9756024663238988  0.898283983934995  0.6844707251510088  1.0000
  H   H9        1.0  0.6883212507165692  0.0668801001952275  0.3166522883312481  1.0000
  H   H10       1.0  0.3116811834387363  0.9331192024532837  0.6833494559582576  1.0000
  H   H11       1.0  0.39526112508287536  0.9020050910545123  0.1672808823790177  1.0000
  H   H12       1.0  0.6047318658031032  0.09799645464110539  0.832715199547785  1.0000
  H   H13       1.0  0.019535076078028624  0.3197949424485386  0.8422721701109098  1.0000
  H   H14       1.0  0.9804651109268789  0.6801960503364839  0.1577269084378159  1.0000
  H   H15       1.0  0.47263537294516317  0.7759961497442162  0.8438164398775854  1.0000
  H   H16       1.0  0.527361603312265  0.2239995459491126  0.1561827165047589  1.0000
  H   H17       1.0  0.07467844337937629  0.3167511344913904  0.03696558743244789  1.0000
  H   H18       1.0  0.925323037079295  0.683239889484966  0.9630358950471561  1.0000
  H   H19       1.0  0.4039453716478505  0.13498143082023262  0.3845957075055892  1.0000
  H   H20       1.0  0.5960578722100538  0.8650166889429372  0.615405224388617  1.0000
  H   H21       1.0  0.20327005494256398  0.9781369244279926  0.42406628673601426  1.0000
  H   H22       1.0  0.7967308089176371  0.021864693883316  0.575931531785848  1.0000
  H   H23       1.0  0.5304282670826267  0.7690668738832114  0.03666314674421049  1.0000
  H   H24       1.0  0.46957550963653466  0.23093240984874086  0.9633354509179454  1.0000
  H   H25       1.0  0.8729010123157008  0.10072395635340567  0.143806908517746  1.0000
  H   H26       1.0  0.12710283145025156  0.8992907038792735  0.8561937289391466  1.0000
  H   H27       1.0  0.2599356923662555  0.4223208395751712  0.19733028669879357  1.0000
  H   H28       1.0  0.7400657111451777  0.5776760993444157  0.80267216137036  1.0000
  H   H29       1.0  0.2709065050439392  0.6199945429801446  0.2118145305120365  1.0000
  H   H30       1.0  0.7290977764735656  0.3800059333536793  0.7881849046656343  1.0000
  H   H31       1.0  0.4806316220599244  0.5831298452408475  0.1936026873629544  1.0000
  H   H32       1.0  0.5193734551287293  0.4168694625241756  0.8063975212931994  1.0000
  H   H33       1.0  0.09027182970418576  0.3533773669943016  0.3994470198634019  1.0000
  H   H34       1.0  0.9097250555745475  0.6466242579587984  0.6005546879822674  1.0000
  H   H35       1.0  0.12004909125471384  0.3581316382589889  0.5246474229919897  1.0000
  H   H36       1.0  0.8799522493409313  0.6418712012872803  0.47535440479293817  1.0000
  C   C1        1.0  0.045961927969443594  0.0007898761092305999  0.0525994532244027  1.0000
  C   C2        1.0  0.9540338497181723  0.9992153000581678  0.9474039239904714  1.0000
  C   C3        1.0  0.3656552243069627  0.7676310082913247  0.4143123568556177  1.0000
  C   C4        1.0  0.6343406443593409  0.23236823861629563  0.5856884688959242  1.0000
  C   C5        1.0  0.21953689836828258  0.00036784553949329964  0.2550735908552326  1.0000
  C   C6        1.0  0.7804631487735918  0.9996349628154347  0.7449258329988099  1.0000
  C   C7        1.0  0.19604778695780567  0.947226955423396  0.0637460135777488  1.0000
  C   C8        1.0  0.8039456946950665  0.052775797190648184  0.9362524917383368  1.0000
  C   C9        1.0  0.6570349070004083  0.8257692237586908  0.3701686970136748  1.0000
  C   C10       1.0  0.3429603588731283  0.1742347669651068  0.6298346356225792  1.0000
  C   C11       1.0  0.0718658983605707  0.0557103617619816  0.24498429649394637  1.0000
  C   C12       1.0  0.92814036048172  0.9443007641312064  0.7550154896508516  1.0000
  C   C13       1.0  0.3020391646654019  0.5436271486089551  0.051633625170659087  1.0000
  C   C14       1.0  0.6979680367267918  0.45637098598724185  0.9483657962104175  1.0000
  C   C15       1.0  0.6086606740153897  0.9522764339473963  0.3465320271873225  1.0000
  C   C16       1.0  0.39133699290303525  0.04772403675343641  0.6534720400106053  1.0000
  C   C17       1.0  0.2806285200127548  0.9461813296677448  0.1627729239933657  1.0000
  C   C18       1.0  0.719362914383815  0.0538166811718881  0.8372254030082544  1.0000
  C   C19       1.0  0.12889903809173117  0.4191303369148257  0.8854833203953447  1.0000
  C   C20       1.0  0.8711087310146012  0.5808630896565604  0.1145175587854581  1.0000
  C   C21       1.0  0.382710146365433  0.6766322100201448  0.8866345188492276  1.0000
  C   C22       1.0  0.6172950077704583  0.3233611828016477  0.11336472421737652  1.0000
  C   C23       1.0  0.16128103018863976  0.4178388846024602  0.9946255744251644  1.0000
  C   C24       1.0  0.8387259151836446  0.5821557391708153  0.005377703024720396  1.0000
  C   C25       1.0  0.31084334551514553  0.011278476215572698  0.3642097177752888  1.0000
  C   C26       1.0  0.6891565017326257  0.9887207640502635  0.635787218652446  1.0000
  C   C27       1.0  0.4142107465719106  0.672068289581105  0.995291109304219  1.0000
  C   C28       1.0  0.5857946144738123  0.32792866417150895  0.004709828251797907  1.0000
  C   C29       1.0  0.9866491921586444  0.0554898437950939  0.1463554232992479  1.0000
  C   C30       1.0  0.013349677460603036  0.9445224235590858  0.8536458425766611  1.0000
  C   C31       1.0  0.23846874240387447  0.550061101385232  0.8321507806470761  1.0000
  C   C32       1.0  0.7615377472801369  0.44993227967826493  0.16784610872907277  1.0000
  C   C33       1.0  0.330398894619961  0.5415202076652149  0.16951704094610423  1.0000
  C   C34       1.0  0.6696043773008497  0.45847788346486595  0.8304807192005512  1.0000
  S   S1        1.0  0.19556313496592284  0.5604695722920282  0.6946550011537695  1.0000
  S   S2        1.0  0.8044361724048767  0.43952851116329567  0.3053450624429104  1.0000
  N   N1        1.0  0.5045339414749889  0.7120737140352703  0.4129555621203096  1.0000
  N   N2        1.0  0.4954611525673513  0.28792667996633975  0.5870421113420861  1.0000
  N   N3        1.0  0.4235492557812036  0.9132223148255035  0.374986601158021  1.0000
  N   N4        1.0  0.5764466269165567  0.08677691776557589  0.6250126387197454  1.0000
  O   O1        1.0  0.3828589863901612  0.6155017386987538  0.6473545780798206  1.0000
  O   O2        1.0  0.6171355259065904  0.38450337764421494  0.35264322345661003  1.0000
  O   O3        1.0  0.10506769620575081  0.6777917705154621  0.6857418579355966  1.0000
  O   O4        1.0  0.8949214278988932  0.32219799488512274  0.31426093975724717  1.0000
  O   O5        1.0  0.07176313049627943  0.3999079396373801  0.6530802788999353  1.0000
  O   O6        1.0  0.928239822488834  0.600092541296462  0.3469207170312956  1.0000
  O   O7        1.0  0.17692130721741253  0.3447941146354339  0.45660808703275535  1.0000
  O   O8        1.0  0.8230771904507819  0.6552051517052389  0.5433927889592169  1.0000
