data_image0
_chemical_formula_structural       Zn16H16C96S24Cl16O76
_chemical_formula_sum              "Zn16 H16 C96 S24 Cl16 O76"
_cell_length_a       19.586619205444038
_cell_length_b       19.71916344394858
_cell_length_c       33.20653820818018
_cell_angle_alpha    79.09800393875516
_cell_angle_beta     79.49110771316919
_cell_angle_gamma    64.07985486962498

_space_group_name_H-M_alt    "P 1"
_space_group_IT_number       1

loop_
  _space_group_symop_operation_xyz
  'x, y, z'

loop_
  _atom_site_type_symbol
  _atom_site_label
  _atom_site_symmetry_multiplicity
  _atom_site_fract_x
  _atom_site_fract_y
  _atom_site_fract_z
  _atom_site_occupancy
  Zn  Zn1       1.0  0.056571184236098304  0.3979160807053006  0.4796997342677115  1.0000
  Zn  Zn2       1.0  0.9874904160413467  0.480052277285367  0.5608191960510495  1.0000
  Zn  Zn3       1.0  0.0563494621912071  0.5623405491468958  0.4814471537944199  1.0000
  Zn  Zn4       1.0  0.9020805993800424  0.5561138329809481  0.47910977377378566  1.0000
  Zn  Zn5       1.0  0.6907614246643234  0.34921501131220395  0.27273830272287103  1.0000
  Zn  Zn6       1.0  0.6879550304659362  0.1903228217382705  0.2672787173202806  1.0000
  Zn  Zn7       1.0  0.7714513828934884  0.26512027648403363  0.19047781534537478  1.0000
  Zn  Zn8       1.0  0.8483614639186285  0.1957415841586965  0.27071164891771815  1.0000
  Zn  Zn9       1.0  0.2684164393742989  0.764316148712247  0.6891011348608272  1.0000
  Zn  Zn10      1.0  0.35271492617639677  0.6970632758561383  0.7694088613724757  1.0000
  Zn  Zn11      1.0  0.1903663924051102  0.8473593926264869  0.7714133525579072  1.0000
  Zn  Zn12      1.0  0.1903319900352116  0.6909698020228063  0.7686819882826724  1.0000
  Zn  Zn13      1.0  0.556210801263127  0.06547673443274252  0.9827714062417812  1.0000
  Zn  Zn14      1.0  0.4017707462485803  0.0561018291998536  0.9757059722712569  1.0000
  Zn  Zn15      1.0  0.5575604101251627  0.9007576068326913  0.9806722852712609  1.0000
  Zn  Zn16      1.0  0.4817673421604384  0.9814238614507644  0.059386825865153973  1.0000
  H   H1        1.0  0.7480967209887622  0.45067555955321853  0.3494302634566394  1.0000
  H   H2        1.0  0.00047715796143419986  0.3013177005715306  0.40053618854661005  1.0000
  H   H3        1.0  0.199828438052613  0.7013238325900629  0.6013709811119909  1.0000
  H   H4        1.0  0.049554178768794095  0.5489323213099909  0.6489482329795634  1.0000
  H   H5        1.0  0.64917579339879  0.1484284913429264  0.04921343359350057  1.0000
  H   H6        1.0  0.601479749102694  0.1002398641928864  0.2009941193335294  1.0000
  H   H7        1.0  0.30197680477752437  0.9988861037312731  0.9007288297364653  1.0000
  H   H8        1.0  0.44909594347060994  0.7494897797314123  0.8491138963323832  1.0000
  H   H9        1.0  0.8431368729853689  0.5727968390185012  0.39967678311968763  1.0000
  H   H10       1.0  0.9644958547111032  0.23808043259292327  0.2914537107763593  1.0000
  H   H11       1.0  0.0695821004397956  0.6871881205878837  0.513619287822408  1.0000
  H   H12       1.0  0.0633636218145455  0.6772840437385952  0.7371327359991752  1.0000
  H   H13       1.0  0.7952093734565722  0.17705439930224304  0.12160894346888537  1.0000
  H   H14       1.0  0.5697355844917668  0.9568298201378481  0.12936020805645398  1.0000
  H   H15       1.0  0.1775064919709735  0.906266090641829  0.8499244902446745  1.0000
  H   H16       1.0  0.516589175552788  0.7844817129291928  0.957837589697803  1.0000
  C   C1        1.0  0.06251211907348161  0.3139707891142436  0.5631173796795039  1.0000
  C   C2        1.0  0.06572913756919971  0.5736971722772852  0.5681410902221273  1.0000
  C   C3        1.0  0.1817191068429551  0.44057404508170345  0.4393757830971552  1.0000
  C   C4        1.0  0.935156281902216  0.6864612977243074  0.4380699408071108  1.0000
  C   C5        1.0  0.9334650452163373  0.4337390187626866  0.4288850399688755  1.0000
  C   C6        1.0  0.8205062545261158  0.5591534084005045  0.5619331971031442  1.0000
  C   C7        1.0  0.563646117502266  0.3099616878389214  0.31204029974060177  1.0000
  C   C8        1.0  0.6873536096158334  0.17569520004151665  0.18078264630011628  1.0000
  C   C9        1.0  0.6898810878398508  0.43071634326665265  0.18856144103352787  1.0000
  C   C10       1.0  0.9377696069366693  0.1867835232502983  0.18898499562286017  1.0000
  C   C11       1.0  0.8201727545010797  0.3229777605039107  0.3162149014569451  1.0000
  C   C12       1.0  0.8115011425521814  0.06857799286770223  0.31106129757412754  1.0000
  C   C13       1.0  0.43550958713212407  0.6902445032040776  0.6860485818552461  1.0000
  C   C14       1.0  0.3157625133601911  0.8181546576283906  0.8205510332204611  1.0000
  C   C15       1.0  0.18758813777608913  0.9304512836479972  0.688699649492939  1.0000
  C   C16       1.0  0.0637712949464344  0.8090059449965424  0.8129291648903346  1.0000
  C   C17       1.0  0.17630844417622876  0.6838126291597888  0.6822072155528501  1.0000
  C   C18       1.0  0.315735410975357  0.5685969032499256  0.809942097511012  1.0000
  C   C19       1.0  0.4346059260317788  0.187348588478649  0.9378002865404935  1.0000
  C   C20       1.0  0.4316717074046323  0.9268401332064756  0.9328195302083627  1.0000
  C   C21       1.0  0.6813544465332485  0.9430102350310036  0.9397924785378463  1.0000
  C   C22       1.0  0.5613355671883441  0.8147524777450955  0.06311614236716415  1.0000
  C   C23       1.0  0.5713648388840228  0.06484996703365901  0.06949206632754823  1.0000
  C   C24       1.0  0.31671977374059423  0.060853733469663523  0.05885728333801408  1.0000
  C   C25       1.0  0.8997753867777617  0.4067389451178301  0.40142917780491416  1.0000
  C   C26       1.0  0.8506378028766335  0.34710241243414697  0.3467028580206772  1.0000
  C   C27       1.0  0.8272375984218955  0.4480405775939717  0.38721125158642167  1.0000
  C   C28       1.0  0.9219028237274787  0.30450781630192836  0.3622242424200266  1.0000
  C   C29       1.0  0.8041024541251717  0.4180660467045956  0.36024940359655483  1.0000
  C   C30       1.0  0.9452686200106086  0.33473811342830145  0.38892241840120073  1.0000
  C   C31       1.0  0.0978351864352973  0.6015427240451958  0.5959255717407571  1.0000
  C   C32       1.0  0.14851794630530432  0.651707247348469  0.6544120733982622  1.0000
  C   C33       1.0  0.1416762028882701  0.6441632025746956  0.5827823891929853  1.0000
  C   C34       1.0  0.10653118587057259  0.6072460555944659  0.6675569465390508  1.0000
  C   C35       1.0  0.1659643575135163  0.6685483525753713  0.6119006197311093  1.0000
  C   C36       1.0  0.08187753865685471  0.5832405582930348  0.6384254663844401  1.0000
  C   C37       1.0  0.3031787666851216  0.4551366615369546  0.40138232917254146  1.0000
  C   C38       1.0  0.4421433852669523  0.295635568385137  0.35010799740845033  1.0000
  C   C39       1.0  0.2563001204942879  0.41663529252368653  0.41451108751594024  1.0000
  C   C40       1.0  0.4889205281612376  0.33416378952009756  0.33679832942880233  1.0000
  C   C41       1.0  0.3742111212966464  0.3399948747890421  0.3735087308288739  1.0000
  C   C42       1.0  0.370841941871042  0.4109353458508451  0.3776835091406666  1.0000
  C   C43       1.0  0.7286341000435286  0.576219024220997  0.6296426918171106  1.0000
  C   C44       1.0  0.5272742265893129  0.6717220501376602  0.6181401274209719  1.0000
  C   C45       1.0  0.7459796906414482  0.5831801359993635  0.5868306543659755  1.0000
  C   C46       1.0  0.5098925383516645  0.6646862572307768  0.6609439981342432  1.0000
  C   C47       1.0  0.6072022923377745  0.6388950528429053  0.6067322551696249  1.0000
  C   C48       1.0  0.6487467953216779  0.6081163011771267  0.6410064825350972  1.0000
  C   C49       1.0  0.07879203122337938  0.22234598118637192  0.6312163561832023  1.0000
  C   C50       1.0  0.1734664214952275  0.022124414847759514  0.6207486887770344  1.0000
  C   C51       1.0  0.08719275310566128  0.23974775892634176  0.5883954700576125  1.0000
  C   C52       1.0  0.1649456681017369  0.004719381912842409  0.6635737184174103  1.0000
  C   C53       1.0  0.1424942863083416  0.1016029431093983  0.6090233531302474  1.0000
  C   C54       1.0  0.11086461407675331  0.14282280724803806  0.6430205404904895  1.0000
  C   C55       1.0  0.841189143330638  0.8038188646175826  0.3959467307657363  1.0000
  C   C56       1.0  0.9055759065325902  0.9512852359985687  0.35326724127905607  1.0000
  C   C57       1.0  0.9096701662702671  0.7609723612693317  0.4131879524982337  1.0000
  C   C58       1.0  0.8372560217336372  0.9938828790695742  0.3358272806989858  1.0000
  C   C59       1.0  0.9070160524405395  0.8816989570290094  0.3750095242498189  1.0000
  C   C60       1.0  0.839983547359907  0.8730732482645038  0.3738801486846198  1.0000
  C   C61       1.0  0.6567799966483606  0.15102132722815031  0.1505797697862477  1.0000
  C   C62       1.0  0.5971272113272051  0.09440418355691091  0.09964171776638853  1.0000
  C   C63       1.0  0.6687630108332456  0.16543452013930723  0.10719025314327267  1.0000
  C   C64       1.0  0.5829061843210894  0.08223181462474125  0.1430202276816033  1.0000
  C   C65       1.0  0.6393281418230715  0.13700807497161102  0.08263953928732799  1.0000
  C   C66       1.0  0.6128424380906097  0.11014584340259867  0.16757212411502556  1.0000
  C   C67       1.0  0.6741442917265559  0.5225413438036315  0.12041360540308689  1.0000
  C   C68       1.0  0.5767306837182105  0.7228261009855361  0.13109231020389697  1.0000
  C   C69       1.0  0.6654181333622943  0.5049411523616246  0.16323099199263416  1.0000
  C   C70       1.0  0.5858421725223054  0.7404598342628934  0.08829454376925835  1.0000
  C   C71       1.0  0.6093174590885226  0.6432742942146703  0.14278295546638733  1.0000
  C   C72       1.0  0.642037301495158  0.6021725968467282  0.10879192398377305  1.0000
  C   C73       1.0  0.08546810656446271  0.12412085704369963  0.17715821226809675  1.0000
  C   C74       1.0  0.1690582232526054  0.12421813061102678  0.0708392590889488  1.0000
  C   C75       1.0  0.0125273538811399  0.16185818573015354  0.16437503292831926  1.0000
  C   C76       1.0  0.24199010609352464  0.08680916534758151  0.08360469891754718  1.0000
  C   C77       1.0  0.1119754164344755  0.13816795224227724  0.1050436630563496  1.0000
  C   C78       1.0  0.1426103992603629  0.1108257967802686  0.14294944361324718  1.0000
  C   C79       1.0  0.34353083312287674  0.8501951810420608  0.8484357321048603  1.0000
  C   C80       1.0  0.4060813065404574  0.8966972802074411  0.9029124292306888  1.0000
  C   C81       1.0  0.3026138967839742  0.921709033687023  0.8629482141207416  1.0000
  C   C82       1.0  0.44789131060037596  0.82609774781632  0.8874909873390989  1.0000
  C   C83       1.0  0.3340984785914713  0.9435690596015082  0.8897625652258865  1.0000
  C   C84       1.0  0.416253109327009  0.804041608695478  0.8608433518879152  1.0000
  C   C85       1.0  0.40833475913705547  0.45103090605702806  0.8527762519725427  1.0000
  C   C86       1.0  0.3419466848916741  0.30495560029455515  0.8950102130486498  1.0000
  C   C87       1.0  0.3407963529216431  0.49386614216612673  0.8346890127910028  1.0000
  C   C88       1.0  0.4096611811667259  0.2619280550962061  0.9129174427329544  1.0000
  C   C89       1.0  0.3416934663369773  0.37385170715145943  0.8728695664544119  1.0000
  C   C90       1.0  0.4087907305737489  0.3819374853314487  0.8746361111633758  1.0000
  C   C91       1.0  0.9409665441458233  0.7963123712936453  0.8502416096577362  1.0000
  C   C92       1.0  0.8039047792683789  0.9557672084450677  0.9021148600093196  1.0000
  C   C93       1.0  0.9889533531655418  0.8336872717136361  0.8375667798093359  1.0000
  C   C94       1.0  0.7557927231937712  0.9185423650815848  0.9146836922232281  1.0000
  C   C95       1.0  0.8712680855477544  0.9112290082032363  0.8784005350273957  1.0000
  C   C96       1.0  0.8731661692513839  0.841174270781828  0.8736143341862643  1.0000
  S   S1        1.0  0.2948729591245041  0.32703337355268763  0.3979633066489042  1.0000
  S   S2        1.0  0.4498830069564548  0.4241085124616151  0.35290509084282456  1.0000
  S   S3        1.0  0.6649695259483294  0.6280549546676186  0.5606543330399771  1.0000
  S   S4        1.0  0.5909221454430522  0.61813596507033  0.6870581522297101  1.0000
  S   S5        1.0  0.13411775133557313  0.15924182369268886  0.5627524701440692  1.0000
  S   S6        1.0  0.1198470736545971  0.08519081687472863  0.6893012296183443  1.0000
  S   S7        1.0  0.9720649007020798  0.8053232302306556  0.40244856953439967  1.0000
  S   S8        1.0  0.7754207974636742  0.9489476273093372  0.34592924968819005  1.0000
  S   S9        1.0  0.6182006461731149  0.5853684416841319  0.1889993512052967  1.0000
  S   S10       1.0  0.6340314983215053  0.6600177818651074  0.06259141737004371  1.0000
  S   S11       1.0  0.0139132992200715  0.18091092393292743  0.11082018934482107  1.0000
  S   S12       1.0  0.24070851408260552  0.06931343600653152  0.13715546781491378  1.0000
  S   S13       1.0  0.2783935994189903  0.4496123608903917  0.8442080288171424  1.0000
  S   S14       1.0  0.4725628965321249  0.305640171846548  0.9027616120934141  1.0000
  S   S15       1.0  0.9512115693573622  0.9232293595550517  0.8541151306233487  1.0000
  S   S16       1.0  0.7926586142556361  0.8297377325875959  0.8973879869656185  1.0000
  S   S17       1.0  0.756458439899312  0.536969323903229  0.4038236624372117  1.0000
  S   S18       1.0  0.9854998768339698  0.20826855609922765  0.35296417578415873  1.0000
  S   S19       1.0  0.1755874364551318  0.6656918700488177  0.5297574580880919  1.0000
  S   S20       1.0  0.08613178470351811  0.5721687658432373  0.72056024702497  1.0000
  S   S21       1.0  0.7149727923796406  0.22497873728637777  0.07950357751434468  1.0000
  S   S22       1.0  0.5221233646719838  0.03728505205661753  0.1706469746755133  1.0000
  S   S23       1.0  0.21245933025940641  0.9928061017333933  0.8469012493777509  1.0000
  S   S24       1.0  0.5446697890398795  0.7618201523326251  0.8968472468019896  1.0000
  Cl  Cl1       1.0  0.2854075557438662  0.5432199525605625  0.4113104232305815  1.0000
  Cl  Cl2       1.0  0.46002860581795346  0.20715207722422252  0.34050564375044695  1.0000
  Cl  Cl3       1.0  0.7918790842995876  0.5350547170658332  0.6655077757644107  1.0000
  Cl  Cl4       1.0  0.4639526532199554  0.7133286535632378  0.5823559951114348  1.0000
  Cl  Cl5       1.0  0.03654406179106931  0.28505152776770604  0.6666942144437726  1.0000
  Cl  Cl6       1.0  0.21532155456850433  0.9593584045498251  0.5852562771624007  1.0000
  Cl  Cl7       1.0  0.7668647356748082  0.7793479178335829  0.39926791440853276  1.0000
  Cl  Cl8       1.0  0.9797615414398849  0.975790241345294  0.34999420503956447  1.0000
  Cl  Cl9       1.0  0.7168966809723614  0.459929045963719  0.08502647120721459  1.0000
  Cl  Cl10      1.0  0.5338510021503282  0.7855539750936771  0.16651294756482568  1.0000
  Cl  Cl11      1.0  0.10730027754770081  0.09668711573026914  0.22669254647838946  1.0000
  Cl  Cl12      1.0  0.1469268243138373  0.15195532424923644  0.02130737161026989  1.0000
  Cl  Cl13      1.0  0.483060432328422  0.4747703105044252  0.8500991947593516  1.0000
  Cl  Cl14      1.0  0.26704208620126485  0.2814676229098652  0.8978502864213664  1.0000
  Cl  Cl15      1.0  0.95736348279965  0.7089765090918974  0.8395909078852739  1.0000
  Cl  Cl16      1.0  0.7877030375480842  0.043292199295727626  0.9124956667682439  1.0000
  O   O1        1.0  0.0013780526661833002  0.4975957568068026  0.5002289880845368  1.0000
  O   O2        1.0  0.0813128249421595  0.31295800837803267  0.5240546182781357  1.0000
  O   O3        1.0  0.04921845271246641  0.5181532545475704  0.5835849596848915  1.0000
  O   O4        1.0  0.15550589667380174  0.5042016270058199  0.45351948166138095  1.0000
  O   O5        1.0  0.0246927216121193  0.3726620336745229  0.5817839876093345  1.0000
  O   O6        1.0  0.14954580027121273  0.3945611860796133  0.444621627668532  1.0000
  O   O7        1.0  0.0548798014177976  0.6080046789049119  0.5313444645365664  1.0000
  O   O8        1.0  0.0036349157197932006  0.6586483205410332  0.44773637094084506  1.0000
  O   O9        1.0  0.9075898336345034  0.5054653957398687  0.4304791499636522  1.0000
  O   O10       1.0  0.8883679202847717  0.6553900821756782  0.44818511447346043  1.0000
  O   O11       1.0  0.987493220153745  0.3832303758718893  0.44813609523918524  1.0000
  O   O12       1.0  0.8798399356820353  0.5328932427588383  0.5807994993970453  1.0000
  O   O13       1.0  0.8187231581636567  0.567646860703363  0.5227500012237839  1.0000
  O   O14       1.0  0.7479203309322884  0.2511601987150129  0.25056885539046897  1.0000
  O   O15       1.0  0.5919633716036473  0.3593777594462537  0.30281324594853487  1.0000
  O   O16       1.0  0.6538331468509142  0.17804149640372197  0.2172428857903625  1.0000
  O   O17       1.0  0.7205395005255327  0.37172327945270933  0.16977637379554977  1.0000
  O   O18       1.0  0.5940240322044872  0.2428144512092062  0.3019271175201225  1.0000
  O   O19       1.0  0.6778364754922208  0.43235482685999227  0.22777765505308875  1.0000
  O   O20       1.0  0.7458753051190002  0.19094377806916185  0.16870564079903258  1.0000
  O   O21       1.0  0.8797653503824918  0.22440172383512205  0.1686588430247014  1.0000
  O   O22       1.0  0.8677075968290423  0.27329963785711453  0.292868669675812  1.0000
  O   O23       1.0  0.9358470359765578  0.16944723527032568  0.22807832603414363  1.0000
  O   O24       1.0  0.7486497636060321  0.35506142928185375  0.3146992141947321  1.0000
  O   O25       1.0  0.7482212928080897  0.09094719109439373  0.29590803718421194  1.0000
  O   O26       1.0  0.8533751317757635  0.10469096494686884  0.30680780456751217  1.0000
  O   O27       1.0  0.2512268009528356  0.749958685962952  0.749702198989091  1.0000
  O   O28       1.0  0.3759907986543923  0.7276735974369263  0.6673796012691469  1.0000
  O   O29       1.0  0.366495370536903  0.7660406116123116  0.8006571077493303  1.0000
  O   O30       1.0  0.1772025463175027  0.9316724361035328  0.7279429081113731  1.0000
  O   O31       1.0  0.437300355369004  0.6723898821318528  0.7252065679356647  1.0000
  O   O32       1.0  0.2146615978997488  0.8718275838369537  0.669807605388165  1.0000
  O   O33       1.0  0.24351076139931394  0.8433161928045791  0.8191844814788068  1.0000
  O   O34       1.0  0.09218029383558961  0.8583695697471826  0.8032917853851558  1.0000
  O   O35       1.0  0.14290550580082592  0.6927873056894855  0.7191439068228718  1.0000
  O   O36       1.0  0.09465597549086621  0.741552711425193  0.8031295334456842  1.0000
  O   O37       1.0  0.23083981264844775  0.7021418805879236  0.6666222796934845  1.0000
  O   O38       1.0  0.3584348174455059  0.6039295090876706  0.8049113759453518  1.0000
  O   O39       1.0  0.251422315254807  0.5917249176436813  0.7956960228391877  1.0000
  O   O40       1.0  0.49960067286813375  0.0013344931786320867  0.9992575259054702  1.0000
  O   O41       1.0  0.502395092459288  0.15998162560220677  0.9483430648807952  1.0000
  O   O42       1.0  0.3992886392700754  0.9980391566160947  0.9337124816108185  1.0000
  O   O43       1.0  0.6486996974227991  0.8974546998662305  0.9447398754863982  1.0000
  O   O44       1.0  0.3879358882602659  0.15610912560372012  0.9468325329934472  1.0000
  O   O45       1.0  0.655948360792955  0.005915243467335081  0.9545563249333426  1.0000
  O   O46       1.0  0.48239152352392267  0.8799142246338504  0.9562085696399976  1.0000
  O   O47       1.0  0.5822487627457349  0.8139709292566125  0.024154808485192795  1.0000
  O   O48       1.0  0.5559628576794609  0.006692630988325785  0.08172183334467317  1.0000
  O   O49       1.0  0.5215184979141655  0.8736462901797781  0.08143437705846414  1.0000
  O   O50       1.0  0.5684020994060148  0.09873637788072653  0.03299751283559261  1.0000
  O   O51       1.0  0.3180563632787353  0.06712546274420114  0.019809264035529798  1.0000
  O   O52       1.0  0.37466755445566957  0.033181216900992246  0.07939848733944638  1.0000
  O   O53       1.0  0.7960088292902441  0.5932222483996131  0.38518401009651626  1.0000
  O   O54       1.0  0.6913729841832463  0.561200708079042  0.3819916007521157  1.0000
  O   O55       1.0  0.748928344564007  0.5278334928555142  0.4482328858353028  1.0000
  O   O56       1.0  0.012612268106707302  0.2186465684277722  0.30493635425539617  1.0000
  O   O57       1.0  0.05184095509201821  0.185228686730845  0.3735586481079238  1.0000
  O   O58       1.0  0.9406004264077339  0.16465009910194084  0.3611429872510428  1.0000
  O   O59       1.0  0.0980754071192607  0.7200277827548619  0.5106343311916177  1.0000
  O   O60       1.0  0.21578496732556124  0.7117740960548106  0.5288808236447905  1.0000
  O   O61       1.0  0.21168662525914783  0.5954761635040741  0.5118550328178627  1.0000
  O   O62       1.0  0.030925280782859912  0.648508640449073  0.7397002605520555  1.0000
  O   O63       1.0  0.0404602008560815  0.5315825657614255  0.72121257188126  1.0000
  O   O64       1.0  0.1569957340913533  0.5365927502921509  0.7386226138255693  1.0000
  O   O65       1.0  0.8001515987497215  0.1782735370378531  0.09080456031745847  1.0000
  O   O66       1.0  0.7182909219765178  0.2235780600665437  0.036184292410204884  1.0000
  O   O67       1.0  0.6795350548742719  0.2956592681610388  0.09694519376198224  1.0000
  O   O68       1.0  0.5685427460596202  0.9523419631825759  0.160117339524497  1.0000
  O   O69       1.0  0.5235080584999566  0.03409750140051666  0.21397417638746666  1.0000
  O   O70       1.0  0.45116300003775933  0.07289891894664888  0.15266094274065975  1.0000
  O   O71       1.0  0.1565684086339445  0.9524874958282017  0.8647863061791979  1.0000
  O   O72       1.0  0.1884111509444466  0.05599258570238419  0.869572167736308  1.0000
  O   O73       1.0  0.22058816908320722  0.0028064731430816983  0.8024765939711357  1.0000
  O   O74       1.0  0.5349996239978695  0.736182805433103  0.9451382874073743  1.0000
  O   O75       1.0  0.5658167965228813  0.6955700056853403  0.8772235148352009  1.0000
  O   O76       1.0  0.5896100561604953  0.8054327636630987  0.8876248423270923  1.0000
