data_image0
_chemical_formula_structural       Zn2H28C28N4O8
_chemical_formula_sum              "Zn2 H28 C28 N4 O8"
_cell_length_a       7.938132107322565
_cell_length_b       9.066051745879825
_cell_length_c       10.657066560906827
_cell_angle_alpha    109.5482335470784
_cell_angle_beta     100.17155300188512
_cell_angle_gamma    100.70366876288946

_space_group_name_H-M_alt    "P 1"
_space_group_IT_number       1

loop_
  _space_group_symop_operation_xyz
  'x, y, z'

loop_
  _atom_site_type_symbol
  _atom_site_label
  _atom_site_symmetry_multiplicity
  _atom_site_fract_x
  _atom_site_fract_y
  _atom_site_fract_z
  _atom_site_occupancy
  Zn  Zn1       1.0  0.16317092121822435  0.9826129591038112  0.6509100976216047  1.0000
  Zn  Zn2       1.0  0.8368305107955792  0.0173907741154835  0.3490899843672892  1.0000
  H   H1        1.0  0.984748586830129  0.6244366352243986  0.4915031775906442  1.0000
  H   H2        1.0  0.01525083948532568  0.3755646692561854  0.5084987572335108  1.0000
  H   H3        1.0  0.9657614834230799  0.3997756796074299  0.2751388317716703  1.0000
  H   H4        1.0  0.03424013222712571  0.6002243844756734  0.7248639734182731  1.0000
  H   H5        1.0  0.3562701201900893  0.7444557598023281  0.19904909977683632  1.0000
  H   H6        1.0  0.6437305843143052  0.2555455377642275  0.8009520631243701  1.0000
  H   H7        1.0  0.35616508598730695  0.9461598010577819  0.4145235109901862  1.0000
  H   H8        1.0  0.6438314300608354  0.053840325653645514  0.5854748868694272  1.0000
  H   H9        1.0  0.3428325836419717  0.343969162768488  0.8103670203396263  1.0000
  H   H10       1.0  0.657172310962892  0.6560333100247178  0.18963597072541216  1.0000
  H   H11       1.0  0.3546695632172004  0.5677687426950443  0.027052187556904604  1.0000
  H   H12       1.0  0.6453346038782541  0.43223129444541547  0.9729518844204393  1.0000
  H   H13       1.0  0.9508446214584653  0.22913745919842649  0.09378244073067778  1.0000
  H   H14       1.0  0.04915754651549515  0.7708601666894239  0.9062197365708613  1.0000
  H   H15       1.0  0.9587085145050835  0.022619299983695412  0.8734187162246768  1.0000
  H   H16       1.0  0.04129146906676333  0.9773795794162153  0.12657978007778337  1.0000
  H   H17       1.0  0.675492482080685  0.6414773408016218  0.6144289087331173  1.0000
  H   H18       1.0  0.3245085927552723  0.3585251920774014  0.3855679662008741  1.0000
  H   H19       1.0  0.5051448886872763  0.7059503199256696  0.5295261268281095  1.0000
  H   H20       1.0  0.4948554586392717  0.2940497773006072  0.4704718290181873  1.0000
  H   H21       1.0  0.6016193209595998  0.5627242663907879  0.43002974465056093  1.0000
  H   H22       1.0  0.3983835860332618  0.43727582575047563  0.5699647935943162  1.0000
  H   H23       1.0  0.4278692324111759  0.716338851805894  0.8929631010926827  1.0000
  H   H24       1.0  0.5721269182380483  0.2836600527076386  0.10703677410084822  1.0000
  H   H25       1.0  0.5965053924616442  0.90390627955604  0.9603074049953407  1.0000
  H   H26       1.0  0.40349167591024576  0.0960914089601346  0.0396903649758684  1.0000
  H   H27       1.0  0.5907197548812136  0.753983766522346  0.8024776732732732  1.0000
  H   H28       1.0  0.4092760353017368  0.24601392890785698  0.19752086862088453  1.0000
  C   C1        1.0  0.06426505868810034  0.6440556612505046  0.4222499376917384  1.0000
  C   C2        1.0  0.9357340071610736  0.3559444341467568  0.5777506638330435  1.0000
  C   C3        1.0  0.055134084786679735  0.5187980361855652  0.3006422937433229  1.0000
  C   C4        1.0  0.9448649794182841  0.48120205484017486  0.6993592446592204  1.0000
  C   C5        1.0  0.15951762668323974  0.5489812195625918  0.21353877025347864  1.0000
  C   C6        1.0  0.8404836268564823  0.4510176310656605  0.7864636385148601  1.0000
  C   C7        1.0  0.26959390373620823  0.706563404929753  0.2572978513189881  1.0000
  C   C8        1.0  0.7304013374114148  0.2934367374387534  0.7426994447080375  1.0000
  C   C9        1.0  0.2704740490065021  0.8243455656504112  0.38093429073163076  1.0000
  C   C10       1.0  0.7295211921411207  0.17565457671809537  0.6190630052953949  1.0000
  C   C11       1.0  0.2605835045040621  0.3250128465914059  0.8782402444812546  1.0000
  C   C12       1.0  0.7394193909793073  0.6749872149491836  0.12176085190797185  1.0000
  C   C13       1.0  0.2648142183839539  0.44895584457211873  0.999119087081297  1.0000
  C   C14       1.0  0.7351886738109885  0.5510442082254272  0.0008838830634659926  1.0000
  C   C15       1.0  0.15477372464121686  0.4196925427866489  0.08259032563365312  1.0000
  C   C16       1.0  0.8452288037990171  0.580306292184524  0.9174131849672663  1.0000
  C   C17       1.0  0.04195594764612312  0.26236498730917657  0.03610536151438744  1.0000
  C   C18       1.0  0.95804567129251  0.7376350855169705  0.9638955699200267  1.0000
  C   C19       1.0  0.045663198101180996  0.14518332661705097  0.9133081428293437  1.0000
  C   C20       1.0  0.954340248061726  0.8548142923567711  0.08669326254925394  1.0000
  C   C21       1.0  0.7656052644693432  0.8072956379344948  0.5193450226567651  1.0000
  C   C22       1.0  0.2343948909997309  0.19270810657035753  0.48065489437731657  1.0000
  C   C23       1.0  0.6295817479659149  0.6705090733469419  0.5247622875081959  1.0000
  C   C24       1.0  0.37041968733630887  0.3294946686154034  0.4752359207251686  1.0000
  C   C25       1.0  0.38968192654179756  0.8808495566742851  0.7891938842580332  1.0000
  C   C26       1.0  0.6103122266301427  0.11914694095815999  0.21080315938193192  1.0000
  C   C27       1.0  0.5067696195523155  0.8081897160097213  0.8660260866366515  1.0000
  C   C28       1.0  0.49322908747479494  0.19180917467573985  0.1339722447109892  1.0000
  N   N1        1.0  0.16861204419993206  0.7953863451236174  0.46264971519595116  1.0000
  N   N2        1.0  0.8313861055707857  0.20461497064252399  0.5373520546733843  1.0000
  N   N3        1.0  0.15364173905128808  0.17442425793496602  0.8353453130757913  1.0000
  N   N4        1.0  0.8463624346210211  0.8255757966915952  0.16465501139050087  1.0000
  O   O1        1.0  0.8970637666578583  0.883964055652612  0.6235335339296384  1.0000
  O   O2        1.0  0.10293511391069642  0.11603970450931912  0.3764652812718552  1.0000
  O   O3        1.0  0.4590593996573348  0.9853331860789613  0.7456345507693812  1.0000
  O   O4        1.0  0.5409369444935805  0.014662075527517995  0.254362426358604  1.0000
  O   O5        1.0  0.22056743196785794  0.8341836924837838  0.769558018287519  1.0000
  O   O6        1.0  0.779428354926658  0.1658139942033685  0.23044239736216093  1.0000
  O   O7        1.0  0.7359244308729629  0.8346423891857597  0.40894641476520394  1.0000
  O   O8        1.0  0.26407444640716454  0.16536136223312073  0.5910542741918192  1.0000
