data_image0
_chemical_formula_structural       Zn2H30C48N2O8
_chemical_formula_sum              "Zn2 H30 C48 N2 O8"
_cell_length_a       11.0431609690876
_cell_length_b       18.26452631651598
_cell_length_c       19.70560234235359
_cell_angle_alpha    90.09421685067872
_cell_angle_beta     90.01466792948624
_cell_angle_gamma    90.1108162095083

_space_group_name_H-M_alt    "P 1"
_space_group_IT_number       1

loop_
  _space_group_symop_operation_xyz
  'x, y, z'

loop_
  _atom_site_type_symbol
  _atom_site_label
  _atom_site_symmetry_multiplicity
  _atom_site_fract_x
  _atom_site_fract_y
  _atom_site_fract_z
  _atom_site_occupancy
  Zn  Zn1       1.0  0.5000824158964151  0.42370147888347276  0.4997147755921889  1.0000
  Zn  Zn2       1.0  0.5003732721145937  0.576138267710739  0.5009442162634417  1.0000
  H   H1        1.0  0.8878094871448637  0.5652688065581017  0.5834837862186151  1.0000
  H   H2        1.0  0.3071054488784029  0.9322010276219073  0.481528891161503  1.0000
  H   H3        1.0  0.36329620610876395  0.8286773675550235  0.4211108436893981  1.0000
  H   H4        1.0  0.636063158796567  0.8302069307357056  0.5787403421578505  1.0000
  H   H5        1.0  0.36836357680066095  0.6916371107698253  0.42592045971471054  1.0000
  H   H6        1.0  0.6320456565490034  0.6931159428948772  0.574665557707988  1.0000
  H   H7        1.0  0.7736870206691364  0.431145843584872  0.3838218187044618  1.0000
  H   H8        1.0  0.22525718026766842  0.4328534839567623  0.3822329592502386  1.0000
  H   H9        1.0  0.8853867426484072  0.37776488188834617  0.2874793564140178  1.0000
  H   H10       1.0  0.1119263884156609  0.37860905728323496  0.28658306875813383  1.0000
  H   H11       1.0  0.4915201521312866  0.6168661390129485  0.2828907036289508  1.0000
  H   H12       1.0  0.11461090480990781  0.5656338389817889  0.5827798564438  1.0000
  H   H13       1.0  0.4943245748857592  0.6170033188451497  0.7180422506015065  1.0000
  H   H14       1.0  0.49112430875455004  0.6175725427150525  0.15607121951929068  1.0000
  H   H15       1.0  0.49297171243040344  0.617087184741514  0.84485209382315  1.0000
  H   H16       1.0  0.5034682893812175  0.38183469372997786  0.15560570776246865  1.0000
  H   H17       1.0  0.5060560021398999  0.3813867314815909  0.8436695769810786  1.0000
  H   H18       1.0  0.5037006885668801  0.3824344589223472  0.2823839122433399  1.0000
  H   H19       1.0  0.5075124773887083  0.3826049237339575  0.716857217196193  1.0000
  H   H20       1.0  0.6361945360606143  0.4168107855094902  0.06319561246135662  1.0000
  H   H21       1.0  0.6370328082620348  0.41647095242341686  0.9376014309932618  1.0000
  H   H22       1.0  0.359679899166423  0.5817109271436963  0.936843477839425  1.0000
  H   H23       1.0  0.36625375714682923  0.307191194371299  0.4263355655447968  1.0000
  H   H24       1.0  0.3587392795341202  0.582037543270765  0.062442146561082316  1.0000
  H   H25       1.0  0.632517100174887  0.30753641055186154  0.573756150906114  1.0000
  H   H26       1.0  0.3620367574006451  0.1702517958223808  0.42152739174851944  1.0000
  H   H27       1.0  0.6371719432450433  0.17053596451786038  0.5778951082120403  1.0000
  H   H28       1.0  0.6922114022799447  0.06761421268723919  0.5175007801418874  1.0000
  H   H29       1.0  0.3071600662807583  0.0671508053910301  0.4815509232344015  1.0000
  H   H30       1.0  0.6921385056470939  0.9326848148658512  0.5175787133834719  1.0000
  C   C1        1.0  0.5022103918858959  0.5003515681717587  0.6338801113972254  1.0000
  C   C2        1.0  0.5015774244068609  0.4998310784272702  0.7099579328477648  1.0000
  C   C3        1.0  0.5739378835694707  0.45223288266852535  0.03554549633408042  1.0000
  C   C4        1.0  0.5744190533590654  0.45202828243208854  0.9649345221887349  1.0000
  C   C5        1.0  0.4985430789001341  0.49912365575202955  0.9280181017684089  1.0000
  C   C6        1.0  0.4975415323587953  0.499542259212255  0.07204808935127015  1.0000
  C   C7        1.0  0.42198816637818487  0.5463403752801382  0.9645210532914849  1.0000
  C   C8        1.0  0.42148980503391453  0.5465433079299231  0.03512389466443012  1.0000
  C   C9        1.0  0.42475139164128  0.2741267234573144  0.4586438333289069  1.0000
  C   C10       1.0  0.5742933057568607  0.2743077770062143  0.5412119373944722  1.0000
  C   C11       1.0  0.42236518810952367  0.1981276031679968  0.45695271572545  1.0000
  C   C12       1.0  0.49787855051702923  0.4992017681288985  0.3661502622945819  1.0000
  C   C13       1.0  0.5768945097932487  0.19830810076081923  0.5425627199920842  1.0000
  C   C14       1.0  0.4996562360488355  0.1581797532088913  0.49967304824701864  1.0000
  C   C15       1.0  0.7371541932413024  0.5000955040767606  0.4974821013318549  1.0000
  C   C16       1.0  0.2634029489796035  0.5006724361134047  0.4964406153513752  1.0000
  C   C17       1.0  0.6071216120758436  0.03810786699823859  0.5106698714867408  1.0000
  C   C18       1.0  0.3921926863621579  0.03783717391351619  0.4884654053043181  1.0000
  C   C19       1.0  0.6070813341653575  0.9619941172446216  0.5107159737253043  1.0000
  C   C20       1.0  0.3921660514031799  0.9617113378840898  0.4884734531036942  1.0000
  C   C21       1.0  0.49958923486423146  0.9223814547035329  0.49965812339885235  1.0000
  C   C22       1.0  0.4996656230763818  0.07743732548583888  0.49959428305474074  1.0000
  C   C23       1.0  0.4972121096050515  0.4997042326072004  0.14694142745876357  1.0000
  C   C24       1.0  0.4232101027861788  0.8011759019160323  0.4568048845879674  1.0000
  C   C25       1.0  0.576468239552632  0.8020128213670928  0.5431358034533745  1.0000
  C   C26       1.0  0.426049704650751  0.7251741623072263  0.45850701173318964  1.0000
  C   C27       1.0  0.5743014270952003  0.7260116153551409  0.5417909416825426  1.0000
  C   C28       1.0  0.49970495949436616  0.8416301738498433  0.49984839287982674  1.0000
  C   C29       1.0  0.8722887126989605  0.4318813097558091  0.38360849550692694  1.0000
  C   C30       1.0  0.1266126327227255  0.4325444647949368  0.3828254794250371  1.0000
  C   C31       1.0  0.9350305711920797  0.4016208509151298  0.3300050772852644  1.0000
  C   C32       1.0  0.06306883921422468  0.4019916840357141  0.329565356116973  1.0000
  C   C33       1.0  0.0650033815881912  0.4650044035619983  0.4386557539392515  1.0000
  C   C34       1.0  0.49953288411133917  0.4992195536250179  0.8531299068720348  1.0000
  C   C35       1.0  0.9347259784185908  0.46476141689717565  0.4390223166698848  1.0000
  C   C36       1.0  0.8727008257931743  0.5005149662753183  0.4933482702272302  1.0000
  C   C37       1.0  0.1278727967377193  0.500893123420951  0.4926495125888979  1.0000
  C   C38       1.0  0.9370798931316459  0.5370278917519042  0.5432835929020359  1.0000
  C   C39       1.0  0.06443867036286119  0.5372340482092993  0.5429361811467788  1.0000
  C   C40       1.0  0.49306056996253744  0.5657800093815055  0.2542441385379349  1.0000
  C   C41       1.0  0.496546258586534  0.5657958500778263  0.7463170914043646  1.0000
  C   C42       1.0  0.492392332398758  0.5657846037217168  0.18363013027109795  1.0000
  C   C43       1.0  0.49500199242844184  0.5654554399664916  0.8168994125064946  1.0000
  C   C44       1.0  0.5019963176610744  0.43359199986894476  0.18336093040832685  1.0000
  C   C45       1.0  0.5050467696260129  0.4332889840178494  0.816272779663166  1.0000
  C   C46       1.0  0.5013977305108952  0.4335370497514218  0.253935420225787  1.0000
  C   C47       1.0  0.505401150897363  0.4335670694141669  0.7456611420468564  1.0000
  C   C48       1.0  0.49723638339666826  0.49964735610034683  0.2901049685771896  1.0000
  N   N1        1.0  0.4994769667012946  0.31152655202019014  0.5000169222785262  1.0000
  N   N2        1.0  0.5003963293630066  0.6882951741780445  0.5002214486551184  1.0000
  O   O1        1.0  0.5031190509565207  0.438496145980686  0.603768842629208  1.0000
  O   O2        1.0  0.4983213929527254  0.4366897050040208  0.3949567728638358  1.0000
  O   O3        1.0  0.501470515197866  0.5627571103336209  0.6050271652214436  1.0000
  O   O4        1.0  0.4981929969991725  0.5609531865517283  0.39635475561178896  1.0000
  O   O5        1.0  0.6849045356050708  0.4378781529414227  0.49718553518163605  1.0000
  O   O6        1.0  0.3155483192716416  0.4385650534149477  0.49672643067931704  1.0000
  O   O7        1.0  0.6853670778581743  0.5621320918111365  0.5016607441169185  1.0000
  O   O8        1.0  0.3152285605417902  0.5628504023718575  0.5002125215261587  1.0000
