data_image0
_chemical_formula_structural       Cd2H30C38Br2N4O8
_chemical_formula_sum              "Cd2 H30 C38 Br2 N4 O8"
_cell_length_a       8.398346893008624
_cell_length_b       11.499747011519647
_cell_length_c       11.529254453632534
_cell_angle_alpha    100.3341270308246
_cell_angle_beta     104.48358304069261
_cell_angle_gamma    99.8697392390134

_space_group_name_H-M_alt    "P 1"
_space_group_IT_number       1

loop_
  _space_group_symop_operation_xyz
  'x, y, z'

loop_
  _atom_site_type_symbol
  _atom_site_label
  _atom_site_symmetry_multiplicity
  _atom_site_fract_x
  _atom_site_fract_y
  _atom_site_fract_z
  _atom_site_occupancy
  Cd  Cd1       1.0  0.384261006024694  0.18940134022332702  0.20982620518491052  1.0000
  Cd  Cd2       1.0  0.6157545825880391  0.8106044198963075  0.7901729339669573  1.0000
  H   H1        1.0  0.1419257171963721  0.021136052589213295  0.9606239878477966  1.0000
  H   H2        1.0  0.8580806583852549  0.9788727229606452  0.039388594169977906  1.0000
  H   H3        1.0  0.040099241841438996  0.8053446941099835  0.8478862616727485  1.0000
  H   H4        1.0  0.9598821035415314  0.19466373961098066  0.1521317459796165  1.0000
  H   H5        1.0  0.8284628678232338  0.39793569589377137  0.7446109468701751  1.0000
  H   H6        1.0  0.17153367408379688  0.6020576398066382  0.2553788792937652  1.0000
  H   H7        1.0  0.4358038762893274  0.5899953862055725  0.9103389806561992  1.0000
  H   H8        1.0  0.5641815675964921  0.41002289478898746  0.08966067130325679  1.0000
  H   H9        1.0  0.02557322889049369  0.19683515724752706  0.7575269985438738  1.0000
  H   H10       1.0  0.9744548415512214  0.8031685857009025  0.2424855363064041  1.0000
  H   H11       1.0  0.1004059100010508  0.23508859736775628  0.6334672886640363  1.0000
  H   H12       1.0  0.8996234531459636  0.7649151040402915  0.3665428909861817  1.0000
  H   H13       1.0  0.8888952624364919  0.23901611488365399  0.6324662168545032  1.0000
  H   H14       1.0  0.11112386170033538  0.7609722406593707  0.36753589154572114  1.0000
  H   H15       1.0  0.9150268902428776  0.611627923174062  0.8710669171276634  1.0000
  H   H16       1.0  0.08495080930013897  0.38836125872163046  0.1289237052505143  1.0000
  H   H17       1.0  0.5348697158036727  0.9483777492747338  0.21412066774464486  1.0000
  H   H18       1.0  0.4651358962544521  0.05161725392156309  0.7858755627361519  1.0000
  H   H19       1.0  0.4580359111075369  0.7283024220542348  0.10714271225145218  1.0000
  H   H20       1.0  0.5419477885125303  0.27169032779676894  0.8928557653535307  1.0000
  H   H21       1.0  0.3263436872356421  0.37809735277641465  0.7806824979408091  1.0000
  H   H22       1.0  0.67365942552523  0.6219250959207727  0.2193143940033337  1.0000
  H   H23       1.0  0.7274968404606952  0.556082579986338  0.5040864413664465  1.0000
  H   H24       1.0  0.272523224529877  0.4439158385949398  0.4959227529463988  1.0000
  H   H25       1.0  0.999178329354663  0.30133735852219706  0.37119530743442647  1.0000
  H   H26       1.0  0.0008376904374785136  0.698656573624568  0.6288123346987647  1.0000
  H   H27       1.0  0.12191438365188387  0.906617355854557  0.6706431889763921  1.0000
  H   H28       1.0  0.8780750249368836  0.09338342105047556  0.32934388382735585  1.0000
  H   H29       1.0  0.3038502395321674  0.9923091360926863  0.5500609231368615  1.0000
  H   H30       1.0  0.6961388350712028  0.0076870684561427954  0.4499235784886437  1.0000
  C   C1        1.0  0.20547032949995275  0.9522302191951441  0.9915317109408833  1.0000
  C   C2        1.0  0.7945273652209437  0.047775093594154286  0.008481181451109918  1.0000
  C   C3        1.0  0.14903567326106779  0.8310853083421748  0.9293745726842317  1.0000
  C   C4        1.0  0.8509426467458353  0.1689176790780422  0.07063758403229052  1.0000
  C   C5        1.0  0.9604009640203229  0.4452415023420997  0.7843027935732821  1.0000
  C   C6        1.0  0.03958049143371059  0.5547402468717308  0.21567950796052324  1.0000
  C   C7        1.0  0.3000509007626775  0.5505478679208906  0.8778369077845625  1.0000
  C   C8        1.0  0.6999436371175136  0.44947207504105796  0.12216828469151146  1.0000
  C   C9        1.0  0.18381174526713548  0.6188117504171943  0.9017300326811084  1.0000
  C   C10       1.0  0.816162934876921  0.38118665658409884  0.09826588725191956  1.0000
  C   C11       1.0  0.0183975924547468  0.2547773594073419  0.6911978188328902  1.0000
  C   C12       1.0  0.9816229495808457  0.7452255983591627  0.3088087638568453  1.0000
  C   C13       1.0  0.010871866717614925  0.563235116549123  0.8534024419349677  1.0000
  C   C14       1.0  0.9891115077031001  0.4367704183000641  0.14659552284640398  1.0000
  C   C15       1.0  0.23893828744626677  0.7470012707042597  0.9701189974261765  1.0000
  C   C16       1.0  0.7610409808531813  0.253000773435204  0.029891451934830025  1.0000
  C   C17       1.0  0.42690347685223173  0.9120590060299208  0.13213698997098788  1.0000
  C   C18       1.0  0.5730996347410124  0.08793972874900649  0.8678637147317972  1.0000
  C   C19       1.0  0.38176285845845115  0.7893935616811376  0.07314690991285738  1.0000
  C   C20       1.0  0.6182217313402703  0.21060192656193516  0.9268548069598452  1.0000
  C   C21       1.0  0.24233748872674715  0.4334417072979449  0.8060499141543646  1.0000
  C   C22       1.0  0.7576559965221462  0.5665571939492223  0.19394371814209424  1.0000
  C   C23       1.0  0.8464182406051819  0.42033541447393935  0.42995904621388104  1.0000
  C   C24       1.0  0.15359138999917826  0.5796613947373217  0.5700486903828477  1.0000
  C   C25       1.0  0.8475549977434298  0.5326367212031471  0.5025093560747251  1.0000
  C   C26       1.0  0.1524604181689213  0.4673590559647494  0.4974993455694374  1.0000
  C   C27       1.0  0.999825501246761  0.3881075407618298  0.4280480115822343  1.0000
  C   C28       1.0  0.00018935847233334077  0.6118900703701938  0.571960021972437  1.0000
  C   C29       1.0  0.681883418201977  0.33769312753088343  0.35148923064956955  1.0000
  C   C30       1.0  0.31813759508114703  0.6623043477696413  0.64851825630776  1.0000
  C   C31       1.0  0.0691887124446211  0.9484780510094097  0.5966128005741496  1.0000
  C   C32       1.0  0.9308019039037276  0.0515190358533815  0.40337215320766273  1.0000
  C   C33       1.0  0.10243538782113148  0.04793536847433438  0.4328345096430013  1.0000
  C   C34       1.0  0.8975555118375241  0.952058966098477  0.5671491686721595  1.0000
  C   C35       1.0  0.1709143742595601  0.9960654751344722  0.5298443073989888  1.0000
  C   C36       1.0  0.8290746765005395  0.003930734942848297  0.4701410580267478  1.0000
  C   C37       1.0  0.21309786597707606  0.09719598853989449  0.3605334088644128  1.0000
  C   C38       1.0  0.7869006574607766  0.9027991091008617  0.6394527664103862  1.0000
  Br  Br1       1.0  0.2576775338804467  0.2769208017217508  0.01384935862595431  1.0000
  Br  Br2       1.0  0.7423154773119762  0.7230808960433636  0.9861524595389642  1.0000
  N   N1        1.0  0.3406541971293536  0.9922071482574567  0.09170288997963638  1.0000
  N   N2        1.0  0.6593544641481159  0.007793295711096001  0.9082983276367713  1.0000
  N   N3        1.0  0.07511170635958561  0.38221571734007403  0.7601657761895879  1.0000
  N   N4        1.0  0.9248940308920055  0.617793929620099  0.23983728378075855  1.0000
  O   O1        1.0  0.6838336745726749  0.2350112536550456  0.2875602930196166  1.0000
  O   O2        1.0  0.3161844966417391  0.7649917374357712  0.7124432258681922  1.0000
  O   O3        1.0  0.5460404010503055  0.3742304673466776  0.3485665895623456  1.0000
  O   O4        1.0  0.4539780610928262  0.6257634148902866  0.6514415249720855  1.0000
  O   O5        1.0  0.3580217957568975  0.07482803368350231  0.3743518691829877  1.0000
  O   O6        1.0  0.6419801900339266  0.9251707039363382  0.6256451441182733  1.0000
  O   O7        1.0  0.1530644747760235  0.16033751169278082  0.2854031521409013  1.0000
  O   O8        1.0  0.8469325411874706  0.839653027489682  0.7145784881545866  1.0000
