data_image0
_chemical_formula_structural       Cd2H12C12N4Cl4O2
_chemical_formula_sum              "Cd2 H12 C12 N4 Cl4 O2"
_cell_length_a       7.1012082359913835
_cell_length_b       7.970360566920754
_cell_length_c       9.228078956012785
_cell_angle_alpha    110.75026885632704
_cell_angle_beta     95.63726973727658
_cell_angle_gamma    112.84940011202782

_space_group_name_H-M_alt    "P 1"
_space_group_IT_number       1

loop_
  _space_group_symop_operation_xyz
  'x, y, z'

loop_
  _atom_site_type_symbol
  _atom_site_label
  _atom_site_symmetry_multiplicity
  _atom_site_fract_x
  _atom_site_fract_y
  _atom_site_fract_z
  _atom_site_occupancy
  Cd  Cd1       1.0  0.7263964150475533  0.9718747387718949  0.9017331792073267  1.0000
  Cd  Cd2       1.0  0.2736088348295169  0.028124729217857705  0.09826846713621512  1.0000
  H   H1        1.0  0.7335179850046744  0.003286040408362101  0.33038376655709817  1.0000
  H   H2        1.0  0.2664766806705287  0.9967120564867997  0.6696155983106494  1.0000
  H   H3        1.0  0.03178970740587062  0.3408079113492449  0.42957205746139954  1.0000
  H   H4        1.0  0.9682083502530504  0.6591855871216199  0.5704239794770416  1.0000
  H   H5        1.0  0.22332584577305425  0.5347827549807674  0.7267146018220886  1.0000
  H   H6        1.0  0.776677311453483  0.4652182534229396  0.2732819447955706  1.0000
  H   H7        1.0  0.0982888680825553  0.372092980476161  0.91022294915679  1.0000
  H   H8        1.0  0.9017171758534133  0.6279110209908296  0.08977472711922016  1.0000
  H   H9        1.0  0.5187705231650811  0.7286539993589399  0.27761230266931136  1.0000
  H   H10       1.0  0.48122762757672183  0.27134253484307175  0.7223890064144599  1.0000
  H   H11       1.0  0.3583359861605189  0.5423368908968698  0.3286354180515333  1.0000
  H   H12       1.0  0.6416643862338915  0.45766416206521393  0.6713674395858575  1.0000
  C   C1        1.0  0.7553354269455284  0.006322682875428104  0.5688070716698592  1.0000
  C   C2        1.0  0.24466420050080734  0.9936768628880516  0.43119418551660976  1.0000
  C   C3        1.0  0.8153556374149817  0.08583036974236792  0.4587233151203805  1.0000
  C   C4        1.0  0.18464398563415338  0.9141691750758556  0.5412768577997158  1.0000
  C   C5        1.0  0.9839144372804399  0.27840773398745  0.5150954868994334  1.0000
  C   C6        1.0  0.016082365758911966  0.7215918478271347  0.48490232290937035  1.0000
  C   C7        1.0  0.0895325570044676  0.3852696000760716  0.6783744923475015  1.0000
  C   C8        1.0  0.9104713451701516  0.6147329155262399  0.3216236547210799  1.0000
  C   C9        1.0  0.020772685627569818  0.2958099221069475  0.7811642097440485  1.0000
  C   C10       1.0  0.9792327020459908  0.7041956069473301  0.2188360539599898  1.0000
  C   C11       1.0  0.5752690490157876  0.8004093415123068  0.5224012990672693  1.0000
  C   C12       1.0  0.42473000205940553  0.1995947647338596  0.47760456489341874  1.0000
  N   N1        1.0  0.8572503679634593  0.11186785386684761  0.7272669720405889  1.0000
  N   N2        1.0  0.1427514723410754  0.8881362087661916  0.27273366516674724  1.0000
  N   N3        1.0  0.47994378443265606  0.6835674571942432  0.36568791997562755  1.0000
  N   N4        1.0  0.5200522956446535  0.31643062214799045  0.634313710714146  1.0000
  Cl  Cl1       1.0  0.48195877670479353  0.794112300153273  0.04402069944724463  1.0000
  Cl  Cl2       1.0  0.5180436575597014  0.20588720577809028  0.9559796680513843  1.0000
  Cl  Cl3       1.0  0.0636330509094876  0.24760206819289726  0.14229914520907982  1.0000
  Cl  Cl4       1.0  0.9363708688539562  0.7524004511904254  0.8577033389250062  1.0000
  O   O1        1.0  0.5185719159118918  0.7430485858343232  0.6286000611395368  1.0000
  O   O2        1.0  0.4814263103239684  0.2569509803178391  0.37140218302403843  1.0000
