data_image0
_chemical_formula_structural       Fe2H48C52S4N12
_chemical_formula_sum              "Fe2 H48 C52 S4 N12"
_cell_length_a       13.046771660316024
_cell_length_b       13.474425632034388
_cell_length_c       13.328035417576872
_cell_angle_alpha    75.91801718288548
_cell_angle_beta     60.71113878219782
_cell_angle_gamma    61.95186617264575

_space_group_name_H-M_alt    "P 1"
_space_group_IT_number       1

loop_
  _space_group_symop_operation_xyz
  'x, y, z'

loop_
  _atom_site_type_symbol
  _atom_site_label
  _atom_site_symmetry_multiplicity
  _atom_site_fract_x
  _atom_site_fract_y
  _atom_site_fract_z
  _atom_site_occupancy
  Fe  Fe1       1.0  0.9997356428958003  0.011296921720678345  0.9929078192610488  1.0000
  Fe  Fe2       1.0  0.008772940211130823  0.4884455064433124  0.5026384606950316  1.0000
  H   H1        1.0  0.2230577975707818  0.5698691040423466  0.8993651938112562  1.0000
  H   H2        1.0  0.7792923356238435  0.10034200976443236  0.43257957714209977  1.0000
  H   H3        1.0  0.6883342980485954  0.93018501631564  0.6041501056160854  1.0000
  H   H4        1.0  0.3098971686797611  0.396232797012658  0.0713684114772732  1.0000
  H   H5        1.0  0.7794173085783954  0.4213533512514188  0.1019418446333873  1.0000
  H   H6        1.0  0.21721256279878548  0.8983914114059812  0.5763617853976157  1.0000
  H   H7        1.0  0.304712942509184  0.07742646299711708  0.3959962540046859  1.0000
  H   H8        1.0  0.6939670658087637  0.6038340335215933  0.922113294200031  1.0000
  H   H9        1.0  0.2079102311645472  0.7626124007176428  0.891266254026867  1.0000
  H   H10       1.0  0.7955886367561648  0.11084958116335016  0.23710457145259056  1.0000
  H   H11       1.0  0.8595313131806112  0.7408825951902926  0.608228398889004  1.0000
  H   H12       1.0  0.1412922503309845  0.3863432496144767  0.2660028069288813  1.0000
  H   H13       1.0  0.7954577566402535  0.23053378711867367  0.1056174709755666  1.0000
  H   H14       1.0  0.2005033049789945  0.8970912273994782  0.7695180146376472  1.0000
  H   H15       1.0  0.13537033603181917  0.26557825120443806  0.3925469127111967  1.0000
  H   H16       1.0  0.8709922063098362  0.603344275669926  0.7295266493791245  1.0000
  H   H17       1.0  0.8306921272046213  0.6845707344478029  0.1645272987836606  1.0000
  H   H18       1.0  0.16419603788591536  0.8349824841411079  0.3120642901284256  1.0000
  H   H19       1.0  0.678832862136119  0.8116716901807237  0.33731529244354863  1.0000
  H   H20       1.0  0.3125276391933199  0.6654223592571852  0.18963117279717068  1.0000
  H   H21       1.0  0.16880647912662997  0.31283807135295644  0.8324467681583627  1.0000
  H   H22       1.0  0.8352034393614006  0.16755427740314113  0.6879547303774984  1.0000
  H   H23       1.0  0.3149502022286229  0.19282559919492565  0.6640313243746334  1.0000
  H   H24       1.0  0.6872807084279133  0.33243522247166607  0.8118229939490931  1.0000
  H   H25       1.0  0.13003004494429862  0.4326717255541651  0.007224773968928799  1.0000
  H   H26       1.0  0.8687398878701843  0.9909731768878415  0.5715099930419214  1.0000
  H   H27       1.0  0.5721725435454488  0.06611554473587937  0.49358447754926255  1.0000
  H   H28       1.0  0.43030041896476934  0.5067049156762097  0.9307792372052716  1.0000
  H   H29       1.0  0.8695913711666706  0.5619851138003112  0.9950467722307719  1.0000
  H   H30       1.0  0.13141555306983577  0.005001642906847781  0.433187879535339  1.0000
  H   H31       1.0  0.42298172105364545  0.9392966584912655  0.5053013969143763  1.0000
  H   H32       1.0  0.5697116515604038  0.4968411812402848  0.0659995190673541  1.0000
  H   H33       1.0  0.9763722356917057  0.47320435569152863  0.12757916629018948  1.0000
  H   H34       1.0  0.02128804586686086  0.8740935081463163  0.5275659528264782  1.0000
  H   H35       1.0  0.5803266111512004  0.024003674233838944  0.37305628454421935  1.0000
  H   H36       1.0  0.4234376983321443  0.6250992352120688  0.9737475844731377  1.0000
  H   H37       1.0  0.022743697008159914  0.5231643669968945  0.8743292913523034  1.0000
  H   H38       1.0  0.9795137000835867  0.12234539361218574  0.47455330267505497  1.0000
  H   H39       1.0  0.4152199544553526  0.9804519677702358  0.626082547350272  1.0000
  H   H40       1.0  0.5751521756354805  0.3779905076432897  0.0255177261367692  1.0000
  H   H41       1.0  0.8286373466102079  0.8761733997715809  0.13906033621294256  1.0000
  H   H42       1.0  0.16833376304742856  0.862141329361627  0.11783428240641308  1.0000
  H   H43       1.0  0.8440161535379362  0.6232660579074077  0.35932344932710686  1.0000
  H   H44       1.0  0.14907737044161715  0.6390857685791429  0.3832941772983246  1.0000
  H   H45       1.0  0.1720591398581278  0.12324810668900445  0.8503215662058209  1.0000
  H   H46       1.0  0.831241756514217  0.1526684402791077  0.8795777278427721  1.0000
  H   H47       1.0  0.14940461022857943  0.37985221626757937  0.6453649588564829  1.0000
  H   H48       1.0  0.861310805124255  0.3467240631112532  0.6203755179664583  1.0000
  C   C1        1.0  0.027743602777903355  0.6104775693872851  0.0337457258348621  1.0000
  C   C2        1.0  0.9708949757071539  0.9658571325403356  0.3894658223714628  1.0000
  C   C3        1.0  0.6689412142377977  0.8880181142780046  0.4691482734892958  1.0000
  C   C4        1.0  0.3268812309623004  0.5322427531678713  0.11276480899627467  1.0000
  C   C5        1.0  0.9731580332865664  0.3847603648873201  0.9658689069414663  1.0000
  C   C6        1.0  0.027391064480028107  0.034396275467401004  0.6143294912093182  1.0000
  C   C7        1.0  0.32592501899493  0.1170751196813313  0.5311391916371235  1.0000
  C   C8        1.0  0.6749070514590656  0.4669626044108596  0.8849156458734058  1.0000
  C   C9        1.0  0.13393127724624782  0.6345681029155869  0.9558400912475449  1.0000
  C   C10       1.0  0.8671712973156716  0.04424781340764361  0.366058656023398  1.0000
  C   C11       1.0  0.7208807094172232  0.8653281225754839  0.5467158628212943  1.0000
  C   C12       1.0  0.2764603536813085  0.453204131978687  0.1372440330274713  1.0000
  C   C13       1.0  0.8686394449045807  0.3583897054493192  0.043399407379624194  1.0000
  C   C14       1.0  0.12967361846867964  0.9575127264225002  0.6403625966014701  1.0000
  C   C15       1.0  0.27308722686267833  0.14134822446572312  0.4540422407904146  1.0000
  C   C16       1.0  0.7284813547193851  0.5440296089608126  0.8584858963464868  1.0000
  C   C17       1.0  0.7018241527825992  0.1024796122363014  0.1030689678797003  1.0000
  C   C18       1.0  0.29777801345445454  0.9007268198775265  0.8954056356589389  1.0000
  C   C19       1.0  0.9090518327838668  0.394256060750699  0.39605820276326387  1.0000
  C   C20       1.0  0.09389547658933861  0.6029420219205618  0.6047412000208325  1.0000
  C   C21       1.0  0.12549285925435064  0.7424691594351457  0.9491513461201889  1.0000
  C   C22       1.0  0.8763267635027746  0.05235130018716918  0.25642656133234  1.0000
  C   C23       1.0  0.8149585557751637  0.7591272616637779  0.5510600195164344  1.0000
  C   C24       1.0  0.18369249625246922  0.4453720047487265  0.24684171174154557  1.0000
  C   C25       1.0  0.8772417954909385  0.2510664963153317  0.04770656689950669  1.0000
  C   C26       1.0  0.12067614009502878  0.9547128781247664  0.7488856364341316  1.0000
  C   C27       1.0  0.1795044325952804  0.2474787768421506  0.4497299188739844  1.0000
  C   C28       1.0  0.8264219103535951  0.545747381912598  0.7502175347435198  1.0000
  C   C29       1.0  0.9163493885436156  0.6986103385663539  0.10200465379138987  1.0000
  C   C30       1.0  0.08040249935758954  0.897983800595824  0.29882360338222463  1.0000
  C   C31       1.0  0.7150813044731308  0.7992514150018689  0.3998800970076317  1.0000
  C   C32       1.0  0.27815015201002063  0.6012962503545225  0.20308868019838394  1.0000
  C   C33       1.0  0.08369006237901297  0.298042091940978  0.895000387529926  1.0000
  C   C34       1.0  0.9186139242812886  0.10586220924520982  0.7024722498698992  1.0000
  C   C35       1.0  0.27895359585087226  0.205414081860141  0.6012531407532293  1.0000
  C   C36       1.0  0.7247719436481577  0.3945830842787287  0.7971101637872948  1.0000
  C   C37       1.0  0.030026890396264706  0.4972727987567892  0.0386964641243992  1.0000
  C   C38       1.0  0.9687773217386069  0.9607680687024783  0.5038292534987718  1.0000
  C   C39       1.0  0.5661273935969007  0.00128118439175744  0.4626909758071703  1.0000
  C   C40       1.0  0.4334594124530255  0.5378892228653454  0.9977725176081194  1.0000
  C   C41       1.0  0.9698834717662098  0.49791467588922705  0.9629151557165869  1.0000
  C   C42       1.0  0.030946917875297728  0.03610639666074177  0.5000701684123996  1.0000
  C   C43       1.0  0.42912470915182155  0.0038112044428047333  0.5365837991964142  1.0000
  C   C44       1.0  0.5663676360061844  0.46472142574451414  0.9997419718911758  1.0000
  C   C45       1.0  0.9142353588681122  0.804971815048681  0.0890935000248376  1.0000
  C   C46       1.0  0.08369243684497718  0.9119482336411335  0.19073592565844416  1.0000
  C   C47       1.0  0.8075343786743545  0.6944849525406481  0.41069875937339617  1.0000
  C   C48       1.0  0.18666220730425218  0.5878871101151403  0.3112210986922506  1.0000
  C   C49       1.0  0.0868786364944044  0.19210735695462225  0.9037730200638306  1.0000
  C   C50       1.0  0.9151831648466313  0.0986705308156813  0.8095222858875388  1.0000
  C   C51       1.0  0.18616557877777506  0.31020437844883725  0.592187112015516  1.0000
  C   C52       1.0  0.822156471779934  0.4012623891040333  0.6902115580683983  1.0000
  S   S1        1.0  0.5453374297623341  0.15929223384578953  0.1659899778055944  1.0000
  S   S2        1.0  0.4536817831526393  0.8336755054495695  0.839502043440632  1.0000
  S   S3        1.0  0.8683769718513833  0.3381944768436328  0.3346480542270811  1.0000
  S   S4        1.0  0.12553212945434225  0.670020552715826  0.6639091476563266  1.0000
  N   N1        1.0  0.017041027088495905  0.8268129607278353  0.0134678321943085  1.0000
  N   N2        1.0  0.9835271308318669  0.9887739951504952  0.1690598829528085  1.0000
  N   N3        1.0  0.8571427021121139  0.6743931729401638  0.48503382806691764  1.0000
  N   N4        1.0  0.13999831641946517  0.5099697962477592  0.33450264672431723  1.0000
  N   N5        1.0  0.9854942143329525  0.1667004849711588  0.9802341357357063  1.0000
  N   N6        1.0  0.014387499544135176  0.023245481648316992  0.8344514988178344  1.0000
  N   N7        1.0  0.1361980448449814  0.3333102390136489  0.5164108742856754  1.0000
  N   N8        1.0  0.8732126560271355  0.47635237698754906  0.665229860773195  1.0000
  N   N9        1.0  0.81695627558193  0.062330090135866115  0.0584176793371896  1.0000
  N   N10       1.0  0.1829714834035414  0.9482320940640889  0.9351913654549691  1.0000
  N   N11       1.0  0.9417618826076223  0.43401290389138586  0.4398310234931913  1.0000
  N   N12       1.0  0.06749350454470714  0.555181884234173  0.5626702493528909  1.0000
