data_image0
_chemical_formula_structural       Zn8H36C60O26
_chemical_formula_sum              "Zn8 H36 C60 O26"
_cell_length_a       20.722757922984897
_cell_length_b       20.09257667390845
_cell_length_c       23.026567500478173
_cell_angle_alpha    90.00624665261765
_cell_angle_beta     119.84106743712923
_cell_angle_gamma    117.33623179375502

_space_group_name_H-M_alt    "P 1"
_space_group_IT_number       1

loop_
  _space_group_symop_operation_xyz
  'x, y, z'

loop_
  _atom_site_type_symbol
  _atom_site_label
  _atom_site_symmetry_multiplicity
  _atom_site_fract_x
  _atom_site_fract_y
  _atom_site_fract_z
  _atom_site_occupancy
  Zn  Zn1       1.0  0.9136093781683883  0.9713031204431813  0.8861075414141907  1.0000
  Zn  Zn2       1.0  0.9150968620176272  0.9675283757444006  0.027842499382010926  1.0000
  Zn  Zn3       1.0  0.0683908577737284  0.11687835396161718  0.027669091215528897  1.0000
  Zn  Zn4       1.0  0.0591707620427183  0.9567713264025666  0.019573212357854988  1.0000
  Zn  Zn5       1.0  0.061574619467172916  0.5392133266755009  0.592409089262901  1.0000
  Zn  Zn6       1.0  0.06364290832406996  0.5375061833777578  0.4537006124948704  1.0000
  Zn  Zn7       1.0  0.9160419301087189  0.550550059833128  0.45502314365702273  1.0000
  Zn  Zn8       1.0  0.9106193866758688  0.39028452233591787  0.4568552781672323  1.0000
  H   H1        1.0  0.6284935743118892  0.8222412316429055  0.8749874404593283  1.0000
  H   H2        1.0  0.6353292915721694  0.8385957945992712  0.7446964851069069  1.0000
  H   H3        1.0  0.5006391344353034  0.7744461210733178  0.6325914202543712  1.0000
  H   H4        1.0  0.3373831331961554  0.689157864906555  0.5554537274413107  1.0000
  H   H5        1.0  0.32831408467315987  0.6670994418874443  0.7371552628794688  1.0000
  H   H6        1.0  0.49025021833048754  0.7504360206393769  0.814518365733221  1.0000
  H   H7        1.0  0.06499961936789588  0.25364618079536416  0.8778691409582038  1.0000
  H   H8        1.0  0.9040035398362536  0.1129285253992975  0.7475475382646835  1.0000
  H   H9        1.0  0.097087585969895  0.3227246773091181  0.8132197258148466  1.0000
  H   H10       1.0  0.10350184970365453  0.41027022796806983  0.7375819361550099  1.0000
  H   H11       1.0  0.8464908176978556  0.23136365591082605  0.5648408923248666  1.0000
  H   H12       1.0  0.8375260802232491  0.14360858744701224  0.6409107799876494  1.0000
  H   H13       1.0  0.06956673948270253  0.8487565090865912  0.8627850864898433  1.0000
  H   H14       1.0  0.8842866699317894  0.8019262453099215  0.7396296299772727  1.0000
  H   H15       1.0  0.8320631483809392  0.726276407226372  0.6287175990561095  1.0000
  H   H16       1.0  0.8442830837437043  0.6474031024017676  0.5551966539572745  1.0000
  H   H17       1.0  0.08031415045754639  0.6836076314166134  0.7382498792036997  1.0000
  H   H18       1.0  0.07022511717845947  0.7631460524582322  0.8118098051275381  1.0000
  H   H19       1.0  0.06345786617983151  0.2431176934992791  0.1791403833302212  1.0000
  H   H20       1.0  0.8991294969215604  0.10291157268171956  0.1615766318259304  1.0000
  H   H21       1.0  0.8558687003008104  0.1254954246902926  0.2348585368847508  1.0000
  H   H22       1.0  0.8678894893726935  0.21462185265971806  0.32026918290814876  1.0000
  H   H23       1.0  0.07631313885357824  0.41148346220381865  0.32210628082121656  1.0000
  H   H24       1.0  0.06549397086118344  0.3242068249146469  0.2375062984502705  1.0000
  H   H25       1.0  0.0202195929213715  0.7854682983412073  0.13450590404207222  1.0000
  H   H26       1.0  0.9326494115907379  0.8424361733735564  0.18000995851518542  1.0000
  H   H27       1.0  0.9062109265503228  0.7948280992886225  0.2643081616467668  1.0000
  H   H28       1.0  0.9189876814738865  0.7181619239171083  0.3505692167206007  1.0000
  H   H29       1.0  0.05466609393096874  0.6483920293304235  0.2973635353894792  1.0000
  H   H30       1.0  0.041634331922757735  0.7233108274840487  0.2107438503157652  1.0000
  H   H31       1.0  0.3430967023482695  0.10728719126464628  0.1804711589914589  1.0000
  H   H32       1.0  0.3479504740625714  0.2578181080255106  0.14836668065797196  1.0000
  H   H33       1.0  0.4866828130603622  0.37677695087811697  0.2059969604494114  1.0000
  H   H34       1.0  0.6496747194514044  0.4537974532762731  0.2907811622771915  1.0000
  H   H35       1.0  0.641928812270109  0.24309679206423598  0.3328842549038384  1.0000
  H   H36       1.0  0.4802457454322139  0.16580412777347678  0.24969030959730523  1.0000
  C   C1        1.0  0.7516291429969115  0.8896663028392808  0.8837771785811481  1.0000
  C   C2        1.0  0.6549181812758462  0.8400137655595614  0.8430826738414366  1.0000
  C   C3        1.0  0.6030893277545032  0.8179413926115655  0.772440096702283  1.0000
  C   C4        1.0  0.5076151628887047  0.7686661873347375  0.7291458307936123  1.0000
  C   C5        1.0  0.46280329370307527  0.7506498492941843  0.6555827639829486  1.0000
  C   C6        1.0  0.3718041191206112  0.7032054135491916  0.6122718609623162  1.0000
  C   C7        1.0  0.3230226919034536  0.6729173090335436  0.6416255194707431  1.0000
  C   C8        1.0  0.3669126209565974  0.6908710989260881  0.7149184922649565  1.0000
  C   C9        1.0  0.4575604689929877  0.7376578741476436  0.7578655208255114  1.0000
  C   C10       1.0  0.22535941848606453  0.6219667811840421  0.5962657654246682  1.0000
  C   C11       1.0  0.9998595888373888  0.13677950983285567  0.8858910736841067  1.0000
  C   C12       1.0  0.011044429960698193  0.1936762908437686  0.8458119353944011  1.0000
  C   C13       1.0  0.9583543349688811  0.17398441577797996  0.7754258182056756  1.0000
  C   C14       1.0  0.9660490436190731  0.2270069405261879  0.7327456123334387  1.0000
  C   C15       1.0  0.04119756834876399  0.30274893007096887  0.7592154698090141  1.0000
  C   C16       1.0  0.04550896350403381  0.3517800090909232  0.7171158001602294  1.0000
  C   C17       1.0  0.9752452300698167  0.3260884662329602  0.6467410830126281  1.0000
  C   C18       1.0  0.9005200522820331  0.2506817573122148  0.619500944968017  1.0000
  C   C19       1.0  0.896096312119461  0.20201966061930673  0.6620749931766168  1.0000
  C   C20       1.0  0.9804492494764858  0.37825844878982906  0.6010973921216374  1.0000
  C   C21       1.0  0.9979388438523812  0.8923941031799385  0.8749231291486763  1.0000
  C   C22       1.0  0.007434950137152723  0.8460684901884007  0.8333702260781732  1.0000
  C   C23       1.0  0.944788269116202  0.8013348748489759  0.7661583742972197  1.0000
  C   C24       1.0  0.9513453671800252  0.7522494122495615  0.7252641810546835  1.0000
  C   C25       1.0  0.8869542051017943  0.7174095800538609  0.6526861616357988  1.0000
  C   C26       1.0  0.893275334734291  0.6733083490399991  0.611475880031648  1.0000
  C   C27       1.0  0.9636284385705383  0.6617566614526922  0.6421035530588666  1.0000
  C   C28       1.0  0.026672107833952925  0.6939651628140737  0.714751556052903  1.0000
  C   C29       1.0  0.02069813920012821  0.738661595759929  0.7555365058255532  1.0000
  C   C30       1.0  0.9723561755168649  0.6167489669867904  0.5978494801087278  1.0000
  C   C31       1.0  0.9979591336396682  0.12813128589778697  0.11038153891221474  1.0000
  C   C32       1.0  0.007624072994730064  0.18360852249016082  0.16049259172101668  1.0000
  C   C33       1.0  0.9530747114815484  0.1640845140140925  0.18183894159083275  1.0000
  C   C34       1.0  0.9604470022397039  0.21788388807264164  0.23058337847716356  1.0000
  C   C35       1.0  0.9045260875252552  0.18829285790609152  0.2542028988563556  1.0000
  C   C36       1.0  0.9109491526539061  0.23760927239374038  0.30185137228100684  1.0000
  C   C37       1.0  0.9734186760562481  0.31828652026163684  0.3268677855701868  1.0000
  C   C38       1.0  0.02866534549082901  0.3486277323369791  0.3029188457136128  1.0000
  C   C39       1.0  0.022256153936766106  0.2993339084143826  0.2556365077286599  1.0000
  C   C40       1.0  0.9812256019563038  0.37201872217529086  0.37800793793446985  1.0000
  C   C41       1.0  0.9817351843741878  0.8666438245691735  0.09100894472558725  1.0000
  C   C42       1.0  0.9891082751599569  0.8157427954166321  0.13708765770058295  1.0000
  C   C43       1.0  0.9630625943491252  0.8096651296294011  0.18110656704747174  1.0000
  C   C44       1.0  0.9723434971733199  0.7643345405691091  0.23092592585308586  1.0000
  C   C45       1.0  0.9385318292765704  0.7624300105771976  0.271388092378352  1.0000
  C   C46       1.0  0.9456211665116427  0.7200728895310957  0.3196245695478906  1.0000
  C   C47       1.0  0.9875841719523637  0.6788373477317364  0.32911772245728355  1.0000
  C   C48       1.0  0.02213957981797399  0.6806438882312089  0.28945345402375  1.0000
  C   C49       1.0  0.014406831299517215  0.7225176313135503  0.24103224004699791  1.0000
  C   C50       1.0  0.9939134160155022  0.632256960484426  0.3799819129279882  1.0000
  C   C51       1.0  0.22500408754734744  0.10691869586770507  0.10794552803380951  1.0000
  C   C52       1.0  0.320741862796261  0.14614355314714084  0.15792801343411608  1.0000
  C   C53       1.0  0.37649126592785365  0.22356362371574784  0.17383836493674207  1.0000
  C   C54       1.0  0.4715449294217677  0.2660439914545378  0.22211457789383354  1.0000
  C   C55       1.0  0.5208601184380229  0.34753647127217135  0.23406293768882588  1.0000
  C   C56       1.0  0.6115516105827511  0.3906959990160458  0.2810823078240289  1.0000
  C   C57       1.0  0.6552273179366139  0.35300965933178213  0.31705444668414623  1.0000
  C   C58       1.0  0.606946865208414  0.2715642385165822  0.3047681289689662  1.0000
  C   C59       1.0  0.5166049434320996  0.22884618849634814  0.2581806079408152  1.0000
  C   C60       1.0  0.7521585195077307  0.3983727378149382  0.36881157013855403  1.0000
  O   O1        1.0  0.9865228911363886  0.0029418575129441116  0.9889351681949774  1.0000
  O   O2        1.0  0.7903145585241305  0.9052757679017559  0.950485291814445  1.0000
  O   O3        1.0  0.7883316536514116  0.9125224895831178  0.8504894071997667  1.0000
  O   O4        1.0  0.18884307955350002  0.6022065662662469  0.5299574595389343  1.0000
  O   O5        1.0  0.18626604118766474  0.6022061770435555  0.627812608939564  1.0000
  O   O6        1.0  0.05196868192737007  0.16677326834550846  0.9526456023723  1.0000
  O   O7        1.0  0.9411908232384864  0.06427874888571239  0.8522010158052635  1.0000
  O   O8        1.0  0.9215596033441429  0.34684649797970485  0.5353395441007222  1.0000
  O   O9        1.0  0.04335583593177722  0.4500329703591105  0.6313148575588129  1.0000
  O   O10       1.0  0.05853880645082647  0.9195443272834324  0.9406859406473627  1.0000
  O   O11       1.0  0.9328743289497011  0.9016914064973915  0.8443923188184994  1.0000
  O   O12       1.0  0.9181679608138749  0.5965161474388478  0.5314833057791829  1.0000
  O   O13       1.0  0.03364335424945595  0.6027049493429997  0.6296857785987482  1.0000
  O   O14       1.0  0.053671070455401065  0.15944933646713363  0.09386079368604777  1.0000
  O   O15       1.0  0.9371766462798732  0.055790677131426485  0.08779116751792052  1.0000
  O   O16       1.0  0.9297815164716712  0.3407745638608475  0.398386160167398  1.0000
  O   O17       1.0  0.038831982884012496  0.4448638138295848  0.3972856681208086  1.0000
  O   O18       1.0  0.016963512320557712  0.87134497392131  0.057288160112804555  1.0000
  O   O19       1.0  0.9429765242978408  0.9021189640197846  0.08849336742739679  1.0000
  O   O20       1.0  0.9561702940812893  0.6293323258789271  0.4109351490814175  1.0000
  O   O21       1.0  0.03610562974640884  0.5986279038284151  0.3883899221177102  1.0000
  O   O22       1.0  0.18177746935983663  0.03228552993807201  0.09555382511272371  1.0000
  O   O23       1.0  0.19257678158137992  0.1484946176531423  0.0810884575994493  1.0000
  O   O24       1.0  0.7926742045097799  0.4728566674815511  0.38112534173389173  1.0000
  O   O25       1.0  0.7869666449997084  0.35893202530515106  0.397120960981006  1.0000
  O   O26       1.0  0.9890315245998238  0.5046710767648644  0.48967674989887644  1.0000
