data_image0
_chemical_formula_structural       Mn2P4H46C58Br4N2O4
_chemical_formula_sum              "Mn2 P4 H46 C58 Br4 N2 O4"
_cell_length_a       10.391416311845468
_cell_length_b       12.351746750266921
_cell_length_c       12.4979
_cell_angle_alpha    85.41193098873167
_cell_angle_beta     68.46375626327482
_cell_angle_gamma    82.49469289453081

_space_group_name_H-M_alt    "P 1"
_space_group_IT_number       1

loop_
  _space_group_symop_operation_xyz
  'x, y, z'

loop_
  _atom_site_type_symbol
  _atom_site_label
  _atom_site_symmetry_multiplicity
  _atom_site_fract_x
  _atom_site_fract_y
  _atom_site_fract_z
  _atom_site_occupancy
  Mn  Mn1       1.0  0.935858036183433  0.8593530451359754  0.8873589653761442  1.0000
  Mn  Mn2       1.0  0.0641388546393173  0.1406492182073151  0.11264620540884349  1.0000
  P   P1        1.0  0.7862789694555018  0.6847741048164765  0.78344241696864  1.0000
  P   P2        1.0  0.21371929689917124  0.3152257072524947  0.2165561266918417  1.0000
  P   P3        1.0  0.2863246024307742  0.7698308726120687  0.748835645896584  1.0000
  P   P4        1.0  0.7136728566785636  0.2301673052740156  0.25116327334140465  1.0000
  H   H1        1.0  0.24899198580629905  0.9150598883495178  0.9354707819820477  1.0000
  H   H2        1.0  0.7510065078630105  0.0849382895365665  0.0645310220274808  1.0000
  H   H3        1.0  0.40383186921992836  0.9365812598296586  0.04291417188120046  1.0000
  H   H4        1.0  0.5961660445186895  0.0634136496906592  0.957089667786029  1.0000
  H   H5        1.0  0.6443719831031274  0.832680729208029  0.9799273632393407  1.0000
  H   H6        1.0  0.3556262716074414  0.1673117290379693  0.020074965876069866  1.0000
  H   H7        1.0  0.9450172035090744  0.7741099804916942  0.3021474151216453  1.0000
  H   H8        1.0  0.0549834729374936  0.2258873803029502  0.6978529871268222  1.0000
  H   H9        1.0  0.1552458646458277  0.6194884986331246  0.9316002559932175  1.0000
  H   H10       1.0  0.8447475698809584  0.3805088621615198  0.06840155648391286  1.0000
  H   H11       1.0  0.47760975634226105  0.9215328867498301  0.2816099918977031  1.0000
  H   H12       1.0  0.522389203600426  0.0784693765934676  0.7183865460107484  1.0000
  H   H13       1.0  0.5745660866497958  0.5388088896901451  0.7944102276660914  1.0000
  H   H14       1.0  0.4254375798193665  0.4611892881959392  0.2055899975126536  1.0000
  H   H15       1.0  0.1697252614650893  0.4160964628086958  0.9478530022029048  1.0000
  H   H16       1.0  0.8302775977587373  0.5839000808945016  0.05214999895661524  1.0000
  H   H17       1.0  0.6494962656084695  0.8680305562456995  0.37708898307424477  1.0000
  H   H18       1.0  0.35049718056242096  0.1319741583719178  0.6229106442168018  1.0000
  H   H19       1.0  0.9689086188668554  0.3184025587774144  0.8747330661526431  1.0000
  H   H20       1.0  0.031093785727698307  0.6815972532915565  0.1252706155185948  1.0000
  H   H21       1.0  0.5729642111293742  0.3383477608667178  0.8321623857103404  1.0000
  H   H22       1.0  0.42704129714508815  0.6616520512022532  0.1678363479903169  1.0000
  H   H23       1.0  0.5706710895376119  0.8001629411069189  0.5810080847773449  1.0000
  H   H24       1.0  0.42932120841598476  0.1998425906021453  0.41899102823975914  1.0000
  H   H25       1.0  0.9190293364289205  0.5817584842260857  0.3780899715424937  1.0000
  H   H26       1.0  0.08097433004023456  0.4182396936599986  0.6219118539050967  1.0000
  H   H27       1.0  0.433353343794856  0.6013024944175669  0.5775067353438104  1.0000
  H   H28       1.0  0.5666415915652718  0.39869895183428383  0.4224942960726282  1.0000
  H   H29       1.0  0.7726636299418672  0.2281654312421111  0.8691137110748741  1.0000
  H   H30       1.0  0.2273377400927146  0.77183438082686  0.1308878859592539  1.0000
  H   H31       1.0  0.14456180313776196  0.843857723037587  0.5954198601522762  1.0000
  H   H32       1.0  0.855433132222366  0.1561437232142637  0.4045747701887806  1.0000
  H   H33       1.0  0.8352304322869344  0.8829604510665092  0.6459669995597184  1.0000
  H   H34       1.0  0.16476852765575253  0.1170418122767884  0.35403193875199435  1.0000
  H   H35       1.0  0.9699689972804038  0.5203393547443582  0.8392298921202723  1.0000
  H   H36       1.0  0.0300332936568282  0.4796612744160527  0.160770559107597  1.0000
  H   H37       1.0  0.9043461195407829  0.9230052855275801  0.434920897859179  1.0000
  H   H38       1.0  0.0956542159338341  0.0769945265413909  0.5650778144034163  1.0000
  H   H39       1.0  0.22576301746181576  0.9079495586247716  0.38986984461931945  1.0000
  H   H40       1.0  0.774236977040843  0.092052704718526  0.610123977119713  1.0000
  H   H41       1.0  0.8514165679028595  0.5398564009182678  0.5880624541889006  1.0000
  H   H42       1.0  0.14858583669168723  0.4601434111506961  0.4119396272134921  1.0000
  H   H43       1.0  0.3125703085550314  0.3061233085931363  0.7794713508903328  1.0000
  H   H44       1.0  0.6874373824966896  0.6938756863843878  0.2205307818557998  1.0000
  H   H45       1.0  0.4453109069073092  0.3973793491561111  0.5943959480891153  1.0000
  H   H46       1.0  0.5546913840299225  0.6026212800042998  0.40560450313875407  1.0000
  C   C1        1.0  0.6130302184003681  0.7583409327603761  0.8409332845210643  1.0000
  C   C2        1.0  0.3869664334636412  0.2416556109428285  0.1590660102944241  1.0000
  C   C3        1.0  0.352791196388111  0.87075637329486  0.9111445139362503  1.0000
  C   C4        1.0  0.6472061490639193  0.1292426216826641  0.08885597566491288  1.0000
  C   C5        1.0  0.4011625127360219  0.7984527687196632  0.8207486870119  1.0000
  C   C6        1.0  0.598835867275973  0.201546226257868  0.1792498865542598  1.0000
  C   C7        1.0  0.4410222426747694  0.8834474375656924  0.9696084357702404  1.0000
  C   C8        1.0  0.5589748754626171  0.1165531915947113  0.030392794153989728  1.0000
  C   C9        1.0  0.5733782170641888  0.8257354519544791  0.9351129308278914  1.0000
  C   C10       1.0  0.4266164793372057  0.1742602746572786  0.06488702542559112  1.0000
  C   C11       1.0  0.9155978078750808  0.7549704305638016  0.3941143218795985  1.0000
  C   C12       1.0  0.08440482403410951  0.24502774732228264  0.6058862190653046  1.0000
  C   C13       1.0  0.21874775675181019  0.5708650211267567  0.8577317201398031  1.0000
  C   C14       1.0  0.7812485541402481  0.4291339738507673  0.1422714856307792  1.0000
  C   C15       1.0  0.44235339168982807  0.8919509081983605  0.37128795899639744  1.0000
  C   C16       1.0  0.5576434991329222  0.10805135514493  0.6287100105787857  1.0000
  C   C17       1.0  0.6601800127319066  0.4907181558036982  0.8129416522007631  1.0000
  C   C18       1.0  0.33982250551996174  0.5092808391738259  0.18705805870403944  1.0000
  C   C19       1.0  0.22676957008832935  0.4571463197429324  0.8668074820616882  1.0000
  C   C20       1.0  0.7732308790436022  0.5428526752345917  0.13319446064426896  1.0000
  C   C21       1.0  0.5392020508308731  0.861855796221576  0.42472876200236004  1.0000
  C   C22       1.0  0.46079357811726857  0.1381481013046013  0.5752702636620554  1.0000
  C   C23       1.0  0.8396036397643911  0.7085866006988439  0.6301719587908324  1.0000
  C   C24       1.0  0.16039658205290414  0.2914140284615669  0.36982752370050065  1.0000
  C   C25       1.0  0.8822617662828096  0.3673071157396848  0.8581048492597744  1.0000
  C   C26       1.0  0.117742707431681  0.6326926963292792  0.1418974007447247  1.0000
  C   C27       1.0  0.6598901315201218  0.3780633074768289  0.8339525807095144  1.0000
  C   C28       1.0  0.34011135217178173  0.6219356875006952  0.16604824609586194  1.0000
  C   C29       1.0  0.4950791893841783  0.8240873785167863  0.5394421711441453  1.0000
  C   C30       1.0  0.5049165532212853  0.1759157019179511  0.4605552841570956  1.0000
  C   C31       1.0  0.7726814864528891  0.5414472779550508  0.8146244834463233  1.0000
  C   C32       1.0  0.2273219527016295  0.4585525341139132  0.18537488178665032  1.0000
  C   C33       1.0  0.9008906628828015  0.6474820514221307  0.43685699675036466  1.0000
  C   C34       1.0  0.09911208268370329  0.3525153093725137  0.5631443742346322  1.0000
  C   C35       1.0  0.2934091918444821  0.6229178314134955  0.7532428011450351  1.0000
  C   C36       1.0  0.7065827534930521  0.3770827977469152  0.2467608077443941  1.0000
  C   C37       1.0  0.37543864040019065  0.5605525100423989  0.6581861066315327  1.0000
  C   C38       1.0  0.6245566359318957  0.4394464849351252  0.34181421436750975  1.0000
  C   C39       1.0  0.7708654387843411  0.3165093579072362  0.8558100866841587  1.0000
  C   C40       1.0  0.22913800037017754  0.6834904541617277  0.1441908788176534  1.0000
  C   C41       1.0  0.3526645343272179  0.8175514640754784  0.6009461101154728  1.0000
  C   C42       1.0  0.64732948013026  0.1824491650849325  0.39905126630068827  1.0000
  C   C43       1.0  0.2553027678644142  0.8479587049829505  0.5471723628764664  1.0000
  C   C44       1.0  0.7446922811530357  0.1520419241774604  0.45282229737026825  1.0000
  C   C45       1.0  0.8538361680222483  0.8168839003676922  0.5871589364438277  1.0000
  C   C46       1.0  0.1461641674523619  0.1831159117012717  0.412840575953183  1.0000
  C   C47       1.0  0.883591998419938  0.4797715817606658  0.8376259781436487  1.0000
  C   C48       1.0  0.11641258895187431  0.5202274132168583  0.1623747014976828  1.0000
  C   C49       1.0  0.8923043523944827  0.8394781129106476  0.46927802274789354  1.0000
  C   C50       1.0  0.10769701764009912  0.1605216991583234  0.5307211738829665  1.0000
  C   C51       1.0  0.3007248723591829  0.8846796114596174  0.43226603384545115  1.0000
  C   C52       1.0  0.6992700630009452  0.11532183479223329  0.567730196764451  1.0000
  C   C53       1.0  0.863195570735563  0.6237553501411242  0.5548251181019525  1.0000
  C   C54       1.0  0.1368068338589907  0.3762444619278398  0.44517536303159494  1.0000
  C   C55       1.0  0.308403519047225  0.3950285770786408  0.7717439103696649  1.0000
  C   C56       1.0  0.6916001474219371  0.6049696008074434  0.2282571149434958  1.0000
  C   C57       1.0  0.3823333488727272  0.4467553678801863  0.667800913993361  1.0000
  C   C58       1.0  0.6176648038246312  0.5532452612802246  0.33220080029913396  1.0000
  Br  Br1       1.0  0.8606441164574792  0.0206176683457358  0.7881357274619559  1.0000
  Br  Br2       1.0  0.139399921138704  0.9793952171862941  0.21185501367435225  1.0000
  Br  Br3       1.0  0.8403729612963529  0.8599952790090698  0.09831289360989362  1.0000
  Br  Br4       1.0  0.15963059151548717  0.1400037159684615  0.9016937027385552  1.0000
  N   N1        1.0  0.5288830883763821  0.7434298310427323  0.7849397806607855  1.0000
  N   N2        1.0  0.4711131088583542  0.2565699810262387  0.21505859439758981  1.0000
  O   O1        1.0  0.8821102410788768  0.7234568478444103  0.8362764074459363  1.0000
  O   O2        1.0  0.1178830914346918  0.2765486838646467  0.16372479020827768  1.0000
  O   O3        1.0  0.14237150799498724  0.8242458942564568  0.8142568003144177  1.0000
  O   O4        1.0  0.8576267583596862  0.1757539178125143  0.18574334361490932  1.0000
