data_image0
_chemical_formula_structural       Bi4H4C20O18
_chemical_formula_sum              "Bi4 H4 C20 O18"
_cell_length_a       7.968214114643936
_cell_length_b       8.441768531118186
_cell_length_c       9.90957205007493
_cell_angle_alpha    109.1498581519287
_cell_angle_beta     90.73523280122403
_cell_angle_gamma    116.20374942245732

_space_group_name_H-M_alt    "P 1"
_space_group_IT_number       1

loop_
  _space_group_symop_operation_xyz
  'x, y, z'

loop_
  _atom_site_type_symbol
  _atom_site_label
  _atom_site_symmetry_multiplicity
  _atom_site_fract_x
  _atom_site_fract_y
  _atom_site_fract_z
  _atom_site_occupancy
  Bi  Bi1       1.0  0.13367609288936685  0.144310405032499  0.9048568455075027  1.0000
  Bi  Bi2       1.0  0.866322684573099  0.8556911216336404  0.09514350162127272  1.0000
  Bi  Bi3       1.0  0.7463567725725895  0.24868603932501537  0.027571565273738885  1.0000
  Bi  Bi4       1.0  0.25364325369586993  0.751315482802994  0.9724308133810807  1.0000
  H   H1        1.0  0.7543606947818802  0.7117596639100084  0.4337095325609255  1.0000
  H   H2        1.0  0.24563913463502732  0.2882361542345108  0.5662872188872611  1.0000
  H   H3        1.0  0.13502185764799182  0.7039524211490829  0.4837830151291768  1.0000
  H   H4        1.0  0.8649788508841  0.29605052116832553  0.5162167395719095  1.0000
  C   C1        1.0  0.42362830368734455  0.8223769778415077  0.5889681883989297  1.0000
  C   C2        1.0  0.5763754862945802  0.1776245235972951  0.4110301917971881  1.0000
  C   C3        1.0  0.6006062663070679  0.8264902763811223  0.5749690665317999  1.0000
  C   C4        1.0  0.39939559779389106  0.17350980728396342  0.425026878180951  1.0000
  C   C5        1.0  0.7753282353518216  0.9609447190550354  0.6896167117340468  1.0000
  C   C6        1.0  0.22467420048014472  0.039053937760080294  0.310380860547447  1.0000
  C   C7        1.0  0.6181386903468323  0.7103264528274738  0.44476573283486687  1.0000
  C   C8        1.0  0.38186134111028036  0.28967506717808794  0.5552336179088968  1.0000
  C   C9        1.0  0.27144437561873513  0.7059713088395514  0.47189825434313803  1.0000
  C   C10       1.0  0.7285537264983047  0.29402879480725364  0.5281006795246412  1.0000
  C   C11       1.0  0.38762697307632277  0.9338233095018111  0.7261215297345346  1.0000
  C   C12       1.0  0.6123728511519388  0.0661725107651492  0.2738782496247083  1.0000
  C   C13       1.0  0.29048495017866577  0.5933704709976481  0.3394946402571009  1.0000
  C   C14       1.0  0.7095150795488933  0.4066310497154005  0.6605057197903506  1.0000
  C   C15       1.0  0.11898721814118576  0.48948531129492073  0.22084069484174762  1.0000
  C   C16       1.0  0.8810121327818337  0.5105147878137616  0.7791602705520759  1.0000
  C   C17       1.0  0.46734651578947256  0.5942677276141171  0.32579237818092827  1.0000
  C   C18       1.0  0.5326522651321001  0.4057337976370547  0.6742059503404718  1.0000
  C   C19       1.0  0.5097696536300731  0.47319957829920156  0.1958592247730877  1.0000
  C   C20       1.0  0.4902264155324688  0.5267962591195569  0.8041395065264254  1.0000
  O   O1        1.0  0.8977211544770539  0.9044762119743409  0.6997604718511353  1.0000
  O   O2        1.0  0.10227819990507922  0.0955238857193734  0.3002384749353197  1.0000
  O   O3        1.0  0.7998611574174534  0.1268362750247576  0.7670517390806423  1.0000
  O   O4        1.0  0.20013626416550087  0.8731624077251754  0.2329488094371897  1.0000
  O   O5        1.0  0.2978895294711919  0.02105532638343279  0.7181919280534999  1.0000
  O   O6        1.0  0.702115607742485  0.9789490225089923  0.2818112972719859  1.0000
  O   O7        1.0  0.449505699670638  0.9310218818755016  0.8477896181763995  1.0000
  O   O8        1.0  0.5504934492121906  0.06897251537213833  0.152208747921847  1.0000
  O   O9        1.0  0.1345758041101561  0.4754277948472563  0.0890089454849274  1.0000
  O   O10       1.0  0.8654216174727979  0.5245708879026765  0.9109916030329046  1.0000
  O   O11       1.0  0.9557082784386638  0.42081249285779876  0.2562669071875874  1.0000
  O   O12       1.0  0.0442898184897232  0.5791876129114543  0.7437350545912409  1.0000
  O   O13       1.0  0.10887948955404891  0.9163282709408095  0.9726540965715599  1.0000
  O   O14       1.0  0.8911276771550194  0.08368034559463669  0.027351349929560308  1.0000
  O   O15       1.0  0.682430719184204  0.5367294624228903  0.17764952367421213  1.0000
  O   O16       1.0  0.3175697821190369  0.4632677801559169  0.8223506596423462  1.0000
  O   O17       1.0  0.3790681982445676  0.309086971118397  0.11625295521326962  1.0000
  O   O18       1.0  0.6209317295981196  0.6909116990178675  0.8837466098382336  1.0000
