data_image0
_chemical_formula_structural       Zn2H14C52N12Cl2O28
_chemical_formula_sum              "Zn2 H14 C52 N12 Cl2 O28"
_cell_length_a       14.76807250072493
_cell_length_b       16.03632938894498
_cell_length_c       23.755785026115756
_cell_angle_alpha    90.09067712222419
_cell_angle_beta     90.1647057138595
_cell_angle_gamma    90.090368232628

_space_group_name_H-M_alt    "P 1"
_space_group_IT_number       1

loop_
  _space_group_symop_operation_xyz
  'x, y, z'

loop_
  _atom_site_type_symbol
  _atom_site_label
  _atom_site_symmetry_multiplicity
  _atom_site_fract_x
  _atom_site_fract_y
  _atom_site_fract_z
  _atom_site_occupancy
  Zn  Zn1       1.0  0.5937809129241246  0.49985559819236164  0.5001024382695292  1.0000
  Zn  Zn2       1.0  0.4057508481399239  0.5002362394639022  0.4997068467281237  1.0000
  H   H1        1.0  0.3733293585260072  0.4514399792498693  0.2110048738957317  1.0000
  H   H2        1.0  0.3777535612433454  0.5592765589119536  0.7883905458826844  1.0000
  H   H3        1.0  0.6405176145795224  0.5336841957512347  0.3246195502081122  1.0000
  H   H4        1.0  0.6343921292649952  0.4528474911595453  0.6757259463276598  1.0000
  H   H5        1.0  0.418368252279997  0.9481147941798796  0.5829235909582877  1.0000
  H   H6        1.0  0.5809394136421631  0.0521712200290452  0.417585563412473  1.0000
  H   H7        1.0  0.572511757168492  0.053515230077586295  0.5858602256615981  1.0000
  H   H8        1.0  0.4271794131942955  0.9462628327634732  0.4146196877293278  1.0000
  H   H9        1.0  0.3423975322937737  0.04903581544689221  0.4965980226012475  1.0000
  H   H10       1.0  0.6570436723156236  0.9510167847627997  0.5037091322101048  1.0000
  H   H11       1.0  0.9440200699355756  0.6121064923003203  0.5607562434991564  1.0000
  H   H12       1.0  0.05528073959860791  0.3878362275695792  0.4387088133958413  1.0000
  H   H13       1.0  0.9427237513121228  0.36649870153150493  0.5354185455326714  1.0000
  H   H14       1.0  0.0565954112987583  0.6335537741973313  0.4640398387015239  1.0000
  C   C1        1.0  0.4980849596733706  0.6605248479037941  0.5004865134301255  1.0000
  C   C2        1.0  0.4981523221455788  0.339550414903826  0.4992151682276429  1.0000
  C   C3        1.0  0.501926947800314  0.4978215820723335  0.3909323705988257  1.0000
  C   C4        1.0  0.5009776616417696  0.5021670913393452  0.6089344645609742  1.0000
  C   C5        1.0  0.503341977809889  0.42480310342897093  0.8767361568052436  1.0000
  C   C6        1.0  0.5131971948849454  0.5729562120758304  0.12314943886337909  1.0000
  C   C7        1.0  0.525381929430985  0.5795006301662228  0.8788335144137278  1.0000
  C   C8        1.0  0.5179669399554997  0.41703408775157397  0.1210642467015006  1.0000
  C   C9        1.0  0.5207301919641695  0.5769108229137531  0.941258579256555  1.0000
  C   C10       1.0  0.5129690771206583  0.4200107309917416  0.05863924559908179  1.0000
  C   C11       1.0  0.5163704912165841  0.4993501369598262  0.9699309896991865  1.0000
  C   C12       1.0  0.5166943176264525  0.49758586990758147  0.029970773627958597  1.0000
  C   C13       1.0  0.5110366190355579  0.4236025633619108  0.939027578665481  1.0000
  C   C14       1.0  0.520048297620896  0.573452773493436  0.06085689969318509  1.0000
  C   C15       1.0  0.5239053954919798  0.6500717805619445  0.9725160054230527  1.0000
  C   C16       1.0  0.5079006210432766  0.34691555110327243  0.027367976652399796  1.0000
  C   C17       1.0  0.525351855391051  0.6483215744703587  0.031755118235871294  1.0000
  C   C18       1.0  0.5087028683695037  0.3485821615819091  0.9681262525270853  1.0000
  C   C19       1.0  0.4320020182427129  0.46977774881433015  0.23600683778619916  1.0000
  C   C20       1.0  0.4340260607905932  0.5355449181221986  0.7635713895791908  1.0000
  C   C21       1.0  0.42649315656805  0.4697066679586471  0.2947843958888967  1.0000
  C   C22       1.0  0.42872087184235863  0.5364140032029282  0.7047481529152293  1.0000
  C   C23       1.0  0.501610776547139  0.4939761183124319  0.32755348355217245  1.0000
  C   C24       1.0  0.5007997402619893  0.5053935591508035  0.6723159370213807  1.0000
  C   C25       1.0  0.5813597316967575  0.5161763061090311  0.2998084847568734  1.0000
  C   C26       1.0  0.5774480933511159  0.47565652218453647  0.7002762835793632  1.0000
  C   C27       1.0  0.5871668955925388  0.5157362947599253  0.24144906124106313  1.0000
  C   C28       1.0  0.5831325834277835  0.47503467214655615  0.7586736097846938  1.0000
  C   C29       1.0  0.5113928368832106  0.492840037878544  0.20907884309283983  1.0000
  C   C30       1.0  0.5102342032480109  0.504808646919095  0.7907714715735423  1.0000
  C   C31       1.0  0.5403596726599461  0.028867678492794396  0.5478085757931197  1.0000
  C   C32       1.0  0.4591312473759501  0.97120015809584  0.45265186556760983  1.0000
  C   C33       1.0  0.4542822056077541  0.9721039480766435  0.5461656826702708  1.0000
  C   C34       1.0  0.5451085272097629  0.027970063059974796  0.45430854229095274  1.0000
  C   C35       1.0  0.4990590272980456  0.7502963209486211  0.5005512850799434  1.0000
  C   C36       1.0  0.49791752062587596  0.24976444801306033  0.49906196225594357  1.0000
  C   C37       1.0  0.5872327699901375  0.9735741803610269  0.5021858597324922  1.0000
  C   C38       1.0  0.41218628089632153  0.026447403485541105  0.4982420715617835  1.0000
  C   C39       1.0  0.5013625630896215  0.9143933442630756  0.5006613650618164  1.0000
  C   C40       1.0  0.497980340560389  0.08566214026823361  0.4999597119100159  1.0000
  C   C41       1.0  0.5007736904199832  0.826284049008649  0.5006035518888652  1.0000
  C   C42       1.0  0.49781782349441533  0.17376676254304613  0.4993899017570698  1.0000
  C   C43       1.0  0.9689914628651267  0.5628329790433  0.5331431636272085  1.0000
  C   C44       1.0  0.030400771267395002  0.4371721439532337  0.46630181224811906  1.0000
  C   C45       1.0  0.028841398073716103  0.48807544740223824  0.5525409487970805  1.0000
  C   C46       1.0  0.9705650291453481  0.5119458676297055  0.4468821595040779  1.0000
  C   C47       1.0  0.03115453178837411  0.5744866588850286  0.4804520211944165  1.0000
  C   C48       1.0  0.9682343017161303  0.42553153578794684  0.5189790646194012  1.0000
  C   C49       1.0  0.09301473782080191  0.49962404655285303  0.5003254832718511  1.0000
  C   C50       1.0  0.9064343592024358  0.5004066597453658  0.4990993593707386  1.0000
  C   C51       1.0  0.1889722430660754  0.49937183502952115  0.5006072657088793  1.0000
  C   C52       1.0  0.8104897888065636  0.5006552009154676  0.4988580009928825  1.0000
  N   N1        1.0  0.5094667853724673  0.5035249163505355  0.8512704110035898  1.0000
  N   N2        1.0  0.5107937985141718  0.4941077013767626  0.1485910236123829  1.0000
  N   N3        1.0  0.26738021500948866  0.4996394383028289  0.4990628129943531  1.0000
  N   N4        1.0  0.7320974271096006  0.5003676986178289  0.500431087827252  1.0000
  N   N5        1.0  0.5229602988590898  0.7333659087564044  0.9447972174805273  1.0000
  N   N6        1.0  0.4983430148241369  0.26409488488332766  0.055101498994481794  1.0000
  N   N7        1.0  0.05624710542458191  0.47485672780111093  0.6116712259368526  1.0000
  N   N8        1.0  0.9431543957973858  0.5250104984782736  0.3877122481108444  1.0000
  N   N9        1.0  0.5328889530990183  0.7297796386286564  0.061675185102984593  1.0000
  N   N10       1.0  0.5069564040744439  0.266914243925889  0.9381548009948872  1.0000
  N   N11       1.0  0.6746203072062897  0.5387107850500925  0.21603058594003946  1.0000
  N   N12       1.0  0.6676018418794031  0.4438823053671754  0.7841672403516569  1.0000
  Cl  Cl1       1.0  0.32620425321829327  0.43625375620336376  0.32365755621280096  1.0000
  Cl  Cl2       1.0  0.33323066454003236  0.5787324978608552  0.6750178463619604  1.0000
  O   O1        1.0  0.5725603918117416  0.6242853240848305  0.4886006731168776  1.0000
  O   O2        1.0  0.4236713971419662  0.3755608595686155  0.4868175385485998  1.0000
  O   O3        1.0  0.42304520758306563  0.6250921968521013  0.5123415394799622  1.0000
  O   O4        1.0  0.5728647031982632  0.37528502850120304  0.5117746109127665  1.0000
  O   O5        1.0  0.5771113642223897  0.48126932384370497  0.41450526203492183  1.0000
  O   O6        1.0  0.4273158284163544  0.48248521143811024  0.5848491701499512  1.0000
  O   O7        1.0  0.4286685449598339  0.5186300615507592  0.41475469684727523  1.0000
  O   O8        1.0  0.5765559950135498  0.517848648587794  0.5857606222951759  1.0000
  O   O9        1.0  0.49107894989141704  0.3619606356909842  0.8483852792439491  1.0000
  O   O10       1.0  0.5084213627634641  0.636600419543086  0.15151935696865587  1.0000
  O   O11       1.0  0.5417564273252539  0.6431897505574395  0.8523873683341491  1.0000
  O   O12       1.0  0.527391346747372  0.3522349808126605  0.1475724261645937  1.0000
  O   O13       1.0  0.4487559567123328  0.7573680931586465  0.9277399639091327  1.0000
  O   O14       1.0  0.5953870745112653  0.7714538907030574  0.944428926572641  1.0000
  O   O15       1.0  0.422127692783839  0.24671449778080753  0.07225649670973408  1.0000
  O   O16       1.0  0.5663613988909405  0.2198384600783427  0.055412610163401196  1.0000
  O   O17       1.0  0.9925648015690173  0.46720668766148066  0.6449522128100824  1.0000
  O   O18       1.0  0.1380202509361439  0.4727353614877643  0.6224272008140587  1.0000
  O   O19       1.0  0.006984031509603001  0.5329102660859774  0.35454686008338127  1.0000
  O   O20       1.0  0.861460590150351  0.5266366427148911  0.3768488268953547  1.0000
  O   O21       1.0  0.4627983925141877  0.7712533610012074  0.0639802968270331  1.0000
  O   O22       1.0  0.6088564717294178  0.7492351700302464  0.0782679022504311  1.0000
  O   O23       1.0  0.43269988517536023  0.23182424934724824  0.9360550462163744  1.0000
  O   O24       1.0  0.5801976033625423  0.24090927359566897  0.9213081264390084  1.0000
  O   O25       1.0  0.688461856927944  0.517806872906796  0.1663643044087948  1.0000
  O   O26       1.0  0.7295909036804462  0.5764609183566094  0.2460886431374902  1.0000
  O   O27       1.0  0.6826706998632018  0.46063837728618046  0.8344441973575129  1.0000
  O   O28       1.0  0.7194381799830297  0.403773639135011  0.7535601798553769  1.0000
