data_image0
_chemical_formula_structural       Mn12H48C60N24O36
_chemical_formula_sum              "Mn12 H48 C60 N24 O36"
_cell_length_a       14.216748144030282
_cell_length_b       13.93856045164679
_cell_length_c       15.03918452608355
_cell_angle_alpha    104.68549224133821
_cell_angle_beta     90.00009409866153
_cell_angle_gamma    89.99976636883106

_space_group_name_H-M_alt    "P 1"
_space_group_IT_number       1

loop_
  _space_group_symop_operation_xyz
  'x, y, z'

loop_
  _atom_site_type_symbol
  _atom_site_label
  _atom_site_symmetry_multiplicity
  _atom_site_fract_x
  _atom_site_fract_y
  _atom_site_fract_z
  _atom_site_occupancy
  Mn  Mn1       1.0  0.9999998345957977  0.5000005407724757  4.424820403122596e-07  1.0000
  Mn  Mn2       1.0  0.4999984424722116  0.49999984819915977  0.5000012518340284  1.0000
  Mn  Mn3       1.0  0.1402867127227623  0.33345601510839634  0.8423272100660242  1.0000
  Mn  Mn4       1.0  0.6402870079402874  0.6665461373851969  0.6576770863431349  1.0000
  Mn  Mn5       1.0  0.8597143925973897  0.6665429396386601  0.15767511446206586  1.0000
  Mn  Mn6       1.0  0.35971409737720716  0.3334543006475598  0.342325596467532  1.0000
  Mn  Mn7       1.0  0.9695047628240445  0.24643338225919112  0.9810056583168959  1.0000
  Mn  Mn8       1.0  0.4695064503759879  0.7535675061770989  0.5189928711749232  1.0000
  Mn  Mn9       1.0  0.030494232310395795  0.753564100103617  0.01899498066491392  1.0000
  Mn  Mn10      1.0  0.5304939515402011  0.24643444238586204  0.4810068517605117  1.0000
  Mn  Mn11      1.0  8.632770302999999e-07  3.5059582610000005e-07  1.723924967e-07  1.0000
  Mn  Mn12      1.0  0.49999884991645865  0.9999986695666296  0.5000011497343169  1.0000
  H   H1        1.0  0.1086950609349699  0.35302164336670927  0.027452065532315804  1.0000
  H   H2        1.0  0.6086994949995841  0.6469765708620943  0.4725518066657487  1.0000
  H   H3        1.0  0.89130112061239  0.6469787946758673  0.9725506172768092  1.0000
  H   H4        1.0  0.39130090693397085  0.353017923132029  0.5274507702774116  1.0000
  H   H5        1.0  0.2981366728655814  0.25813656371338567  0.9228037614548015  1.0000
  H   H6        1.0  0.7981365280494258  0.7418657444254961  0.5771955037017947  1.0000
  H   H7        1.0  0.7018665426293468  0.7418712580519227  0.07720469455853872  1.0000
  H   H8        1.0  0.2018680942448299  0.2581354406917101  0.4228066946197445  1.0000
  H   H9        1.0  0.3172660143527112  0.3719592586473226  0.9443433179025362  1.0000
  H   H10       1.0  0.8172648805506243  0.6280429731958036  0.555655959209865  1.0000
  H   H11       1.0  0.6827372011369591  0.6280486121555742  0.05565916542714434  1.0000
  H   H12       1.0  0.18273903834630542  0.3719574975230627  0.4443427418125765  1.0000
  H   H13       1.0  0.26912906141028264  0.28970488292099367  0.6776065657455774  1.0000
  H   H14       1.0  0.7691294661319291  0.7102982662111615  0.8223948513168794  1.0000
  H   H15       1.0  0.7308706371114938  0.7102963240005239  0.3223929780483489  1.0000
  H   H16       1.0  0.23087304597189023  0.28970440764457817  0.17760704165506522  1.0000
  H   H17       1.0  0.1581655746495017  0.27843889451949616  0.6560485806907083  1.0000
  H   H18       1.0  0.6581666749546856  0.7215646753966495  0.843955421544301  1.0000
  H   H19       1.0  0.8418334204744724  0.721563790240495  0.3439519850170925  1.0000
  H   H20       1.0  0.3418365405479449  0.27843724046897483  0.1560482831811214  1.0000
  H   H21       1.0  0.250472066948987  0.8136034713190838  0.929802291950061  1.0000
  H   H22       1.0  0.7504748338719268  0.18639825259054996  0.5702007460642236  1.0000
  H   H23       1.0  0.7495290383701558  0.18639476357960655  0.0701971989106625  1.0000
  H   H24       1.0  0.24952838162454336  0.8136051792524911  0.42979933515467655  1.0000
  H   H25       1.0  0.387331041068478  0.7816564699353846  0.8204996700401779  1.0000
  H   H26       1.0  0.8873359791860694  0.21834476259165572  0.6794968171983768  1.0000
  H   H27       1.0  0.6126700642521571  0.21834029257485102  0.1794981352749261  1.0000
  H   H28       1.0  0.1126665329168972  0.7816564606701136  0.32050073570187726  1.0000
  H   H29       1.0  0.3296418950641637  0.4679418315554074  0.7411721073398425  1.0000
  H   H30       1.0  0.8296471228902362  0.5320603945025795  0.7588218684574954  1.0000
  H   H31       1.0  0.6703542864807519  0.5320564414934452  0.2588227380987149  1.0000
  H   H32       1.0  0.17035679600478906  0.4679408233077569  0.24117634807470986  1.0000
  H   H33       1.0  0.1299900607961462  0.8473842078394968  0.8175657375687422  1.0000
  H   H34       1.0  0.6299938599363274  0.1526143047443469  0.6824343385419169  1.0000
  H   H35       1.0  0.8700075275484735  0.15261107139205177  0.1824317094626835  1.0000
  H   H36       1.0  0.37000654198740784  0.8473824686645273  0.31756213950993123  1.0000
  H   H37       1.0  0.2499809006801074  0.8085045969507123  0.6909017750161796  1.0000
  H   H38       1.0  0.7499840596994505  0.19149344794603002  0.8090970488271977  1.0000
  H   H39       1.0  0.7500159842668667  0.19149142937371272  0.3090951875247967  1.0000
  H   H40       1.0  0.2500128252424716  0.8085070009923786  0.19090430671911224  1.0000
  H   H41       1.0  0.2669882795022502  0.11499326802356082  0.6839906341023863  1.0000
  H   H42       1.0  0.7669900850047427  0.8850054397872497  0.816009706774743  1.0000
  H   H43       1.0  0.7330064952573565  0.8850034890506822  0.31600783484225303  1.0000
  H   H44       1.0  0.23300609654319968  0.11499499280670018  0.183993639665907  1.0000
  H   H45       1.0  0.08448469902149473  0.16445574201001992  0.19237514720042986  1.0000
  H   H46       1.0  0.5844817639831136  0.8355515012028506  0.30762687776989145  1.0000
  H   H47       1.0  0.9155206266575532  0.8355528377397903  0.8076314970603065  1.0000
  H   H48       1.0  0.415516527750178  0.16444676094454994  0.6923692949323623  1.0000
  C   C1        1.0  0.23935955687256444  0.5585280277149351  0.8479174252901985  1.0000
  C   C2        1.0  0.7393656659075701  0.44147376775359254  0.6520822876220649  1.0000
  C   C3        1.0  0.7606380314657386  0.4414694982396485  0.15207790463902884  1.0000
  C   C4        1.0  0.2606389563836089  0.5585281753523291  0.34791809894620945  1.0000
  C   C5        1.0  0.2153342197931849  0.6563871938681631  0.8979733213874326  1.0000
  C   C6        1.0  0.7153343030279729  0.34361320325493244  0.6020273454872297  1.0000
  C   C7        1.0  0.7846668855246293  0.34361178267337794  0.10202634861457945  1.0000
  C   C8        1.0  0.2846675056796856  0.6563887453052221  0.39797237744864594  1.0000
  C   C9        1.0  0.2682948229981291  0.7390156317798429  0.8902495455618438  1.0000
  C   C10       1.0  0.7682966566533767  0.2609867953798428  0.6097497009438014  1.0000
  C   C11       1.0  0.7317048755252955  0.26098337200760824  0.10974680628213923  1.0000
  C   C12       1.0  0.2317044486585473  0.7390151531817112  0.3902500219918538  1.0000
  C   C13       1.0  0.34351031984389374  0.7208741805707747  0.829929546810277  1.0000
  C   C14       1.0  0.8435149987114059  0.2791264741964241  0.6700680611613734  1.0000
  C   C15       1.0  0.6564900820798414  0.27912259283810675  0.17006693124157127  1.0000
  C   C16       1.0  0.15648821678846053  0.7208747381666925  0.32993081900212934  1.0000
  C   C17       1.0  0.3643830319955584  0.6238435580691473  0.7757143835342148  1.0000
  C   C18       1.0  0.8643895267778418  0.37615927651213354  0.7242791294869875  1.0000
  C   C19       1.0  0.6356138529452549  0.37615398423270124  0.22427895550023186  1.0000
  C   C20       1.0  0.13561298532512472  0.6238419467496287  0.27571842341325953  1.0000
  C   C21       1.0  0.3130866629673363  0.5414868881903985  0.783916072839908  1.0000
  C   C22       1.0  0.8130900007996688  0.4585131735250344  0.7160780188172424  1.0000
  C   C23       1.0  0.6869116287647826  0.4585113848542478  0.21607877259931033  1.0000
  C   C24       1.0  0.18691180790814604  0.5414880442895155  0.28392019771430915  1.0000
  C   C25       1.0  0.44166930838861157  0.6103758022718678  0.7059499695408037  1.0000
  C   C26       1.0  0.9416751663925356  0.3896267186043617  0.7940442554167291  1.0000
  C   C27       1.0  0.5583296867400948  0.3896239213653488  0.2940492159703254  1.0000
  C   C28       1.0  0.0583266423113002  0.6103767241387319  0.20595449853869505  1.0000
  C   C29       1.0  0.17287338391506782  0.0806777479750735  0.7864727262067602  1.0000
  C   C30       1.0  0.6728748753010763  0.9193220823067848  0.7135270713569142  1.0000
  C   C31       1.0  0.8271235010324888  0.919318272900732  0.21352489996573357  1.0000
  C   C32       1.0  0.3271241198274667  0.08067837207603652  0.2864736205585388  1.0000
  C   C33       1.0  0.13417625095713961  0.0047454268331748005  0.8230754597112692  1.0000
  C   C34       1.0  0.6341773756143141  0.9952552885392407  0.6769258200703661  1.0000
  C   C35       1.0  0.8658206339914187  0.9952513138909965  0.17692500012859114  1.0000
  C   C36       1.0  0.3658209161238091  0.004742199273593402  0.3230741552796985  1.0000
  C   C37       1.0  0.16006079234011852  0.9048734267567227  0.7890822884057017  1.0000
  C   C38       1.0  0.6600627602735756  0.09512793246452131  0.7109185230641728  1.0000
  C   C39       1.0  0.8399353892063957  0.0951255606918835  0.2109160543317401  1.0000
  C   C40       1.0  0.33993342127060094  0.9048710767785623  0.28907716514719084  1.0000
  C   C41       1.0  0.2256306205343037  0.884077314739507  0.7192021154204299  1.0000
  C   C42       1.0  0.7256347361818885  0.11592082182824026  0.7807973568354996  1.0000
  C   C43       1.0  0.7743634508341373  0.11591721195897262  0.2807964797316416  1.0000
  C   C44       1.0  0.2743607419666532  0.8840803742044441  0.21920351422014758  1.0000
  C   C45       1.0  0.2646611635346972  0.9594109609358343  0.6817512597221909  1.0000
  C   C46       1.0  0.7646614246064091  0.040587761608421105  0.8182484160684567  1.0000
  C   C47       1.0  0.7353364248093401  0.0405843237443406  0.3182455236777173  1.0000
  C   C48       1.0  0.23533686712905683  0.9594112094901065  0.1817519175641921  1.0000
  C   C49       1.0  0.23808377799763752  0.058254539494910815  0.7141096030066763  1.0000
  C   C50       1.0  0.7380853046905429  0.9417442836025817  0.7858907198046483  1.0000
  C   C51       1.0  0.7619117001584499  0.9417414813837013  0.2858880231653771  1.0000
  C   C52       1.0  0.2619101734584249  0.0582576377270883  0.2141123212868408  1.0000
  C   C53       1.0  0.3379050542663151  0.9296086143391945  0.6084834682096698  1.0000
  C   C54       1.0  0.8379060261050241  0.07039053046880642  0.8915197506585457  1.0000
  C   C55       1.0  0.6620932374644256  0.0703933178821075  0.39151824561966453  1.0000
  C   C56       1.0  0.1620922656336816  0.9296069518954012  0.10848088832304371  1.0000
  C   C57       1.0  0.0733730347561732  0.20104047446982073  0.13592882838315754  1.0000
  C   C58       1.0  0.5733815977772494  0.7989527109278285  0.3640711132243339  1.0000
  C   C59       1.0  0.9266322909173041  0.7989696158087938  0.8640748560025671  1.0000
  C   C60       1.0  0.42662654151915563  0.20103439931410344  0.6359256905192296  1.0000
  N   N1        1.0  0.137606237475957  0.6486035458126264  0.9493448108332245  1.0000
  N   N2        1.0  0.6376062009038534  0.351395667147223  0.5506567764407819  1.0000
  N   N3        1.0  0.8623934610479012  0.3513961832718095  0.05065371104659991  1.0000
  N   N4        1.0  0.3623977179905822  0.6486055561117396  0.4493407764599127  1.0000
  N   N5        1.0  0.1179401747987754  0.5523208673376487  0.9333798594704987  1.0000
  N   N6        1.0  0.6179397809114421  0.4476776878671274  0.5666208727390226  1.0000
  N   N7        1.0  0.8820595237275699  0.4476781092066986  0.06661981053107273  1.0000
  N   N8        1.0  0.38206413798066313  0.5523235571863196  0.4333740256355938  1.0000
  N   N9        1.0  0.1767384932347866  0.49540249847527923  0.8736682951638954  1.0000
  N   N10       1.0  0.6767379749153905  0.5045965747516805  0.6263313256736113  1.0000
  N   N11       1.0  0.8232619086886289  0.5045957364248111  0.12633119569660783  1.0000
  N   N12       1.0  0.32326453718757625  0.49540464851008187  0.3736662272266429  1.0000
  N   N13       1.0  0.134457291986898  0.16876241974533462  0.835304010700149  1.0000
  N   N14       1.0  0.6344569409872848  0.8312375419689889  0.6646984173784318  1.0000
  N   N15       1.0  0.8655431099422517  0.8312335738803468  0.16469693363103494  1.0000
  N   N16       1.0  0.3655406473519633  0.16876362136776632  0.3353064354669826  1.0000
  N   N17       1.0  0.0759552626262661  0.1464709823357708  0.8963531300751555  1.0000
  N   N18       1.0  0.5759554205100557  0.853529207265311  0.6036499250705134  1.0000
  N   N19       1.0  0.9240465460928605  0.8535264836755587  0.10364949980208144  1.0000
  N   N20       1.0  0.4240442780165523  0.1464712253216263  0.3963534213712379  1.0000
  N   N21       1.0  0.07378828990916732  0.04952882504048259  0.8914671773823314  1.0000
  N   N22       1.0  0.5737894755021459  0.9504713895474242  0.60853388551471  1.0000
  N   N23       1.0  0.9262114086223294  0.9504679156780753  0.10853328245840299  1.0000
  N   N24       1.0  0.4262116298162582  0.0495275815454903  0.39146644811881964  1.0000
  O   O1        1.0  0.0700914038108564  0.356220972946673  0.9742570963914332  1.0000
  O   O2        1.0  0.5700908588503353  0.643780712432374  0.5257476406346342  1.0000
  O   O3        1.0  0.9299061845281289  0.643778734347485  0.0257440800138085  1.0000
  O   O4        1.0  0.42990532269686105  0.35622045635580696  0.4742565485788148  1.0000
  O   O5        1.0  0.0022836595487377006  0.1692289720067848  0.08321456002378373  1.0000
  O   O6        1.0  0.5022802286728307  0.8307748908531564  0.41678651786313026  1.0000
  O   O7        1.0  0.9977188525540156  0.8307758995343948  0.916791188529615  1.0000
  O   O8        1.0  0.49771806305838606  0.16922484913132507  0.583210676753218  1.0000
  O   O9        1.0  0.1280816052449296  0.26889597562768597  0.1274607341772551  1.0000
  O   O10       1.0  0.628070759014449  0.7311141147715221  0.3725353982892514  1.0000
  O   O11       1.0  0.8719216102534518  0.7311067091238855  0.8725398315318671  1.0000
  O   O12       1.0  0.3719226089330833  0.268891585608678  0.6274599112982885  1.0000
  O   O13       1.0  0.36618032138090234  0.8399458691925547  0.5924731616997292  1.0000
  O   O14       1.0  0.8661830726253115  0.1600546842615387  0.9075257877034275  1.0000
  O   O15       1.0  0.6338158601700173  0.160051618624486  0.4075268136496817  1.0000
  O   O16       1.0  0.13381873608441447  0.8399457864615416  0.09247291331835339  1.0000
  O   O17       1.0  0.3679314489429403  0.9931072615576184  0.5673447122100159  1.0000
  O   O18       1.0  0.8679257116717383  0.006899883433945299  0.9326651413978411  1.0000
  O   O19       1.0  0.6320696563749807  0.0068939017721235  0.4326601406365  1.0000
  O   O20       1.0  0.1320704698735469  0.9931020324457052  0.06733856332538586  1.0000
  O   O21       1.0  0.43190765669054093  0.5417037129325452  0.6330274269691571  1.0000
  O   O22       1.0  0.9319112559053765  0.45829808889399715  0.8669686036397551  1.0000
  O   O23       1.0  0.5680976690192097  0.4582870782861407  0.3669735906375706  1.0000
  O   O24       1.0  0.06809055280434961  0.5417023818290758  0.13303009738201876  1.0000
  O   O25       1.0  0.5115445371797023  0.6703763082101093  0.7250277555797737  1.0000
  O   O26       1.0  0.011549768145116001  0.3296278900874087  0.7749708459641838  1.0000
  O   O27       1.0  0.48845164436282573  0.3296249041670407  0.27497112458154055  1.0000
  O   O28       1.0  0.9884569643145724  0.6703822492259803  0.22502686573831454  1.0000
  O   O29       1.0  0.29500501828285053  0.3153240832398367  0.896771552609664  1.0000
  O   O30       1.0  0.7950065538079513  0.6846774848462616  0.6032288587118799  1.0000
  O   O31       1.0  0.7049932734454954  0.6846807883097554  0.10323419594242017  1.0000
  O   O32       1.0  0.20499173792708802  0.31532076095528083  0.39676930488492707  1.0000
  O   O33       1.0  0.2038827664447709  0.3059714015104192  0.7036278553131652  1.0000
  O   O34       1.0  0.7038838946547514  0.694034227336232  0.7963747220250568  1.0000
  O   O35       1.0  0.7961211524537503  0.6940297836081868  0.2963743430081536  1.0000
  O   O36       1.0  0.2961193208453849  0.3059684410694814  0.20362783457862582  1.0000
