data_image0
_chemical_formula_structural       Zn4H40C80I8N16F4
_chemical_formula_sum              "Zn4 H40 C80 I8 N16 F4"
_cell_length_a       15.368356151411623
_cell_length_b       15.277139711594636
_cell_length_c       17.334303683071212
_cell_angle_alpha    105.54124903063185
_cell_angle_beta     107.33385613378682
_cell_angle_gamma    110.83341812259057

_space_group_name_H-M_alt    "P 1"
_space_group_IT_number       1

loop_
  _space_group_symop_operation_xyz
  'x, y, z'

loop_
  _atom_site_type_symbol
  _atom_site_label
  _atom_site_symmetry_multiplicity
  _atom_site_fract_x
  _atom_site_fract_y
  _atom_site_fract_z
  _atom_site_occupancy
  Zn  Zn1       1.0  0.379463596770947  0.004210721018317483  0.8953762648562744  1.0000
  Zn  Zn2       1.0  0.6098416527374155  0.9824083846490551  0.10715944507529677  1.0000
  Zn  Zn3       1.0  0.3566499519242541  0.8421619549282011  0.9904249887093357  1.0000
  Zn  Zn4       1.0  0.6345038894530789  0.13612317865423762  0.0028324154249544506  1.0000
  H   H1        1.0  0.2931491092333758  0.13127490822753154  0.9874781391372166  1.0000
  H   H2        1.0  0.8339851628948907  0.9797155466645575  0.15030214618471374  1.0000
  H   H3        1.0  0.15117141945105317  0.960372403666682  0.2658616776812365  1.0000
  H   H4        1.0  0.843183798986317  0.949169384394551  0.8919559807649405  1.0000
  H   H5        1.0  0.1500562318124424  0.08589203865476241  0.5167008498795554  1.0000
  H   H6        1.0  0.7891881427709039  0.86522195003117  0.33312380480129605  1.0000
  H   H7        1.0  0.337578188754982  0.14309432414664508  0.5571289784498675  1.0000
  H   H8        1.0  0.5993454578048087  0.7493805379954352  0.2690461041722685  1.0000
  H   H9        1.0  0.47080087609196397  0.29353692523400793  0.7004322723857256  1.0000
  H   H10       1.0  0.502283525501923  0.6258557743202856  0.10934539984331329  1.0000
  H   H11       1.0  0.0973784319779369  0.1788510474289281  0.6197018879078371  1.0000
  H   H12       1.0  0.8809319462749061  0.8555179454495203  0.23692682480956495  1.0000
  H   H13       1.0  0.4067880120630391  0.5187729288189826  0.7786543009858774  1.0000
  H   H14       1.0  0.609609032633287  0.4822973398781513  0.03669482376724887  1.0000
  H   H15       1.0  0.7488300096455873  0.5826981525505771  0.4925148173486918  1.0000
  H   H16       1.0  0.012592658155369932  0.409782463546783  0.48642771493052095  1.0000
  H   H17       1.0  0.1268106766370423  0.791075151424806  0.2677809058977516  1.0000
  H   H18       1.0  0.7633692200196264  0.9209434661247681  0.7344753021195415  1.0000
  H   H19       1.0  0.45124797442055353  0.6821827443714952  0.29809216365603664  1.0000
  H   H20       1.0  0.47196274626641355  0.0658107582829288  0.6618979526307598  1.0000
  H   H21       1.0  0.44997166332940713  0.05696839549128893  0.5125309648367491  1.0000
  H   H22       1.0  0.4614349493287477  0.6843077821687302  0.4432142773437775  1.0000
  H   H23       1.0  0.0632228401189394  0.6401644592010384  0.12742629824359136  1.0000
  H   H24       1.0  0.8433067450437264  0.05693186977138237  0.6862912075650839  1.0000
  H   H25       1.0  0.028697342670703632  0.6599577470897554  0.9844276359773332  1.0000
  H   H26       1.0  0.9985950437186945  0.2230079627465781  0.7985364715914612  1.0000
  H   H27       1.0  0.05411974139600048  0.829221220813785  0.9831741104313707  1.0000
  H   H28       1.0  0.0791708860588399  0.25017628353018734  0.9559573260192095  1.0000
  H   H29       1.0  0.6644255000176075  0.3571756894493774  0.9827082072283062  1.0000
  H   H30       1.0  0.34282138782963784  0.6435914573074868  0.8610661016144335  1.0000
  H   H31       1.0  0.6137843997735005  0.9707928782790773  0.2977969930743213  1.0000
  H   H32       1.0  0.34572200946394827  0.827767057520461  0.7212705566189683  1.0000
  H   H33       1.0  0.33275081395800743  0.17450576107624  0.8252760190125626  1.0000
  H   H34       1.0  0.6748757803771284  0.8285667583435197  0.01561288817845249  1.0000
  H   H35       1.0  0.6439170325118866  0.3313558515339137  0.14242240857831212  1.0000
  H   H36       1.0  0.13402758199132597  0.6375649498809393  0.8278360789943662  1.0000
  H   H37       1.0  0.2769006689124751  0.9306604283752266  0.12426218759948424  1.0000
  H   H38       1.0  0.8635036510120672  0.17715529266733643  0.010877143980692741  1.0000
  H   H39       1.0  0.9827498627825906  0.9816709995107473  0.15506297795903376  1.0000
  H   H40       1.0  0.15203136487348717  0.1272331281592758  0.9868114369881698  1.0000
  C   C1        1.0  0.2994429815970392  0.07775658861240227  0.016568580170982658  1.0000
  C   C2        1.0  0.8275653577575212  0.029692895016530853  0.11702580964760748  1.0000
  C   C3        1.0  0.6626020742445747  0.27852097407154713  0.2532844397936174  1.0000
  C   C4        1.0  0.11220975128208723  0.7084169828497408  0.7299336860958405  1.0000
  C   C5        1.0  0.45809706554381796  0.833081251581511  0.2413169999884771  1.0000
  C   C6        1.0  0.49529102715393264  0.9402171242315872  0.7316278803708016  1.0000
  C   C7        1.0  0.49675213292258746  0.3050366397286905  0.8991991670405779  1.0000
  C   C8        1.0  0.5136630572793521  0.6958053252448264  0.9284338859696247  1.0000
  C   C9        1.0  0.021981285420871223  0.017727945663423804  0.12025834918625121  1.0000
  C   C10       1.0  0.11850809801111241  0.09938132545506309  0.02817370926133829  1.0000
  C   C11       1.0  0.9802436555374002  0.06726762871188895  0.07450332008648523  1.0000
  C   C12       1.0  0.16016100528607072  0.04950751164236779  0.07354672826512139  1.0000
  C   C13       1.0  0.024662189718739604  0.09861243162465169  0.019231568091903704  1.0000
  C   C14       1.0  0.10243525277632409  0.9985910022636587  0.11281468303121756  1.0000
  C   C15       1.0  0.12402593894978513  0.8945006361953031  0.20414949140555194  1.0000
  C   C16       1.0  0.8761415903056005  0.009725769191170474  0.8713781720486863  1.0000
  C   C17       1.0  0.0751933900599226  0.7145182950375568  0.1265464134423979  1.0000
  C   C18       1.0  0.8769026544881556  0.06977881583618731  0.755867961541682  1.0000
  C   C19       1.0  0.3140468616710874  0.18368158465113263  0.6020332338890171  1.0000
  C   C20       1.0  0.6397783989249533  0.7461463781115683  0.22722266704029423  1.0000
  C   C21       1.0  0.38868955809035544  0.2679728064554039  0.6821427550999954  1.0000
  C   C22       1.0  0.5853580875779798  0.6767404422230854  0.1377714725251664  1.0000
  C   C23       1.0  0.6394696442311485  0.17705623575587734  0.24086324989661986  1.0000
  C   C24       1.0  0.17121055578637379  0.8123333935590152  0.7502832519483534  1.0000
  C   C25       1.0  0.3609692831101015  0.3225422301874302  0.7410948457044171  1.0000
  C   C26       1.0  0.6355145848125119  0.6696555252320663  0.08229476250343026  1.0000
  C   C27       1.0  0.25472315045324473  0.2882314103700451  0.7166663369464459  1.0000
  C   C28       1.0  0.7423460920130438  0.7355084173061925  0.11982311515995986  1.0000
  C   C29       1.0  0.17902678817696235  0.20376863699746653  0.6366579236131927  1.0000
  C   C30       1.0  0.7977147252835978  0.80621308382819  0.20934162117872993  1.0000
  C   C31       1.0  0.20911467668874212  0.1516652695740817  0.5792405461988822  1.0000
  C   C32       1.0  0.7460376616010009  0.8111234753341847  0.26306769387813483  1.0000
  C   C33       1.0  0.4528673268137737  0.5111538352531111  0.8355430657753401  1.0000
  C   C34       1.0  0.5671994699490169  0.4906460344817558  0.9786878662524001  1.0000
  C   C35       1.0  0.5180088558245545  0.5991528062066533  0.9162421909474786  1.0000
  C   C36       1.0  0.500589887984333  0.4019532088928342  0.8984120739592711  1.0000
  C   C37       1.0  0.5755022875654915  0.5873393957677276  0.9896626145253362  1.0000
  C   C38       1.0  0.4409028296807024  0.41301275574211604  0.8258518844647326  1.0000
  C   C39       1.0  0.11009008540197131  0.7991213369524174  0.2051081654468589  1.0000
  C   C40       1.0  0.8322730060251831  0.9935548072367978  0.7827097277412847  1.0000
  C   C41       1.0  0.037392397042211256  0.6231711280272949  0.6426739029737619  1.0000
  C   C42       1.0  0.7264291761609627  0.36762586971250494  0.3401138358943072  1.0000
  C   C43       1.0  0.769431836464996  0.5251434456515155  0.4633638542884596  1.0000
  C   C44       1.0  0.9926952397406981  0.4664333999632788  0.5183834105030486  1.0000
  C   C45       1.0  0.38955347774655286  0.7763144727844986  0.15039191974864244  1.0000
  C   C46       1.0  0.5792736232630489  0.02118949048175255  0.8111975689687867  1.0000
  C   C47       1.0  0.7023077360378667  0.4449420026748924  0.38006949631126463  1.0000
  C   C48       1.0  0.06235121035145862  0.547926488263286  0.5995569118642196  1.0000
  C   C49       1.0  0.8220723120692525  0.3782120583813222  0.3894866913667271  1.0000
  C   C50       1.0  0.9408494190191875  0.6129097920657499  0.5967376552492778  1.0000
  C   C51       1.0  0.8946938899542829  0.45818776550662915  0.4740669934243227  1.0000
  C   C52       1.0  0.8664947392482177  0.5330727676578775  0.5116110803987652  1.0000
  C   C53       1.0  0.44937577863845496  0.8277462236111504  0.32224374490233026  1.0000
  C   C54       1.0  0.4808416116759916  0.923981182082862  0.6403344717409425  1.0000
  C   C55       1.0  0.4568513996559105  0.995939491131338  0.530615954820746  1.0000
  C   C56       1.0  0.4580981050986708  0.7474990520910224  0.42690830590881734  1.0000
  C   C57       1.0  0.46979213122730096  0.0012518917781106122  0.6137367463764675  1.0000
  C   C58       1.0  0.4521984139250251  0.7462670354260651  0.34575877821121986  1.0000
  C   C59       1.0  0.47708607759133065  0.8408518955958613  0.5791570059863318  1.0000
  C   C60       1.0  0.44562399270044034  0.9067908715241797  0.38185499788009014  1.0000
  C   C61       1.0  0.4627001746803927  0.8312818813965135  0.491269762321167  1.0000
  C   C62       1.0  0.4538949385161645  0.9125318394832292  0.4673999459652621  1.0000
  C   C63       1.0  0.05584609367337386  0.7255124529122908  0.04644164084895414  1.0000
  C   C64       1.0  0.9636722383418503  0.1630364924089136  0.8189187274520008  1.0000
  C   C65       1.0  0.07013361076030833  0.8203039662925419  0.045509310188805316  1.0000
  C   C66       1.0  0.008709963196352456  0.1787609833431175  0.9077957454554165  1.0000
  C   C67       1.0  0.5836821171484348  0.29845761316374114  0.9478641806775344  1.0000
  C   C68       1.0  0.4223268973049698  0.7042646082689428  0.9018957176323567  1.0000
  C   C69       1.0  0.10376177075633555  0.906055822793867  0.12441546155995545  1.0000
  C   C70       1.0  0.9669039230820292  0.10136786060733288  0.9348420008153228  1.0000
  C   C71       1.0  0.5419603220709349  0.910401066744498  0.24127616374628488  1.0000
  C   C72       1.0  0.4230654535846411  0.8928607360832642  0.7605207335947597  1.0000
  C   C73       1.0  0.41476067505567477  0.20527486704384737  0.866236898946596  1.0000
  C   C74       1.0  0.5916823597571225  0.7981160335865454  0.9826910512512513  1.0000
  C   C75       1.0  0.6376686524305483  0.2713588798109398  0.16604736823954613  1.0000
  C   C76       1.0  0.15526351925684176  0.7038561481070147  0.8117335266879097  1.0000
  C   C77       1.0  0.29111515354218653  0.9756413597854702  0.08629855297279221  1.0000
  C   C78       1.0  0.8422861490464584  0.13022594574929494  0.045959649040611165  1.0000
  C   C79       1.0  0.24782760676728796  0.037937817663987475  0.06403272307508696  1.0000
  C   C80       1.0  0.889442049973674  0.07558003415069678  0.07869800497851276  1.0000
  I   I1        1.0  0.20506162957834567  0.36151736660692524  0.8034893307505727  1.0000
  I   I2        1.0  0.8237563977832849  0.7286707165779375  0.041782339037226196  1.0000
  I   I3        1.0  0.2128214605919113  0.5653911798309749  0.6550052810729667  1.0000
  I   I4        1.0  0.5591946725027128  0.4357250136296287  0.30984223942767386  1.0000
  I   I5        1.0  0.424531650928138  0.021202872884423005  0.3432220096401579  1.0000
  I   I6        1.0  0.499922672757478  0.7294303428118667  0.6210609091497331  1.0000
  I   I7        1.0  0.2573492397128234  0.6339044332153917  0.08586311024736662  1.0000
  I   I8        1.0  0.7089803878755917  0.14501952894453032  0.8283082235535274  1.0000
  N   N1        1.0  0.3638343540536512  0.038818687508545155  0.00824993312829741  1.0000
  N   N2        1.0  0.7504368572630965  0.05444659798809683  0.10728456619727912  1.0000
  N   N3        1.0  0.604368490006273  0.1146271329024201  0.15602981721228554  1.0000
  N   N4        1.0  0.24323584973667778  0.8656587009905362  0.834507222077356  1.0000
  N   N5        1.0  0.4272240928082168  0.8189938081890488  0.10092820681661134  1.0000
  N   N6        1.0  0.5595482879053504  0.01865420471712987  0.8811695223044393  1.0000
  N   N7        1.0  0.5560763946950403  0.20364892391454245  0.9447404856054362  1.0000
  N   N8        1.0  0.44458075818666026  0.8034942083846486  0.9396864163309573  1.0000
  N   N9        1.0  0.5235892605250569  0.9014988611617838  0.15824356303863135  1.0000
  N   N10       1.0  0.461460943490934  0.9417130100604535  0.850222123287878  1.0000
  N   N11       1.0  0.4508608824782954  0.14503841151844898  0.8943686151179833  1.0000
  N   N12       1.0  0.5489897888225882  0.8617761911430432  0.9894196029507966  1.0000
  N   N13       1.0  0.6039365399078421  0.17373415108541934  0.10915852878128614  1.0000
  N   N14       1.0  0.23251716895870816  0.7970154844245912  0.8736153218615145  1.0000
  N   N15       1.0  0.3585225728905145  0.9751048034714456  0.050968254572460014  1.0000
  N   N16       1.0  0.7592922185514511  0.11707564297559257  0.06261146482874826  1.0000
  F   F1        1.0  0.9149508972183328  0.6838399961873447  0.6350552580372976  1.0000
  F   F2        1.0  0.8510812238993283  0.30863126629837717  0.3541058628432906  1.0000
  F   F3        1.0  0.6523111483653922  0.14174137739679787  0.30435791896100267  1.0000
  F   F4        1.0  0.16464393063032665  0.8600221831725179  0.6954261316258014  1.0000
