data_image0
_chemical_formula_structural       Zr6H66C84S20N6O32
_chemical_formula_sum              "Zr6 H66 C84 S20 N6 O32"
_cell_length_a       11.417650913732194
_cell_length_b       20.537073001786727
_cell_length_c       33.49065644044855
_cell_angle_alpha    89.62725105301169
_cell_angle_beta     98.55069368708446
_cell_angle_gamma    89.90401890832437

_space_group_name_H-M_alt    "P 1"
_space_group_IT_number       1

loop_
  _space_group_symop_operation_xyz
  'x, y, z'

loop_
  _atom_site_type_symbol
  _atom_site_label
  _atom_site_symmetry_multiplicity
  _atom_site_fract_x
  _atom_site_fract_y
  _atom_site_fract_z
  _atom_site_occupancy
  Zr  Zr1       1.0  0.023342999307295994  0.08384939338596097  0.0445294219229666  1.0000
  Zr  Zr2       1.0  0.9647629624545714  0.883538663294821  0.9633946986041266  1.0000
  Zr  Zr3       1.0  0.16526702898876516  0.9309371831731567  0.0472605349579567  1.0000
  Zr  Zr4       1.0  0.826897542619619  0.034358711492132  0.9601076451040312  1.0000
  Zr  Zr5       1.0  0.13765393883926438  0.028745516014396295  0.954746953907353  1.0000
  Zr  Zr6       1.0  0.8486909039660588  0.9375501274392589  0.04922455167343291  1.0000
  H   H1        1.0  0.9908629633151234  0.13320353312423083  0.9555957545358424  1.0000
  H   H2        1.0  0.2120775621653976  0.8965173913574772  0.9646462817869476  1.0000
  H   H3        1.0  0.7247839498136484  0.9122148178363215  0.9689284257698815  1.0000
  H   H4        1.0  0.0313174368846276  0.9846943618652372  0.1074217690363639  1.0000
  H   H5        1.0  0.3495973326926319  0.9793477288697046  0.0025072366377401067  1.0000
  H   H6        1.0  0.14115048567381897  0.8229653766178371  0.0962219051485818  1.0000
  H   H7        1.0  0.8687238579546629  0.8386258960226055  0.1037882987865117  1.0000
  H   H8        1.0  0.11390822793504897  0.09014739091434616  0.8824377852207945  1.0000
  H   H9        1.0  0.7052832863136443  0.08277919124608249  0.8836048531653588  1.0000
  H   H10       1.0  0.5971441749000802  0.06636454046417128  0.9779531097698707  1.0000
  H   H11       1.0  0.6024110915328649  0.9209127610747244  0.035569693477981404  1.0000
  H   H12       1.0  0.18940929516194416  0.9801905295538872  0.883891287534631  1.0000
  H   H13       1.0  0.9584297729907971  0.8225291183321344  0.8900889859364509  1.0000
  H   H14       1.0  0.9967465394808739  0.11344689858017173  0.1226488002318078  1.0000
  H   H15       1.0  0.72084180483872  0.021177700052085392  0.0889851334016143  1.0000
  H   H16       1.0  0.726996941146595  0.14004528233381558  0.9158638653762452  1.0000
  H   H17       1.0  0.0569639397210295  0.7878041477187023  0.9223275408070464  1.0000
  H   H18       1.0  0.39326779335748796  0.950331928022109  0.06116368515183981  1.0000
  H   H19       1.0  0.35544043928608454  0.9880330482893523  0.9544818959581036  1.0000
  H   H20       1.0  0.6366917064911773  0.9976813570803387  0.0006081018707746042  1.0000
  H   H21       1.0  0.0374838013759771  0.871868565771265  0.1043223688119497  1.0000
  H   H22       1.0  0.8540970157091792  0.05188337434047698  0.0993723239304956  1.0000
  H   H23       1.0  0.7087741963316602  0.4862416674647888  0.0005330595906300955  1.0000
  H   H24       1.0  0.2796377203477575  0.47627643328542757  0.009246307697715403  1.0000
  H   H25       1.0  0.23711992550121147  0.03054517273417899  0.5069846285390938  1.0000
  H   H26       1.0  0.8047624020309738  0.00013467187856969939  0.49010757933481125  1.0000
  H   H27       1.0  0.8483175784517129  0.9830581205761316  0.7014353515882659  1.0000
  H   H28       1.0  0.8538061225349691  0.8915657269269629  0.4913592000726439  1.0000
  H   H29       1.0  0.6616883480818884  0.8782325358007054  0.5810955891754402  1.0000
  H   H30       1.0  0.0053386891394354  0.024691558149896785  0.6075706226276409  1.0000
  H   H31       1.0  0.3977386057724459  0.8180439620635974  0.6529757649013703  1.0000
  H   H32       1.0  0.0917149957236205  0.10439191996282196  0.5650199350905679  1.0000
  H   H33       1.0  0.36046443235477443  0.05019533200317028  0.6498693455900194  1.0000
  H   H34       1.0  0.1670532744924316  0.8782243611113001  0.5599331768671334  1.0000
  H   H35       1.0  0.18520830455812384  0.0494426084694908  0.2945914467013111  1.0000
  H   H36       1.0  0.179813626510942  0.1439435095735035  0.5021675836750177  1.0000
  H   H37       1.0  0.3732664598412966  0.15420997767537867  0.41280983876912797  1.0000
  H   H38       1.0  0.0294789549887184  0.007766152452894896  0.3888116748662468  1.0000
  H   H39       1.0  0.5875039139330838  0.2019445914775274  0.35706164538368057  1.0000
  H   H40       1.0  0.9633305701199288  0.9260812618823164  0.4290816433796961  1.0000
  H   H41       1.0  0.6804154819287476  0.9748494812442202  0.3486635593784512  1.0000
  H   H42       1.0  0.8637147962721341  0.14935409539617683  0.43842686912604006  1.0000
  H   H43       1.0  0.8253282607130997  0.18554971646764776  0.08274281413761739  1.0000
  H   H44       1.0  0.6420816145337084  0.4402612248716266  0.9331228530400111  1.0000
  H   H45       1.0  0.7465057585946794  0.257984430728726  0.941443264999755  1.0000
  H   H46       1.0  0.6283108960454626  0.3460780191667112  0.0666455313889003  1.0000
  H   H47       1.0  0.3577781801564939  0.5467867832925746  0.9313287697588776  1.0000
  H   H48       1.0  0.2993082113441615  0.7678442013527583  0.0924194116188204  1.0000
  H   H49       1.0  0.3624256905530671  0.5953156682906097  0.0702476592260837  1.0000
  H   H50       1.0  0.22109561329352795  0.7204519696766877  0.9459669980553683  1.0000
  H   H51       1.0  0.6922413769395064  0.8068821680795252  0.06948289813134778  1.0000
  H   H52       1.0  0.5678881178526821  0.5760352532368883  0.9144119113266667  1.0000
  H   H53       1.0  0.7778339318210924  0.7031655204681043  0.9499090961289978  1.0000
  H   H54       1.0  0.5628934758967289  0.631027952887031  0.05930215559120461  1.0000
  H   H55       1.0  0.28078767817670064  0.15957960125073356  0.9347154310548831  1.0000
  H   H56       1.0  0.39297138412891286  0.4256176155161312  0.0765163000677376  1.0000
  H   H57       1.0  0.2272951370400378  0.253792051180845  0.0609804323406067  1.0000
  H   H58       1.0  0.41716985197066947  0.33556220246976654  0.9475302652853657  1.0000
  H   H59       1.0  0.8137681367555416  0.8645212413927221  0.7167332385937255  1.0000
  H   H60       1.0  0.5552139294225071  0.9974908238763831  0.8864557811839332  1.0000
  H   H61       1.0  0.5095402757504813  0.9904919934752525  0.7675647656490838  1.0000
  H   H62       1.0  0.8430840483794029  0.8571282559968975  0.8336031843311316  1.0000
  H   H63       1.0  0.19198194215640288  0.16297897768472314  0.1198348350525791  1.0000
  H   H64       1.0  0.5642361002246189  0.9744435449749741  0.27028641019517613  1.0000
  H   H65       1.0  0.387355651107562  0.96149893501029  0.15960185429367604  1.0000
  H   H66       1.0  0.3081301940960229  0.15656411205523568  0.2365068151402809  1.0000
  C   C1        1.0  0.2075410430258771  0.16865885958193869  0.0033568877123500034  1.0000
  C   C2        1.0  0.8046181000760768  0.17723293255392034  0.002889195214955  1.0000
  C   C3        1.0  0.24778093529891976  0.041212605052017195  0.1142162012170118  1.0000
  C   C4        1.0  0.1684828355359613  0.7816479624946308  0.009892762393157298  1.0000
  C   C5        1.0  0.786412844381239  0.7929815694141239  0.004978944998420312  1.0000
  C   C6        1.0  0.7600414407625777  0.9285051057593205  0.8870821689976366  1.0000
  C   C7        1.0  0.5599150483205974  0.42344919518050966  0.003708909029647609  1.0000
  C   C8        1.0  0.4379294770647205  0.4203078298262781  0.006476946354482  1.0000
  C   C9        1.0  0.3741713992135161  0.47843259132636684  0.0074495154302525075  1.0000
  C   C10       1.0  0.4282209327783946  0.5391510402390906  0.005359690217140697  1.0000
  C   C11       1.0  0.5504019302913646  0.542268644091038  0.0024388312771677027  1.0000
  C   C12       1.0  0.6140003324899724  0.48410311991605676  0.001791592524675398  1.0000
  C   C13       1.0  0.42217688837778405  0.07016394307039057  0.28357900767141325  1.0000
  C   C14       1.0  0.3573883037600041  0.09665921312470967  0.3428935197033169  1.0000
  C   C15       1.0  0.5535644518601258  0.08171492544188647  0.3406069450574165  1.0000
  C   C16       1.0  0.6165657169761829  0.9320144126086659  0.7140099462143039  1.0000
  C   C17       1.0  0.4804138951816128  0.9382794283710676  0.6576648300465279  1.0000
  C   C18       1.0  0.6753983053821456  0.9317443344486306  0.6514083446673593  1.0000
  C   C19       1.0  0.0739085289289392  0.04242625363808369  0.4660630315393063  1.0000
  C   C20       1.0  0.9504436142376134  0.0319181418295713  0.46167063403792236  1.0000
  C   C21       1.0  0.9006971511008217  0.005593930880159799  0.49386704777419504  1.0000
  C   C22       1.0  0.9679291530199734  0.9875538407290632  0.5307781712912245  1.0000
  C   C23       1.0  0.0915210204949659  0.9977045668962458  0.5352704090507601  1.0000
  C   C24       1.0  0.1413185733377773  0.024447005270317793  0.5030969430828733  1.0000
  C   C25       1.0  0.766033318912491  0.9377673383455513  0.6248843433514892  1.0000
  C   C26       1.0  0.7405885082134703  0.9086097097897646  0.586805851495754  1.0000
  C   C27       1.0  0.8107187722765017  0.9176988323196791  0.5565748742413845  1.0000
  C   C28       1.0  0.905065406493712  0.9633492290515444  0.5634518314501163  1.0000
  C   C29       1.0  0.9328054927968521  0.9899742543549761  0.6019859535464036  1.0000
  C   C30       1.0  0.8690325876224065  0.9766324679737505  0.6337225748483561  1.0000
  C   C31       1.0  0.36020996308094766  0.9488112142815194  0.6343559643355334  1.0000
  C   C32       1.0  0.3171202112841272  0.012476340976995497  0.630154687503655  1.0000
  C   C33       1.0  0.22571248227249896  0.029395030984204592  0.5990805288661747  1.0000
  C   C34       1.0  0.17488953984726407  0.9807154778060929  0.5723887392882928  1.0000
  C   C35       1.0  0.21050191876376798  0.9160069953695422  0.5795501612153658  1.0000
  C   C36       1.0  0.3033313662653326  0.8991837711346943  0.6099777130003972  1.0000
  C   C37       1.0  0.26652561123448487  0.09470167446846028  0.3694773427538179  1.0000
  C   C38       1.0  0.29463117072861417  0.1235745942726396  0.407689145590126  1.0000
  C   C39       1.0  0.2284400833114901  0.11333029401489368  0.4388393533983005  1.0000
  C   C40       1.0  0.134286367326574  0.06737231742482658  0.43286830084660716  1.0000
  C   C41       1.0  0.10225238402106379  0.0422887065531512  0.3941384141858109  1.0000
  C   C42       1.0  0.1619894950917171  0.05659862081368769  0.3614317437255465  1.0000
  C   C43       1.0  0.6723860373215587  0.07547101704555097  0.3649170838822684  1.0000
  C   C44       1.0  0.721592331733646  0.012962923732857198  0.3685371701208382  1.0000
  C   C45       1.0  0.8158528114305383  0.9977527470575676  0.39877070658261  1.0000
  C   C46       1.0  0.8650652277908362  0.04755701094884299  0.42489073035228836  1.0000
  C   C47       1.0  0.8227778497441135  0.11111568452549385  0.4186191626160677  1.0000
  C   C48       1.0  0.7256076784843584  0.1262552698847372  0.3893598225299256  1.0000
  C   C49       1.0  0.7443226265655624  0.24128582023948997  0.004731664776436215  1.0000
  C   C50       1.0  0.7202744659981803  0.2776382332552244  0.9690030674753343  1.0000
  C   C51       1.0  0.6656382242778419  0.3386804236920397  0.9677178054241294  1.0000
  C   C52       1.0  0.6296669504812726  0.362463776348953  0.0034478038686885015  1.0000
  C   C53       1.0  0.6559341494684503  0.32666575868445585  0.039239154801386206  1.0000
  C   C54       1.0  0.7149987686897745  0.26648802766987245  0.0411677259739491  1.0000
  C   C55       1.0  0.35621422450667944  0.5993837758751537  0.005975965273350399  1.0000
  C   C56       1.0  0.3310889034782107  0.622995362930254  0.0428100809874579  1.0000
  C   C57       1.0  0.27472221499449023  0.6828621673138499  0.0462242075168007  1.0000
  C   C58       1.0  0.23357865020591356  0.7181778803120336  0.010519429251317504  1.0000
  C   C59       1.0  0.25420505600442306  0.6932362755137332  0.9733951693309919  1.0000
  C   C60       1.0  0.3164924975515929  0.6352430530630852  0.9705010933691156  1.0000
  C   C61       1.0  0.7255816661809077  0.7291377555315888  0.006514351557662218  1.0000
  C   C62       1.0  0.7303945093296063  0.686614775491442  0.9739688469350511  1.0000
  C   C63       1.0  0.6748758774881835  0.6262035786255921  0.9708829107890792  1.0000
  C   C64       1.0  0.6126314675325943  0.6055902306805404  0.0023021508318593047  1.0000
  C   C65       1.0  0.6092767184723938  0.6470581412427732  0.0348437407431632  1.0000
  C   C66       1.0  0.6618795085745361  0.7089121347555787  0.0377560915399826  1.0000
  C   C67       1.0  0.26951134119067177  0.23231548131799679  0.0024234436603336033  1.0000
  C   C68       1.0  0.27010521231576223  0.2724288825361255  0.0362655087852204  1.0000
  C   C69       1.0  0.32424884563348394  0.3333767888157622  0.0394184352557119  1.0000
  C   C70       1.0  0.3775416906398873  0.35644249096558395  0.006548344106249699  1.0000
  C   C71       1.0  0.37615817020450487  0.3170223107262657  0.9727572491022584  1.0000
  C   C72       1.0  0.32559533031859184  0.2547382998033853  0.9698026448707963  1.0000
  C   C73       1.0  0.6493844239345704  0.9257488075483802  0.7581814983067331  1.0000
  C   C74       1.0  0.5844787577874726  0.9621287887975353  0.7825859766006003  1.0000
  C   C75       1.0  0.6136553962894736  0.9646415297622323  0.8246535271663901  1.0000
  C   C76       1.0  0.709580214822118  0.9256466893549481  0.8432421008040976  1.0000
  C   C77       1.0  0.7695297765876106  0.8865654068587286  0.8188755640295895  1.0000
  C   C78       1.0  0.7447484590721131  0.8861458763199859  0.7767564237650362  1.0000
  C   C79       1.0  0.3046651053355092  0.0551398101522125  0.1563659002877813  1.0000
  C   C80       1.0  0.37371003946184794  0.0050483925132595985  0.1767698432934068  1.0000
  C   C81       1.0  0.4220834089293247  0.008266359135369297  0.21750881079317  1.0000
  C   C82       1.0  0.39287041392854855  0.06329333520250909  0.23933881122047038  1.0000
  C   C83       1.0  0.3273740725254227  0.11413517330126409  0.21910790841720026  1.0000
  C   C84       1.0  0.2855144115274939  0.11302092217356116  0.1776108244227643  1.0000
  S   S1        1.0  0.7724429701462936  0.8690896185832666  0.5133537136271683  1.0000
  S   S2        1.0  0.9200287171128918  0.01610272609730149  0.6794255944721286  1.0000
  S   S3        1.0  0.18184360968432858  0.11193623465041468  0.595654850979102  1.0000
  S   S4        1.0  0.3488223882338843  0.8169503838979535  0.6137371791925048  1.0000
  S   S5        1.0  0.2716979676464675  0.15944653678655374  0.48292528679820634  1.0000
  S   S6        1.0  0.10347317932650668  0.021016601878571396  0.31542134015343487  1.0000
  S   S7        1.0  0.8636866695340257  0.915788681946118  0.40270894850937106  1.0000
  S   S8        1.0  0.6808358094712901  0.20833289899799462  0.3864928157147745  1.0000
  S   S9        1.0  0.6339305694026719  0.37788848641200434  0.9201125111617328  1.0000
  S   S10       1.0  0.7359901752895224  0.2269428736165152  0.08845658366203679  1.0000
  S   S11       1.0  0.25829891495202156  0.7067273952161626  0.0959333716344375  1.0000
  S   S12       1.0  0.34203306612216267  0.610670997026496  0.9220854237192525  1.0000
  S   S13       1.0  0.6861007833903727  0.5783181052988976  0.9274691696031352  1.0000
  S   S14       1.0  0.6375569429788754  0.7523978160183161  0.0807109775680814  1.0000
  S   S15       1.0  0.3248686872114703  0.3753985849765939  0.0853236153738024  1.0000
  S   S16       1.0  0.33833120927345556  0.21388861342856555  0.9247332728346791  1.0000
  S   S17       1.0  0.5250967095626392  0.018965247267324497  0.8481057475826714  1.0000
  S   S18       1.0  0.8318425868069639  0.8324595236081789  0.7527667539464176  1.0000
  S   S19       1.0  0.5049869097143754  0.9409000930218592  0.2388564525404604  1.0000
  S   S20       1.0  0.21300121319059426  0.18466858299184705  0.1584778331022179  1.0000
  N   N1        1.0  0.330957155665743  0.08645612330776939  0.3028406379605286  1.0000
  N   N2        1.0  0.4699048155341926  0.10298235387821109  0.36140253635907976  1.0000
  N   N3        1.0  0.5338325997578509  0.06053115219714297  0.3020888400930275  1.0000
  N   N4        1.0  0.5017346744458777  0.9409317154268776  0.6982098213384873  1.0000
  N   N5        1.0  0.5624982396209646  0.9304061454227935  0.6332844628430079  1.0000
  N   N6        1.0  0.7056965566093324  0.9301680030314754  0.6918875488578351  1.0000
  O   O1        1.0  0.9465217931403485  0.10641774834957117  0.09693658914585511  1.0000
  O   O2        1.0  0.1395320954695265  0.16139317995683194  0.0303750526949358  1.0000
  O   O3        1.0  0.18150722554437948  0.08473722108212907  0.09492482907869967  1.0000
  O   O4        1.0  0.7598362641251483  0.1370550428687024  0.9755890232940773  1.0000
  O   O5        1.0  0.26338862489733117  0.9847297826927881  0.10008299342258199  1.0000
  O   O6        1.0  0.8968424407065072  0.16719371002309905  0.028113339762612117  1.0000
  O   O7        1.0  0.22268175648759578  0.12511169130105768  0.9778036391543239  1.0000
  O   O8        1.0  0.13053502974700137  0.0190818189472495  0.019534885128671  1.0000
  O   O9        1.0  0.9854581091383281  0.09410620282197608  0.9718689538557683  1.0000
  O   O10       1.0  0.023188338661427096  0.9835402030939586  0.07813154332605879  1.0000
  O   O11       1.0  0.873971569326322  0.029254589117598994  0.02087381340169261  1.0000
  O   O12       1.0  0.6347352765584943  0.024826578706821995  0.973708125386288  1.0000
  O   O13       1.0  0.3391452857586827  0.011481375183549898  0.9784800187139239  1.0000
  O   O14       1.0  0.9674557219156412  0.9792737039480738  0.9452490520180774  1.0000
  O   O15       1.0  0.1514150938735455  0.9179456509304269  0.9773986864711758  1.0000
  O   O16       1.0  0.9915122182413683  0.8989704975965931  0.022848500229741813  1.0000
  O   O17       1.0  0.8000132963199391  0.9318499604065875  0.9796395520123794  1.0000
  O   O18       1.0  0.3441323547755673  0.9309082752893896  0.0380694066715463  1.0000
  O   O19       1.0  0.20165944350873835  0.8219494950223518  0.0377837837154971  1.0000
  O   O20       1.0  0.085021862377431  0.7913978065049388  0.980458239477521  1.0000
  O   O21       1.0  0.8037738765065824  0.009925452145580495  0.09756727600706232  1.0000
  O   O22       1.0  0.8448242506758417  0.8031610134870277  0.9757255181544409  1.0000
  O   O23       1.0  0.1275669060234534  0.8686349052089778  0.1022712351335215  1.0000
  O   O24       1.0  0.9037447285521906  0.8812458917106907  0.10113222526619128  1.0000
  O   O25       1.0  0.6605729295214643  0.9557446123943476  0.03829233864615131  1.0000
  O   O26       1.0  0.7767661913988205  0.8350769949215645  0.032441775138409006  1.0000
  O   O27       1.0  0.031413193291932394  0.829222303007597  0.9089475719845124  1.0000
  O   O28       1.0  0.7640194044909092  0.10301634649095345  0.9042502372379032  1.0000
  O   O29       1.0  0.8269024242330969  0.8824898112423649  0.9027793088432219  1.0000
  O   O30       1.0  0.7352778516261222  0.9793959569126824  0.9058482471631635  1.0000
  O   O31       1.0  0.08206274868398108  0.09070780010505786  0.9076712090008384  1.0000
  O   O32       1.0  0.2187829965454995  0.9782840653506069  0.9125372978847038  1.0000
