data_image0
_chemical_formula_structural       Al4H11C32NO27
_chemical_formula_sum              "Al4 H11 C32 N1 O27"
_cell_length_a       6.674892555254169
_cell_length_b       16.734875987760518
_cell_length_c       18.53339289575607
_cell_angle_alpha    74.16651634717101
_cell_angle_beta     89.83449934019781
_cell_angle_gamma    89.92841696251658

_space_group_name_H-M_alt    "P 1"
_space_group_IT_number       1

loop_
  _space_group_symop_operation_xyz
  'x, y, z'

loop_
  _atom_site_type_symbol
  _atom_site_label
  _atom_site_symmetry_multiplicity
  _atom_site_fract_x
  _atom_site_fract_y
  _atom_site_fract_z
  _atom_site_occupancy
  Al  Al1       1.0  0.12589623491654578  0.5025490616464906  0.49823612009176077  1.0000
  Al  Al2       1.0  0.6271032831534316  0.5006953876834359  0.5008278327685429  1.0000
  Al  Al3       1.0  0.6162760174024413  0.002543217371488997  0.999461479711044  1.0000
  Al  Al4       1.0  0.1159027072263612  0.9992368894849265  0.0010420471487150877  1.0000
  H   H1        1.0  0.17103352334310526  0.7887920718125799  0.16967694261564498  1.0000
  H   H2        1.0  0.183805486454709  0.6705938082161109  0.2863937977303764  1.0000
  H   H3        1.0  0.54142390131463  0.6571610300938957  0.3711740612091106  1.0000
  H   H4        1.0  0.4152643915461168  0.8078188658668991  0.2486580583490863  1.0000
  H   H5        1.0  0.05711915791987109  0.10967389229103468  0.8345355505813215  1.0000
  H   H6        1.0  0.7751256645523268  0.28148229325884705  0.8183517732654906  1.0000
  H   H7        1.0  0.6921131223630752  0.3892708686981338  0.6703970578391745  1.0000
  H   H8        1.0  0.37512737844009086  0.5960966863263621  0.5192317451651716  1.0000
  H   H9        1.0  0.8809685088702041  0.3928182120063113  0.5110567564927848  1.0000
  H   H10       1.0  0.372691802905635  0.8984781547898848  0.048765532868983996  1.0000
  H   H11       1.0  0.8693977422660878  0.1045949991766904  0.004789803173665098  1.0000
  C   C1        1.0  0.37989403125740034  0.41492053437857374  0.4154761564915432  1.0000
  C   C2        1.0  0.36875676992591616  0.3870861360968192  0.6134739812512178  1.0000
  C   C3        1.0  0.873575174680731  0.5901370741251954  0.5840741440241287  1.0000
  C   C4        1.0  0.8807024122937365  0.6138536397402847  0.3832661941229532  1.0000
  C   C5        1.0  0.692496794286491  0.7246340808415256  0.2903648136305319  1.0000
  C   C6        1.0  0.6860217821559261  0.7927676030507911  0.22504955430435564  1.0000
  C   C7        1.0  0.8604692436064029  0.8158835610058617  0.18197715013396729  1.0000
  C   C8        1.0  0.0388815371789022  0.7704359567522515  0.20481231780514964  1.0000
  C   C9        1.0  0.0458293054884038  0.7048926812352859  0.26877590374075305  1.0000
  C   C10       1.0  0.8722771834290766  0.6813566566629847  0.3130662247793693  1.0000
  C   C11       1.0  0.8629151908044861  0.870605982121667  0.8582189168061517  1.0000
  C   C12       1.0  0.8661518960859664  0.8269190208232687  0.81480646276065  1.0000
  C   C13       1.0  0.8690646438567384  0.7786679370417956  0.7677595393227604  1.0000
  C   C14       1.0  0.871415173725758  0.7338228605238086  0.7248293673027818  1.0000
  C   C15       1.0  0.8734411021612729  0.6853042419132649  0.6780282447185754  1.0000
  C   C16       1.0  0.8751814390166359  0.6410397803429148  0.6350437510016816  1.0000
  C   C17       1.0  0.3793204752839897  0.364080395125697  0.3643667195074869  1.0000
  C   C18       1.0  0.3755056669762168  0.3206173536048027  0.3207433702408408  1.0000
  C   C19       1.0  0.3714934697952899  0.27306286585491785  0.2731044510643912  1.0000
  C   C20       1.0  0.36799133295766506  0.22921886369456249  0.22933281921967108  1.0000
  C   C21       1.0  0.36592600205757014  0.18158573129191063  0.18172049574587124  1.0000
  C   C22       1.0  0.3652238449560201  0.13802458675650794  0.1381365947851165  1.0000
  C   C23       1.0  0.20733968241660253  0.25750592080845536  0.6978363233432316  1.0000
  C   C24       1.0  0.1958480470511077  0.19652727150108254  0.7669772966755274  1.0000
  C   C25       1.0  0.3612734811497447  0.18684327181578914  0.8181950599499358  1.0000
  C   C26       1.0  0.523481073499589  0.2423470520434137  0.8001126278928011  1.0000
  C   C27       1.0  0.5238353874681536  0.30723199306338955  0.7322970931116899  1.0000
  C   C28       1.0  0.36877693113444826  0.3144627445073951  0.68084275629284  1.0000
  C   C29       1.0  0.3633475858113471  0.11643826396785778  0.8867791409796836  1.0000
  C   C30       1.0  0.3693389236153095  0.0882043752696404  0.08586711420217338  1.0000
  C   C31       1.0  0.865737487527163  0.8858837673030279  0.11245613342430266  1.0000
  C   C32       1.0  0.8601373235774686  0.9197037546835318  0.9111450234293625  1.0000
  N   N1        1.0  0.0626465604510713  0.2564382758401962  0.6393667428433005  1.0000
  O   O1        1.0  0.5426898694898058  0.41300859001592005  0.5868466826860582  1.0000
  O   O2        1.0  0.20989502490071743  0.43292250574134516  0.43796594775256636  1.0000
  O   O3        1.0  0.049287337465756295  0.5836542065636864  0.40783739083779835  1.0000
  O   O4        1.0  0.20321988600127122  0.4201405016597448  0.5890358801016831  1.0000
  O   O5        1.0  0.042139506614269386  0.5752682258648605  0.5578565234157863  1.0000
  O   O6        1.0  0.5501949217332225  0.4376052423767831  0.43383821178106535  1.0000
  O   O7        1.0  0.37758670427867  0.553328915975122  0.49273916995385747  1.0000
  O   O8        1.0  0.7025512091583934  0.5646950339557859  0.5690762858570935  1.0000
  O   O9        1.0  0.7116311637140528  0.5906600272084217  0.4171340186857221  1.0000
  O   O10       1.0  0.8768889305564755  0.4514869366965896  0.5090035344100912  1.0000
  O   O11       1.0  0.2007004451545313  0.07406606256218849  0.059503426646870104  1.0000
  O   O12       1.0  0.5267778868266149  0.09402261314077262  0.9203502772062675  1.0000
  O   O13       1.0  0.6901356452893663  0.9458319635647285  0.9257562425051515  1.0000
  O   O14       1.0  0.5416581475089544  0.06437324055082881  0.0706136876795327  1.0000
  O   O15       1.0  0.7006367458016456  0.9104222268180068  0.07950953810770049  1.0000
  O   O16       1.0  0.1935044193970441  0.0806510762480386  0.9087144962038565  1.0000
  O   O17       1.0  0.36700715233249775  0.9508066070571459  0.00982076442304698  1.0000
  O   O18       1.0  0.0382808031812161  0.9155394569718778  0.08942383653691618  1.0000
  O   O19       1.0  0.028767091633263  0.9311267323152991  0.9386061532184582  1.0000
  O   O20       1.0  0.8680508383228016  0.051568742114376696  0.993067082101717  1.0000
  O   O21       1.0  0.5161779398274363  0.7072370841709059  0.3278008400687611  1.0000
  O   O22       1.0  0.5091490370168685  0.8335530588203497  0.2080723325358349  1.0000
  O   O23       1.0  0.8827128581459577  0.24665662818604517  0.6564136609766605  1.0000
  O   O24       1.0  0.1294549674872627  0.26506145665425157  0.5747319862308016  1.0000
  O   O25       1.0  0.038015526158893906  0.14538000887664992  0.7818267867124503  1.0000
  O   O26       1.0  0.6808984038089037  0.23874335615769135  0.8460292782836873  1.0000
  O   O27       1.0  0.6811291458546549  0.3604871435113139  0.7246176694395599  1.0000
