data_image0
_chemical_formula_structural       Al2H14C24N2O10F2
_chemical_formula_sum              "Al2 H14 C24 N2 O10 F2"
_cell_length_a       6.786389771147899
_cell_length_b       11.17434968460618
_cell_length_c       17.679774943603995
_cell_angle_alpha    81.7158960467753
_cell_angle_beta     79.9090079612396
_cell_angle_gamma    70.75956459577667

_space_group_name_H-M_alt    "P 1"
_space_group_IT_number       1

loop_
  _space_group_symop_operation_xyz
  'x, y, z'

loop_
  _atom_site_type_symbol
  _atom_site_label
  _atom_site_symmetry_multiplicity
  _atom_site_fract_x
  _atom_site_fract_y
  _atom_site_fract_z
  _atom_site_occupancy
  Al  Al1       1.0  0.49748050146173034  0.49950655607011646  0.5064887283828837  1.0000
  Al  Al2       1.0  0.9976344823317901  0.4988510718728423  0.506744149178381  1.0000
  H   H1        1.0  0.2579417657919476  0.5636510606298161  0.41019019710672905  1.0000
  H   H2        1.0  0.7715907308769944  0.3816749328227402  0.5881781690072215  1.0000
  H   H3        1.0  0.7566307197319729  0.10920349163514947  0.5011423272872262  1.0000
  H   H4        1.0  0.24361252396451485  0.884677066882695  0.5082160279611685  1.0000
  H   H5        1.0  0.5442201970198185  0.5116205487165004  0.2729621184017431  1.0000
  H   H6        1.0  0.6081542565025942  0.5218716255379975  0.12920993616224044  1.0000
  H   H7        1.0  0.20993052865578207  0.42346913830714794  0.2784902771986707  1.0000
  H   H8        1.0  0.7857319780780685  0.5727981306664846  0.7322331750708883  1.0000
  H   H9        1.0  0.449121074426145  0.4928960599910328  0.7383786736563848  1.0000
  H   H10       1.0  0.38373450596210296  0.4831757613469777  0.8823533668211068  1.0000
  H   H11       1.0  0.9883466204289065  0.7783937469414399  0.4675489387552147  1.0000
  H   H12       1.0  0.027589558081032757  0.9245573432108359  0.4660433212810702  1.0000
  H   H13       1.0  0.02959403929193627  0.2309303718297144  0.49350496436235863  1.0000
  H   H14       1.0  0.025719602892593185  0.11883103923142363  0.4411420556553835  1.0000
  C   C1        1.0  0.8308521637513093  0.47366674746422904  0.36999216775705424  1.0000
  C   C2        1.0  0.6248193940095631  0.7275168970132386  0.4934297347144748  1.0000
  C   C3        1.0  0.1649761820974332  0.5259722097486377  0.6413526847314728  1.0000
  C   C4        1.0  0.3722027410953642  0.26998312069306263  0.5121268137866577  1.0000
  C   C5        1.0  0.5672667056608984  0.8671131125870846  0.4907888828990109  1.0000
  C   C6        1.0  0.4323342045447234  0.13249174717802964  0.5013934549205743  1.0000
  C   C7        1.0  0.7202837749778725  0.9317273701836514  0.4821872942919612  1.0000
  C   C8        1.0  0.2813931522755907  0.07134195211315844  0.49640416693333117  1.0000
  C   C9        1.0  0.6449090561570049  0.0616132331726504  0.4950561544177035  1.0000
  C   C10       1.0  0.3538300299980718  0.9388494691967182  0.498541652913225  1.0000
  C   C11       1.0  0.8712722742108525  0.46897989441094273  0.2846973015900289  1.0000
  C   C12       1.0  0.7031980993153722  0.49443420904185614  0.2422778572270374  1.0000
  C   C13       1.0  0.7384676825886486  0.5006043140867363  0.16237262490448498  1.0000
  C   C14       1.0  0.9440563821114832  0.48126502562843854  0.12197962670987288  1.0000
  C   C15       1.0  0.11011533748290951  0.45150248403312093  0.16653422547284435  1.0000
  C   C16       1.0  0.07769394001740433  0.4453418509547264  0.24617794020760891  1.0000
  C   C17       1.0  0.9815812682453571  0.4940133802777141  0.04075588246919886  1.0000
  C   C18       1.0  0.010383217988966346  0.5086041992379082  0.9704107349707694  1.0000
  C   C19       1.0  0.048488697972714885  0.5207371685722892  0.8891716463199018  1.0000
  C   C20       1.0  0.8834995829720215  0.548138078923387  0.8443986419309937  1.0000
  C   C21       1.0  0.9167995816973543  0.5534070936585139  0.7647903494812593  1.0000
  C   C22       1.0  0.12322044729244637  0.5314705206360913  0.7266133590287538  1.0000
  C   C23       1.0  0.29040376051890593  0.5083500304785248  0.7691772005088919  1.0000
  C   C24       1.0  0.25411833263173383  0.5027338169655238  0.8490854483572858  1.0000
  N   N1        1.0  0.9307353976837903  0.8749742109209822  0.46152045105893064  1.0000
  N   N2        1.0  0.06847646476487766  0.13557076066820173  0.48998611393066227  1.0000
  O   O1        1.0  0.6404637332365936  0.4942873922701879  0.4020070933078016  1.0000
  O   O2        1.0  0.8226158780716019  0.6652200821403372  0.48394784186395146  1.0000
  O   O3        1.0  0.007817468824732794  0.5396390404354252  0.6068696718233183  1.0000
  O   O4        1.0  0.5167126654796804  0.32176268454767865  0.5061558302131814  1.0000
  O   O5        1.0  0.3555714000990946  0.5044466530621606  0.6095473087784737  1.0000
  O   O6        1.0  0.17415551688717557  0.3293314711336279  0.5277877982432813  1.0000
  O   O7        1.0  0.9893742056622729  0.4596438256919698  0.4040538807263303  1.0000
  O   O8        1.0  0.47928644841105933  0.6753014770609412  0.5042912591103172  1.0000
  O   O9        1.0  0.23782411299207235  0.5509749260571939  0.466110448042208  1.0000
  O   O10       1.0  0.7593297374971469  0.4452123878657659  0.5443126806118099  1.0000
  F   F1        1.0  0.31019076715498517  0.4303240045607525  0.12922131827293978  1.0000
  F   F2        1.0  0.683547659240844  0.5678650045150917  0.8816145999935611  1.0000
