data_image0
_chemical_formula_structural       Cd2H32C28S2N4O12
_chemical_formula_sum              "Cd2 H32 C28 S2 N4 O12"
_cell_length_a       7.052621177998182
_cell_length_b       10.595832710065515
_cell_length_c       10.595773633275552
_cell_angle_alpha    88.09288207828713
_cell_angle_beta     74.67780133257938
_cell_angle_gamma    74.6770561499517

_space_group_name_H-M_alt    "P 1"
_space_group_IT_number       1

loop_
  _space_group_symop_operation_xyz
  'x, y, z'

loop_
  _atom_site_type_symbol
  _atom_site_label
  _atom_site_symmetry_multiplicity
  _atom_site_fract_x
  _atom_site_fract_y
  _atom_site_fract_z
  _atom_site_occupancy
  Cd  Cd1       1.0  0.2500040217459158  0.2973196760100477  0.7026817221168571  1.0000
  Cd  Cd2       1.0  0.7499994498193769  0.7026807896442621  0.2973179906380565  1.0000
  H   H1        1.0  0.23874503359276386  0.7925012524045558  0.6117327494939886  1.0000
  H   H2        1.0  0.7387260279570212  0.6117380273092506  0.7924983313914353  1.0000
  H   H3        1.0  0.7612595068031637  0.20750017663336712  0.3882677044951137  1.0000
  H   H4        1.0  0.2612626948453708  0.38826267267678116  0.20750276765234332  1.0000
  H   H5        1.0  0.24396131848448024  0.7215470831825072  0.8378612067748819  1.0000
  H   H6        1.0  0.743949703925985  0.8378620525889174  0.721550239354272  1.0000
  H   H7        1.0  0.7560551205576971  0.2784463508328585  0.1621357498000151  1.0000
  H   H8        1.0  0.2560382413897457  0.16214061405489127  0.27845185884805085  1.0000
  H   H9        1.0  0.24400677118100586  0.7769253135989801  0.0640680516062631  1.0000
  H   H10       1.0  0.7440023361157844  0.06406566933830499  0.7769239108829424  1.0000
  H   H11       1.0  0.7559997345594952  0.2230711944346311  0.9359294291317112  1.0000
  H   H12       1.0  0.2559900360653772  0.9359330328190862  0.22307762302161646  1.0000
  H   H13       1.0  0.15589411220888394  0.5232419511568408  0.9099241978462372  1.0000
  H   H14       1.0  0.6558947572481131  0.9099267191433996  0.5232432231305211  1.0000
  H   H15       1.0  0.8440968780222206  0.4767606494372529  0.09007553153740129  1.0000
  H   H16       1.0  0.3441102800306907  0.0900737047663469  0.47675435450554454  1.0000
  H   H17       1.0  0.4160843985733322  0.4801790066696938  0.9048466291266164  1.0000
  H   H18       1.0  0.9160838417340288  0.904846628419044  0.48018576037309657  1.0000
  H   H19       1.0  0.5839076064924029  0.5198206744567314  0.09515492900246872  1.0000
  H   H20       1.0  0.08392147614856069  0.09515283396109452  0.5198136944574615  1.0000
  H   H21       1.0  0.23209612509230473  0.5481045477899968  0.05385402937660902  1.0000
  H   H22       1.0  0.7320903139288433  0.05385531578538409  0.5481063463354232  1.0000
  H   H23       1.0  0.7678970353156985  0.4518960792806082  0.9461463685676534  1.0000
  H   H24       1.0  0.2679132441480902  0.9461451324295069  0.45189146500048594  1.0000
  H   H25       1.0  0.18561032030409316  0.5651121400224496  0.6140009272459324  1.0000
  H   H26       1.0  0.6856130496271148  0.6140008137874986  0.5651098864610516  1.0000
  H   H27       1.0  0.8143931080053831  0.4348883343515836  0.38599973621848704  1.0000
  H   H28       1.0  0.31439162053627007  0.3860005890912817  0.4348877153995403  1.0000
  H   H29       1.0  0.37279216349188726  0.5180100505965368  0.6773589455646132  1.0000
  H   H30       1.0  0.872789608567757  0.6773596233028626  0.5180098080359983  1.0000
  H   H31       1.0  0.6272120530444382  0.4819923486907031  0.3226405819395097  1.0000
  H   H32       1.0  0.1272138629975359  0.3226408423514541  0.48198990471891523  1.0000
  C   C1        1.0  0.24555116427595894  0.98962523426178  0.6516514615835973  1.0000
  C   C2        1.0  0.7455352970539407  0.6516539312557867  0.9896279381622577  1.0000
  C   C3        1.0  0.7544514758066754  0.010373315199032602  0.3483503378411186  1.0000
  C   C4        1.0  0.2544529288655681  0.34834777385841414  0.010376037234550535  1.0000
  C   C5        1.0  0.2435824542362255  0.8598641316249453  0.6855124259407717  1.0000
  C   C6        1.0  0.7435730925719427  0.6855095150224314  0.8598641285248191  1.0000
  C   C7        1.0  0.75641759455808  0.14013348747712226  0.31448981665909054  1.0000
  C   C8        1.0  0.25642006783606053  0.31449111204816665  0.1401362694194432  1.0000
  C   C9        1.0  0.24565608833876226  0.8213564564300597  0.8104179425837401  1.0000
  C   C10       1.0  0.7456411170529833  0.8104200302405855  0.8213576202656937  1.0000
  C   C11       1.0  0.754356161185946  0.178639989261832  0.1895824061929118  1.0000
  C   C12       1.0  0.25435037006100464  0.18958156522533898  0.1786392327649224  1.0000
  C   C13       1.0  0.24752324110856702  0.9119468713150879  0.9042172323145224  1.0000
  C   C14       1.0  0.7475107866998272  0.904219149445808  0.911948294781034  1.0000
  C   C15       1.0  0.7524846573221564  0.08804962985280439  0.09578191614263434  1.0000
  C   C16       1.0  0.2524826110561449  0.09578052481489861  0.0880549310672194  1.0000
  C   C17       1.0  0.2502714754844888  0.041119129136092204  0.8635658289874613  1.0000
  C   C18       1.0  0.7502563231853683  0.8635656526462371  0.041121228901253956  1.0000
  C   C19       1.0  0.7497264356485545  0.9588765631987711  0.1364349311440165  1.0000
  C   C20       1.0  0.2497340518421751  0.13643498815579846  0.9588758336046652  1.0000
  C   C21       1.0  0.2522577772018621  0.9647890785734672  0.12387614950341694  1.0000
  C   C22       1.0  0.7522626388677337  0.12387399780903512  0.9647893753865517  1.0000
  C   C23       1.0  0.7477368516678381  0.035207632621002516  0.8761241515427544  1.0000
  C   C24       1.0  0.24774591802238163  0.8761244544312136  0.03521148923881161  1.0000
  C   C25       1.0  0.26347919924483415  0.4830492230158755  0.9682634818778267  1.0000
  C   C26       1.0  0.7634755870098004  0.9682641239178906  0.48305238530156214  1.0000
  C   C27       1.0  0.7365121148458796  0.516952407328901  0.03173717399079833  1.0000
  C   C28       1.0  0.23652945026900338  0.0317362999918558  0.5169451923345036  1.0000
  S   S1        1.0  0.7500050634068315  0.3569048397095854  0.6430962376227853  1.0000
  S   S2        1.0  0.2500021115332345  0.6430975109673723  0.3569028224816649  1.0000
  N   N1        1.0  0.25233146678292667  0.07640188035396278  0.7385964665263032  1.0000
  N   N2        1.0  0.7523167941207378  0.7385995214196582  0.07640128735621936  1.0000
  N   N3        1.0  0.7476664225746676  0.9236016038425984  0.26140497071119023  1.0000
  N   N4        1.0  0.24767188542583093  0.2614011872860829  0.9236007623970579  1.0000
  O   O1        1.0  0.8814736252191792  0.3338179757905664  0.7347934540444641  1.0000
  O   O2        1.0  0.3814675238821223  0.7347948524307809  0.3338164699557566  1.0000
  O   O3        1.0  0.11853166014777358  0.6661853868802795  0.26520681469384755  1.0000
  O   O4        1.0  0.6185357854000842  0.2652095396733784  0.6661869088354209  1.0000
  O   O5        1.0  0.6182992815992064  0.49580312012498234  0.6623205848754521  1.0000
  O   O6        1.0  0.11829776722418471  0.6623237337266659  0.4958014632123521  1.0000
  O   O7        1.0  0.3817065439064465  0.5041992286979777  0.3376758568003169  1.0000
  O   O8        1.0  0.8817064385719532  0.33767477398958334  0.5041982010935157  1.0000
  O   O9        1.0  0.2262150113649567  0.5194625913062866  0.6905145195133712  1.0000
  O   O10       1.0  0.7262141597755304  0.6905151141375184  0.5194620382919409  1.0000
  O   O11       1.0  0.7737895290309637  0.4805388377316362  0.30948593447573103  1.0000
  O   O12       1.0  0.27379190307808426  0.30948628187554317  0.4805372312878262  1.0000
