data_image0
_chemical_formula_structural       Co2H40C28S2N4Cl4O4
_chemical_formula_sum              "Co2 H40 C28 S2 N4 Cl4 O4"
_cell_length_a       8.514575073151153
_cell_length_b       8.514720060515568
_cell_length_c       11.98693816218749
_cell_angle_alpha    101.55421741654709
_cell_angle_beta     101.55225392971775
_cell_angle_gamma    97.47423810454636

_space_group_name_H-M_alt    "P 1"
_space_group_IT_number       1

loop_
  _space_group_symop_operation_xyz
  'x, y, z'

loop_
  _atom_site_type_symbol
  _atom_site_label
  _atom_site_symmetry_multiplicity
  _atom_site_fract_x
  _atom_site_fract_y
  _atom_site_fract_z
  _atom_site_occupancy
  Co  Co1       1.0  0.49999633866332965  0.49999760623663997  8.581559427967606e-07  1.0000
  Co  Co2       1.0  0.5000028528443676  0.500002864794979  0.4999990015134869  1.0000
  H   H1        1.0  0.6489909106231407  0.6219809029404428  0.8291278494134389  1.0000
  H   H2        1.0  0.37801689170850483  0.3510143492332531  0.6708718445396328  1.0000
  H   H3        1.0  0.35099798330821835  0.3780116081164522  0.17086937685124326  1.0000
  H   H4        1.0  0.6219912002148362  0.6489975139708972  0.3291314971827077  1.0000
  H   H5        1.0  0.5802387341371471  0.28039923375416015  0.15215447304172613  1.0000
  H   H6        1.0  0.7196160905068609  0.41975981981173766  0.3478466085645167  1.0000
  H   H7        1.0  0.4197542146063569  0.7195956905711611  0.8478444736028194  1.0000
  H   H8        1.0  0.2803889163811206  0.5802484009922965  0.6521549772328754  1.0000
  H   H9        1.0  0.6075400664472993  0.3019794459712486  0.8145260876159381  1.0000
  H   H10       1.0  0.6980202822538145  0.3924672878368937  0.6854703839939518  1.0000
  H   H11       1.0  0.3924547816835826  0.6980191430004581  0.18547528988161593  1.0000
  H   H12       1.0  0.3019854856430157  0.6075323409220488  0.31452679173312953  1.0000
  H   H13       1.0  0.749810999602445  0.06052355978160049  0.7932134185470047  1.0000
  H   H14       1.0  0.9394685042453188  0.2501902453276301  0.7067793041505865  1.0000
  H   H15       1.0  0.2501881081908194  0.9394786383045711  0.2067882026257948  1.0000
  H   H16       1.0  0.06053036171714145  0.7498045567269854  0.29321543053202964  1.0000
  H   H17       1.0  0.814444302261492  0.9322626445902387  0.963267628380308  1.0000
  H   H18       1.0  0.0677440107391831  0.185553172786058  0.5367266664719565  1.0000
  H   H19       1.0  0.1855652754310596  0.0677443245008575  0.0367352463744481  1.0000
  H   H20       1.0  0.9322538854464995  0.8144428584002626  0.46326810375575894  1.0000
  H   H21       1.0  0.6956156989761125  0.8894731738564943  0.14947723711006947  1.0000
  H   H22       1.0  0.1105433739172881  0.3043685699375729  0.3505170640769677  1.0000
  H   H23       1.0  0.3043843675729717  0.1105277840585899  0.8505235111959806  1.0000
  H   H24       1.0  0.8894578231749578  0.6956323105343075  0.6494788226927426  1.0000
  H   H25       1.0  0.6598793523373769  0.06885675497303369  0.2383968070651648  1.0000
  H   H26       1.0  0.9311677621260371  0.34012258985612215  0.26160288702075013  1.0000
  H   H27       1.0  0.3401216950094507  0.9311429848497356  0.7616047430174433  1.0000
  H   H28       1.0  0.06883200038413408  0.6598770728584141  0.738391802095002  1.0000
  H   H29       1.0  0.9013298058575498  0.6609966847669357  0.03343437006155635  1.0000
  H   H30       1.0  0.33898542422247147  0.0986655302427621  0.46656920127510654  1.0000
  H   H31       1.0  0.0986605297591794  0.33899088801936034  0.966559039948912  1.0000
  H   H32       1.0  0.6610251381855007  0.9013463878233594  0.5334403264860441  1.0000
  H   H33       1.0  0.9169607255052908  0.7006889112984778  0.8942557801426075  1.0000
  H   H34       1.0  0.29931587950154886  0.08305021287477389  0.6057581031933381  1.0000
  H   H35       1.0  0.08302697886040279  0.2992974549373528  0.105736269820305  1.0000
  H   H36       1.0  0.7006927543738397  0.9169641744941329  0.3942523329796614  1.0000
  H   H37       1.0  0.8872389270903651  0.49551241895127174  0.9117014550041914  1.0000
  H   H38       1.0  0.5044872597357465  0.11276896372309858  0.5882889100424791  1.0000
  H   H39       1.0  0.1127511926551534  0.5044739469495809  0.08829259438923741  1.0000
  H   H40       1.0  0.49552544707602647  0.8872416919256664  0.41171906992386903  1.0000
  C   C1        1.0  0.622017044841165  0.2304029034591721  0.07472800042900468  1.0000
  C   C2        1.0  0.7696097192396462  0.37798343357224695  0.42526839407264555  1.0000
  C   C3        1.0  0.37797641279149724  0.7695945119127356  0.9252755287012205  1.0000
  C   C4        1.0  0.230391653557639  0.6220247766948572  0.5747293552573112  1.0000
  C   C5        1.0  0.6377808374770383  0.2415050692121383  0.8855640327423302  1.0000
  C   C6        1.0  0.7584894720026014  0.3622245541326592  0.6144327331959971  1.0000
  C   C7        1.0  0.3622106695811026  0.7584947933837896  0.11443873015642939  1.0000
  C   C8        1.0  0.24151340860582582  0.6377787841001633  0.3855662238096826  1.0000
  C   C9        1.0  0.7165830297092697  0.10803375755598671  0.8749329225492062  1.0000
  C   C10       1.0  0.8919642193315053  0.28341895166079917  0.6250651421725593  1.0000
  C   C11       1.0  0.2834201439171051  0.8919708648379867  0.1250712563251142  1.0000
  C   C12       1.0  0.10803749375318718  0.7165782638297244  0.3749303131746586  1.0000
  C   C13       1.0  0.7513490632919826  0.03585672532941691  0.9692672787093528  1.0000
  C   C14       1.0  0.9641459341181428  0.24864769278676846  0.5307259253951172  1.0000
  C   C15       1.0  0.2486466813866173  0.9641467243022106  0.030734053221337414  1.0000
  C   C16       1.0  0.03585266478597051  0.7513520142528094  0.46927111329200233  1.0000
  C   C17       1.0  0.7014627131523595  0.09694409991620029  0.07142096323877918  1.0000
  C   C18       1.0  0.9030644292337936  0.29853488586339677  0.4285807686092866  1.0000
  C   C19       1.0  0.29853832317350265  0.9030556288671788  0.9285797495221785  1.0000
  C   C20       1.0  0.09693844035367499  0.7014684413300359  0.5714173510747429  1.0000
  C   C21       1.0  0.7305219397303873  0.022832245594536005  0.17542756388653663  1.0000
  C   C22       1.0  0.9771828718199558  0.26947565962553455  0.32457116972769745  1.0000
  C   C23       1.0  0.2694779329894174  0.9771675275138844  0.8245754984457818  1.0000
  C   C24       1.0  0.02281736651647747  0.7305264610174403  0.6754255899087694  1.0000
  C   C25       1.0  0.8566290285386697  0.6172425095274292  0.9383209889295401  1.0000
  C   C26       1.0  0.3827555563800331  0.14337482712305416  0.561678175157077  1.0000
  C   C27       1.0  0.14336011040911245  0.3827450744657383  0.06167225868733079  1.0000
  C   C28       1.0  0.6172571394107746  0.856635817486328  0.43832896748760664  1.0000
  S   S1        1.0  0.9443323460796902  0.055666440856178674  0.24999251492405958  1.0000
  S   S2        1.0  0.05566866820424104  0.9443332658484279  0.7500065231935833  1.0000
  N   N1        1.0  0.5925472440499958  0.30415759353429195  0.9845295726487037  1.0000
  N   N2        1.0  0.6958431745662635  0.4074562325282614  0.5154684114139059  1.0000
  N   N3        1.0  0.4074433223765794  0.6958373642441629  0.01546988653029055  1.0000
  N   N4        1.0  0.3041623372931852  0.5925483122550261  0.48453190563933657  1.0000
  Cl  Cl1       1.0  0.3110657187594227  0.397049439824137  0.8262479754427473  1.0000
  Cl  Cl2       1.0  0.6029401420369493  0.688933902697009  0.6737530205732513  1.0000
  Cl  Cl3       1.0  0.6889236509982054  0.6029455291611967  0.17375132134264962  1.0000
  Cl  Cl4       1.0  0.39706700925481897  0.3110730556896754  0.3262470174293313  1.0000
  O   O1        1.0  0.684229015350439  0.6125787128090109  0.9115107318134508  1.0000
  O   O2        1.0  0.3874175213282313  0.31577539861754644  0.5884913648353276  1.0000
  O   O3        1.0  0.31575971389685253  0.38740647949205714  0.08848546921264952  1.0000
  O   O4        1.0  0.6125965759817686  0.6842364306310104  0.4115144634983493  1.0000
