data_image0
_chemical_formula_structural       Zn2H24C16N12O12
_chemical_formula_sum              "Zn2 H24 C16 N12 O12"
_cell_length_a       7.752869362989528
_cell_length_b       7.6879407415899506
_cell_length_c       12.499286405017674
_cell_angle_alpha    89.99995017522225
_cell_angle_beta     89.9998578689415
_cell_angle_gamma    116.84758910167629

_space_group_name_H-M_alt    "P 1"
_space_group_IT_number       1

loop_
  _space_group_symop_operation_xyz
  'x, y, z'

loop_
  _atom_site_type_symbol
  _atom_site_label
  _atom_site_symmetry_multiplicity
  _atom_site_fract_x
  _atom_site_fract_y
  _atom_site_fract_z
  _atom_site_occupancy
  Zn  Zn1       1.0  0.500001206615728  3.98076888080177e-06  0.9999999051926167  1.0000
  Zn  Zn2       1.0  0.49999614598450387  0.4999990953533596  0.5000016302162535  1.0000
  H   H1        1.0  0.3895239114380757  0.10119928097596897  0.746407086110402  1.0000
  H   H2        1.0  0.6104767273870663  0.3988003811058149  0.2464086952794062  1.0000
  H   H3        1.0  0.6104755213023835  0.8988031713785388  0.2535905739958153  1.0000
  H   H4        1.0  0.38952765879621154  0.601196073946241  0.7535953651899732  1.0000
  H   H5        1.0  0.862561267823352  0.017525858944701204  0.854175298529327  1.0000
  H   H6        1.0  0.1374340751153938  0.4824660999517222  0.35417518722553604  1.0000
  H   H7        1.0  0.13743214613736404  0.9824664178884814  0.1458255617668485  1.0000
  H   H8        1.0  0.862563770126897  0.5175246080632687  0.6458192727022833  1.0000
  H   H9        1.0  0.8611335722807284  0.9880098437260897  0.5612631231578504  1.0000
  H   H10       1.0  0.13887021329048826  0.5119946204990738  0.06126245668937709  1.0000
  H   H11       1.0  0.13887224623815084  0.011992469598851597  0.438740137263224  1.0000
  H   H12       1.0  0.8611389145299809  0.48801203788942593  0.9387328032712999  1.0000
  H   H13       1.0  0.9960401593422429  0.9982326779572331  0.6777728685589252  1.0000
  H   H14       1.0  0.003966174796403299  0.5017727094414467  0.17777321386735415  1.0000
  H   H15       1.0  0.003965059393074499  0.0017711207898756  0.3222295918165443  1.0000
  H   H16       1.0  0.9960481392494244  0.4982367807716769  0.8222212460429432  1.0000
  H   H17       1.0  0.3742842721890298  0.27918201372925466  0.0347824260905867  1.0000
  H   H18       1.0  0.6257150531207072  0.22081857370157107  0.5347827929411721  1.0000
  H   H19       1.0  0.6257170374845772  0.7208189253928978  0.9652192342429513  1.0000
  H   H20       1.0  0.37428302486425474  0.7791809634125427  0.4652180673495323  1.0000
  H   H21       1.0  0.25672866320688564  0.12112210395024184  0.9413527114191496  1.0000
  H   H22       1.0  0.7432656463965657  0.37887392512244117  0.4413517277841875  1.0000
  H   H23       1.0  0.7432667828706554  0.8788745457320245  0.0586489489200019  1.0000
  H   H24       1.0  0.25672273652011773  0.6211214059659014  0.5586475324236844  1.0000
  C   C1        1.0  0.5227762131984405  0.0875103827911872  0.7486215142095815  1.0000
  C   C2        1.0  0.477223057898712  0.4124863549571103  0.24862251998035836  1.0000
  C   C3        1.0  0.4772256962681212  0.9124890709153843  0.251377745986872  1.0000
  C   C4        1.0  0.5227749424991045  0.5875102391195737  0.7513783403111773  1.0000
  C   C5        1.0  0.7616059432293054  0.0483759340312844  0.8069830735490983  1.0000
  C   C6        1.0  0.23839418525518144  0.45161759302141047  0.3069836240577501  1.0000
  C   C7        1.0  0.23839453389930307  0.9516176614007534  0.19301778674132922  1.0000
  C   C8        1.0  0.7616019382047979  0.5483805142843394  0.6930148360978095  1.0000
  C   C9        1.0  0.9294444107013716  0.07507082890479208  0.6329698041773142  1.0000
  C   C10       1.0  0.0705601249161418  0.42493070139018113  0.13297302557670318  1.0000
  C   C11       1.0  0.0705574211803822  0.9249256817659984  0.36702865597429474  1.0000
  C   C12       1.0  0.9294497578528008  0.5750803576444312  0.8670262346105987  1.0000
  C   C13       1.0  0.0898993928140754  0.27552614974853634  0.600494139672044  1.0000
  C   C14       1.0  0.9100939939807373  0.2244816503384967  0.10048978174067709  1.0000
  C   C15       1.0  0.9100944090659483  0.7244808422602772  0.39951232093967803  1.0000
  C   C16       1.0  0.08990679351052214  0.775523717253108  0.8995062782723906  1.0000
  N   N1        1.0  0.7801587504568275  0.07903765818627312  0.700967399128956  1.0000
  N   N2        1.0  0.21984080004740036  0.4209592754127128  0.20096799411914648  1.0000
  N   N3        1.0  0.21983984972690257  0.9209574504698992  0.2990334611625087  1.0000
  N   N4        1.0  0.7801656182738056  0.57904155250322  0.7990296659821468  1.0000
  N   N5        1.0  0.629504138824842  0.10515677312278629  0.6623109006850498  1.0000
  N   N6        1.0  0.3704924066400324  0.3948389173382053  0.16231127893986746  1.0000
  N   N7        1.0  0.370491307255044  0.8948398765611216  0.3376899596084256  1.0000
  N   N8        1.0  0.6295146114600527  0.6051604251522776  0.8376887812983753  1.0000
  N   N9        1.0  0.5992118445942792  0.05207901619895949  0.8395298547934544  1.0000
  N   N10       1.0  0.4007817848524197  0.44791745914666586  0.3395309588844526  1.0000
  N   N11       1.0  0.40078044738644525  0.9479191745159807  0.1604694054106872  1.0000
  N   N12       1.0  0.5992123064860451  0.5520762753067172  0.6604683013194831  1.0000
  O   O1        1.0  0.38676789435614006  0.20494703659032612  0.9726775782175352  1.0000
  O   O2        1.0  0.6132288634875351  0.29505175117249377  0.47267683752000517  1.0000
  O   O3        1.0  0.6132295838429086  0.7950539859443068  0.0273232820732403  1.0000
  O   O4        1.0  0.3867672599654028  0.7049463561283175  0.527324022772568  1.0000
  O   O5        1.0  0.22784697186277467  0.26450907802338713  0.5508960056239403  1.0000
  O   O6        1.0  0.7721536913045098  0.23549730145584385  0.0508958531467911  1.0000
  O   O7        1.0  0.7721531382390125  0.7354948319398104  0.449105654709733  1.0000
  O   O8        1.0  0.22784905071877395  0.7645094959490633  0.9491002068644008  1.0000
  O   O9        1.0  0.07535992602410603  0.4284516004349541  0.6240618560640883  1.0000
  O   O10       1.0  0.9246304579075825  0.07154438624053229  0.1240623564801169  1.0000
  O   O11       1.0  0.9246297340445081  0.571543702844842  0.3759398042798381  1.0000
  O   O12       1.0  0.0753709293602115  0.9284594959239811  0.8759369037155692  1.0000
