data_image0
_chemical_formula_structural       Ni2H48C64N4O14
_chemical_formula_sum              "Ni2 H48 C64 N4 O14"
_cell_length_a       11.151600455601802
_cell_length_b       11.71863253894856
_cell_length_c       13.896272595893626
_cell_angle_alpha    69.96270299666732
_cell_angle_beta     67.00362702637385
_cell_angle_gamma    76.54677118406795

_space_group_name_H-M_alt    "P 1"
_space_group_IT_number       1

loop_
  _space_group_symop_operation_xyz
  'x, y, z'

loop_
  _atom_site_type_symbol
  _atom_site_label
  _atom_site_symmetry_multiplicity
  _atom_site_fract_x
  _atom_site_fract_y
  _atom_site_fract_z
  _atom_site_occupancy
  Ni  Ni1       1.0  0.33797027617730174  0.36076048544806116  0.4495445325258132  1.0000
  Ni  Ni2       1.0  0.6620277049862295  0.6392354504894229  0.5504553455739867  1.0000
  H   H1        1.0  0.05828311680804183  0.18122934436245688  0.7904032270220327  1.0000
  H   H2        1.0  0.9417224328851291  0.8187701338942829  0.2096003605917006  1.0000
  H   H3        1.0  0.6072563302559856  0.27629355082870427  0.41932242720999824  1.0000
  H   H4        1.0  0.3927402823883882  0.7237069090711686  0.5806816520317211  1.0000
  H   H5        1.0  0.9428827317285168  0.8769448244946645  0.41335988828773645  1.0000
  H   H6        1.0  0.0571072283166174  0.12306208765349419  0.5866423785755259  1.0000
  H   H7        1.0  0.9456607464760011  0.5283468678472544  0.182067337169059  1.0000
  H   H8        1.0  0.05434131874981322  0.47164810393590517  0.8179343551524169  1.0000
  H   H9        1.0  0.390872185414743  0.12013413679902378  0.9650399891670955  1.0000
  H   H10       1.0  0.6091359881646242  0.879868061791008  0.03496268471523217  1.0000
  H   H11       1.0  0.3373019714884577  0.8086324421562595  0.42592193664435024  1.0000
  H   H12       1.0  0.6626930042094868  0.191366161807359  0.5740868057142308  1.0000
  H   H13       1.0  0.4157599815497548  0.5403863037773746  0.22598292663440128  1.0000
  H   H14       1.0  0.5842453542374172  0.4596050258837324  0.7740158496262238  1.0000
  H   H15       1.0  0.44419847610109303  0.21888019994479185  0.7641398309229003  1.0000
  H   H16       1.0  0.5558019043200063  0.7811293925882266  0.23585897749776327  1.0000
  H   H17       1.0  0.4407241353362821  0.6019464411199634  0.41271950165942417  1.0000
  H   H18       1.0  0.5592744586286783  0.398054870704442  0.5872887242840152  1.0000
  H   H19       1.0  0.0804289662236073  0.470644100139033  0.5337137929899782  1.0000
  H   H20       1.0  0.9195638060286626  0.5293619650326419  0.4662798751064229  1.0000
  H   H21       1.0  0.6281227321374772  0.5901804737599362  0.07337859541894436  1.0000
  H   H22       1.0  0.37188117151230676  0.4097980711816192  0.9266242845011091  1.0000
  H   H23       1.0  0.3753659489591924  0.020537911498813288  0.325638046868221  1.0000
  H   H24       1.0  0.6246176590622099  0.9794571327250021  0.674371835357846  1.0000
  H   H25       1.0  0.8264653541262347  0.3179913879987381  0.2797432118148251  1.0000
  H   H26       1.0  0.17353212320884384  0.6820026271773185  0.7202667345542437  1.0000
  H   H27       1.0  0.0007973941589795975  0.0905923171512413  0.9930863610218806  1.0000
  H   H28       1.0  0.9992087898308027  0.9093999292595637  0.0069111567880571325  1.0000
  H   H29       1.0  0.31604686290217643  0.9245953420902495  0.21512734232080533  1.0000
  H   H30       1.0  0.6839589940294954  0.07540052398299929  0.7848728526884513  1.0000
  H   H31       1.0  0.13292608986159138  0.3498384631955744  0.23069856808442069  1.0000
  H   H32       1.0  0.8670863040832585  0.6501583494976727  0.7692927366994554  1.0000
  H   H33       1.0  0.9596826153079049  0.6743100565713573  0.5487311810524388  1.0000
  H   H34       1.0  0.04031547905763231  0.32569967309096626  0.4512561016582595  1.0000
  H   H35       1.0  0.8505498456052787  0.47665900324827243  0.788949795626216  1.0000
  H   H36       1.0  0.14945310746232818  0.5233368703266806  0.21105206905490803  1.0000
  H   H37       1.0  0.7521967620922538  0.3552888719449498  0.8740182712366149  1.0000
  H   H38       1.0  0.24780862904415096  0.6447106661434105  0.12597959313581697  1.0000
  H   H39       1.0  0.9248605311896368  0.3301466882410651  0.8503284471522152  1.0000
  H   H40       1.0  0.075139146379108  0.6698510811958227  0.14966891404621666  1.0000
  H   H41       1.0  0.2604888264969461  0.055510210831236896  0.5904458786622085  1.0000
  H   H42       1.0  0.7395030355903954  0.9444975831572577  0.40955767328212295  1.0000
  H   H43       1.0  0.3031166656637438  0.9099793902323796  0.6759989251157988  1.0000
  H   H44       1.0  0.6968724659983748  0.09002659768712111  0.3240053156033154  1.0000
  H   H45       1.0  0.13790607504698474  0.9834230695666476  0.7144174260898949  1.0000
  H   H46       1.0  0.8620830169759445  0.0165829333107652  0.28558538381889786  1.0000
  H   H47       1.0  0.07810494363128839  0.25833822342659113  0.11706432413116372  1.0000
  H   H48       1.0  0.9219050246233068  0.7416557941438452  0.8829350484357403  1.0000
  C   C1        1.0  0.2546258293076776  0.20519580535314932  0.765341839739122  1.0000
  C   C2        1.0  0.7453725103340503  0.7948129576922011  0.2346506757643354  1.0000
  C   C3        1.0  0.28561633236643047  0.2627978156737854  0.6463532835941166  1.0000
  C   C4        1.0  0.7143936119590253  0.7372044402397079  0.35364231546394354  1.0000
  C   C5        1.0  0.138057592246092  0.7618850833814078  0.4866118260719078  1.0000
  C   C6        1.0  0.8619408068544205  0.23812365722709217  0.5133828356470359  1.0000
  C   C7        1.0  0.29325044894151386  0.2500018627441206  0.34710250448642194  1.0000
  C   C8        1.0  0.7067451693220406  0.7499986096282637  0.6529011774390414  1.0000
  C   C9        1.0  0.1300608473166704  0.1679288156257996  0.8296648500234695  1.0000
  C   C10       1.0  0.8699395050158287  0.8320716841314776  0.1703322336213516  1.0000
  C   C11       1.0  0.25920188759319984  0.1914441233038175  0.2831095858651906  1.0000
  C   C12       1.0  0.7407980385832218  0.8085600335106734  0.7168865979531346  1.0000
  C   C13       1.0  0.6169813152779468  0.3472085191027361  0.3426715600135424  1.0000
  C   C14       1.0  0.38301474896128707  0.6527882887334897  0.657333737143574  1.0000
  C   C15       1.0  0.9670527626848936  0.9314832912369226  0.45153140582134216  1.0000
  C   C16       1.0  0.03294412582779669  0.0685226716920653  0.5484688593762499  1.0000
  C   C17       1.0  0.9711666244988705  0.5152205786558567  0.10217517674701787  1.0000
  C   C18       1.0  0.028844495865350015  0.4847633894862184  0.8978259549375878  1.0000
  C   C19       1.0  0.31850963775183055  0.13419182110695257  0.9261673036428346  1.0000
  C   C20       1.0  0.6814976703088719  0.8658068450826588  0.07382514167229468  1.0000
  C   C21       1.0  0.0691702833765149  0.8838935426365352  0.4941891488501965  1.0000
  C   C22       1.0  0.9308304439222751  0.1161124227550943  0.5058076977763051  1.0000
  C   C23       1.0  0.27530242237918395  0.73771832056007  0.44885800280171406  1.0000
  C   C24       1.0  0.7246935237704406  0.26228850927410013  0.5511473633642934  1.0000
  C   C25       1.0  0.10184125624100919  0.9535408176732928  0.5438044956785006  1.0000
  C   C26       1.0  0.8981544595145223  0.0464652250387729  0.4561889335563691  1.0000
  C   C27       1.0  0.8746192863216392  0.4826766186756686  0.07857822901954852  1.0000
  C   C28       1.0  0.12538608577322213  0.5173073420329717  0.9214283882242638  1.0000
  C   C29       1.0  0.5099763585650408  0.49415958268971855  0.23342090638648472  1.0000
  C   C30       1.0  0.4900241638748142  0.5058317495022918  0.7665816065341318  1.0000
  C   C31       1.0  0.3479726383434921  0.1886866871082091  0.8148133055856234  1.0000
  C   C32       1.0  0.6520151950307992  0.8113302794618562  0.18518752024884588  1.0000
  C   C33       1.0  0.3341800610156938  0.6213500865970757  0.44102502472243527  1.0000
  C   C34       1.0  0.6658150171117257  0.3786558339663487  0.5589808844890952  1.0000
  C   C35       1.0  0.13239699290664217  0.5498060989879291  0.5078474756512179  1.0000
  C   C36       1.0  0.8675994017221882  0.45019444318042195  0.4921487341337212  1.0000
  C   C37       1.0  0.6276396795384187  0.5210395089686628  0.14949526904089083  1.0000
  C   C38       1.0  0.3723591737568625  0.47894910537546304  0.8505071241170653  1.0000
  C   C39       1.0  0.3100473640865999  0.07111260514457028  0.2798901829638325  1.0000
  C   C40       1.0  0.68995890745056  0.9288887116051254  0.7201112058374336  1.0000
  C   C41       1.0  0.738684240880815  0.37110378293517937  0.2638726979671447  1.0000
  C   C42       1.0  0.26131499975930683  0.628891166433874  0.7361335256468494  1.0000
  C   C43       1.0  0.19382235823815117  0.09656646204108907  0.9888400328260472  1.0000
  C   C44       1.0  0.8061810837758118  0.9034330860343759  0.011158467724186528  1.0000
  C   C45       1.0  0.7458291280854611  0.45903779070206235  0.16418248470259306  1.0000
  C   C46       1.0  0.2541702182657275  0.5409462672784642  0.8358196024281597  1.0000
  C   C47       1.0  0.09853527501442019  0.1157068056369752  0.941502445125245  1.0000
  C   C48       1.0  0.9014624815204756  0.8843000665627584  0.058497277026823676  1.0000
  C   C49       1.0  0.27796277956897336  0.018142816548170498  0.2185119467656591  1.0000
  C   C50       1.0  0.722036089436351  0.9818540211811138  0.7814881036937821  1.0000
  C   C51       1.0  0.1958724069573066  0.08711428869072788  0.15975772111043088  1.0000
  C   C52       1.0  0.8041370484217863  0.9128842927222608  0.8402412420785196  1.0000
  C   C53       1.0  0.17437362302477774  0.2576713002493348  0.2253902956883564  1.0000
  C   C54       1.0  0.8256276608982559  0.7423218554777267  0.7746114492301075  1.0000
  C   C55       1.0  0.06645886321478399  0.6637644107927799  0.5163697754384202  1.0000
  C   C56       1.0  0.9335383755071047  0.3362452789893807  0.4836221177921516  1.0000
  C   C57       1.0  0.8371460361743601  0.3972695730335686  0.8616673757972464  1.0000
  C   C58       1.0  0.16285766599787624  0.6027272546858526  0.13832965340737496  1.0000
  C   C59       1.0  0.903701550485806  0.4670977276607573  0.9750971697070695  1.0000
  C   C60       1.0  0.0963035490722319  0.5328880840133365  0.02490685140801222  1.0000
  C   C61       1.0  0.22579452059287772  0.9677965613240853  0.6454939501861007  1.0000
  C   C62       1.0  0.7741965478131335  0.03220854721772779  0.3545055868808617  1.0000
  C   C63       1.0  0.1429244326822641  0.20666914241832757  0.1629773980420097  1.0000
  C   C64       1.0  0.8570849979397365  0.7933277002134812  0.8370134301982333  1.0000
  N   N1        1.0  0.2642753153648698  0.5282237554387451  0.46939167112795127  1.0000
  N   N2        1.0  0.7357255308514965  0.47178216507916904  0.5306094679295299  1.0000
  N   N3        1.0  0.5043929752680185  0.40847553745552284  0.32864504403399764  1.0000
  N   N4        1.0  0.495607989037957  0.5915203610644396  0.6713560260145998  1.0000
  O   O1        1.0  0.3669205721660092  0.19213710907444434  0.403115828388799  1.0000
  O   O2        1.0  0.6330723115627849  0.8078697880930577  0.5968854842077748  1.0000
  O   O3        1.0  0.24578667166279897  0.36206587774713467  0.3453437180247292  1.0000
  O   O4        1.0  0.7542067802907371  0.6379446640050617  0.6546570920616118  1.0000
  O   O5        1.0  0.19751650027639303  0.280202312953719  0.6036120712770412  1.0000
  O   O6        1.0  0.8024890329286762  0.7198045267765423  0.39638439075866927  1.0000
  O   O7        1.0  0.4001012248539552  0.2953298233935939  0.5866478527649761  1.0000
  O   O8        1.0  0.5998989936788844  0.7046724749764762  0.41335164258724416  1.0000
  O   O9        1.0  0.1982153285270627  0.9009886030108092  0.5885004961145341  1.0000
  O   O10       1.0  0.8017753533620606  0.0990201476302985  0.41149957193626097  1.0000
  O   O11       1.0  0.16295364123667608  0.03453037450707799  0.09875417738508932  1.0000
  O   O12       1.0  0.8370558612226588  0.9654673150784632  0.9012428645449901  1.0000
  O   O13       1.0  0.8060753295557602  0.431647464182099  0.9589910718353707  1.0000
  O   O14       1.0  0.19392578836946944  0.5683466282461181  0.04100830191098489  1.0000
