data_image0
_chemical_formula_structural       Fe2H12Pt2C24N16F4
_chemical_formula_sum              "Fe2 H12 Pt2 C24 N16 F4"
_cell_length_a       7.007195615901661
_cell_length_b       7.166522118061062
_cell_length_c       15.332278930872077
_cell_angle_alpha    90.00047990819031
_cell_angle_beta     90.03921752654702
_cell_angle_gamma    90.00002578075603

_space_group_name_H-M_alt    "P 1"
_space_group_IT_number       1

loop_
  _space_group_symop_operation_xyz
  'x, y, z'

loop_
  _atom_site_type_symbol
  _atom_site_label
  _atom_site_symmetry_multiplicity
  _atom_site_fract_x
  _atom_site_fract_y
  _atom_site_fract_z
  _atom_site_occupancy
  Fe  Fe1       1.0  0.4891317307953215  0.5000005334581062  0.9878648474412658  1.0000
  Fe  Fe2       1.0  0.4892107601056139  3.3175892256e-06  0.5120846321271912  1.0000
  H   H1        1.0  0.8859618857257914  0.4999967090585714  0.1061375725512974  1.0000
  H   H2        1.0  0.11542348331062158  0.9999996342213818  0.6030425764939551  1.0000
  H   H3        1.0  0.11487707315342988  0.5000010701419839  0.897198079337258  1.0000
  H   H4        1.0  0.8854593002501047  3.669232313499999e-06  0.3940167807397614  1.0000
  H   H5        1.0  0.43645076901583474  0.5000002897034079  0.3498248643053969  1.0000
  H   H6        1.0  0.5794910917346671  0.9999934623975691  0.8399528133473949  1.0000
  H   H7        1.0  0.5771469760644976  0.5000017346465881  0.6598621345326876  1.0000
  H   H8        1.0  0.4362571296464495  0.9999997137280162  0.14993769007752178  1.0000
  H   H9        1.0  0.3221109849747776  0.500001624764792  0.1913177999813982  1.0000
  H   H10       1.0  0.6864200142948959  7.029631987999995e-07  0.6825207040657091  1.0000
  H   H11       1.0  0.6852465915368952  0.5000031792368205  0.8172098816058551  1.0000
  H   H12       1.0  0.3216946234723678  4.9573166899999926e-08  0.30836591656481  1.0000
  Pt  Pt1       1.0  0.9911358828915907  7.972961526999989e-07  0.9959497466706324  1.0000
  Pt  Pt2       1.0  0.9911947043170031  0.500000348613291  0.5041092577271655  1.0000
  C   C1        1.0  0.7850760928316093  0.4999971938717564  0.1602115922790261  1.0000
  C   C2        1.0  0.2203571481426394  4.140622423000011e-07  0.6551589247001247  1.0000
  C   C3        1.0  0.21940908639421508  0.49999781189295334  0.8449886716177133  1.0000
  C   C4        1.0  0.7846623364027677  5.9573992317e-06  0.3398577131790717  1.0000
  C   C5        1.0  0.8407372231173795  0.4999979960730343  0.2476293632578361  1.0000
  C   C6        1.0  0.1705058537236468  0.9999967278329576  0.742810598965967  1.0000
  C   C7        1.0  0.16887539733662743  0.4999970083520394  0.757376689726577  1.0000
  C   C8        1.0  0.8403710503464836  3.7696221823999995e-06  0.2524854183921192  1.0000
  C   C9        1.0  0.5358361360260346  0.4999997981926327  0.2950305601854737  1.0000
  C   C10       1.0  0.4761317258108164  0.9999929678556896  0.7866992766480507  1.0000
  C   C11       1.0  0.4742141796050134  0.5000022127569822  0.7132203498535219  1.0000
  C   C12       1.0  0.5355486717438679  3.3091513103000002e-06  0.20482769400627632  1.0000
  C   C13       1.0  0.47269206870092967  0.49999900510234596  0.20868060464787416  1.0000
  C   C14       1.0  0.5364779155777484  0.9999991626450466  0.7004136520048049  1.0000
  C   C15       1.0  0.53517612136595  0.5000044000316423  0.7994597388861989  1.0000
  C   C16       1.0  0.47231690069255444  5.486674027099999e-06  0.291145477975796  1.0000
  C   C17       1.0  0.7960261221575067  0.805475002431116  0.977969087332724  1.0000
  C   C18       1.0  0.18720971868059166  0.6941835927303116  0.4888066656375898  1.0000
  C   C19       1.0  0.18724483801531017  0.8058052084258022  0.0112555404739467  1.0000
  C   C20       1.0  0.7960373734076995  0.6945230237517991  0.5220307572925692  1.0000
  C   C21       1.0  0.18724746292378563  0.19419194219918978  0.0112543653895401  1.0000
  C   C22       1.0  0.7960443630720988  0.3054737814363763  0.5220300106500915  1.0000
  C   C23       1.0  0.7960344562234454  0.1945301217850357  0.9779685666452878  1.0000
  C   C24       1.0  0.187213852441154  0.3058222712426755  0.4888033109950812  1.0000
  N   N1        1.0  0.5984021116010041  0.4999970197760176  0.14285292189525478  1.0000
  N   N2        1.0  0.4079983887261065  3.0271728590000008e-06  0.6339533531956719  1.0000
  N   N3        1.0  0.40719039752926983  0.5000022057497305  0.8660234204846303  1.0000
  N   N4        1.0  0.5979728383397215  6.09866742e-06  0.35706728905318386  1.0000
  N   N5        1.0  0.6792403170721072  0.6889888688967929  0.9721282277600451  1.0000
  N   N6        1.0  0.30433682760319397  0.8109361764590091  0.4873212053461202  1.0000
  N   N7        1.0  0.3043497906129957  0.6890289226441555  0.0126987425184524  1.0000
  N   N8        1.0  0.6793045975593869  0.8110021602319507  0.5278181105581369  1.0000
  N   N9        1.0  0.3043510754923701  0.3109738555587782  0.0126973638946524  1.0000
  N   N10       1.0  0.6793157836406395  0.18899752165530972  0.5278201779358865  1.0000
  N   N11       1.0  0.6792401739009575  0.31101473366431515  0.9721255446306785  1.0000
  N   N12       1.0  0.30434658370300127  0.1890696801677052  0.4873193594527621  1.0000
  N   N13       1.0  0.7230636479830892  0.4999985920901296  0.3140479096127535  1.0000
  N   N14       1.0  0.29011650754996055  0.9999889662133018  0.8086401532318702  1.0000
  N   N15       1.0  0.288039240719442  0.4999964169847999  0.6914540629064235  1.0000
  N   N16       1.0  0.7227763771001746  4.548210632999999e-06  0.1859635232722425  1.0000
  F   F1        1.0  0.0301105617039283  0.49999810302399084  0.2668414296320378  1.0000
  F   F2        1.0  0.9816013589686391  0.999990001172769  0.7627454306297565  1.0000
  F   F3        1.0  0.9798013182885442  0.4999955007778922  0.7375868043296592  1.0000
  F   F4        1.0  0.029795633520009794  7.362745507e-07  0.233382247081579  1.0000
