data_image0
_chemical_formula_structural       Zn2H48C66N2Cl14O24
_chemical_formula_sum              "Zn2 H48 C66 N2 Cl14 O24"
_cell_length_a       15.960370819226323
_cell_length_b       18.676417852859505
_cell_length_c       19.3368452727761
_cell_angle_alpha    89.91435911133568
_cell_angle_beta     88.15179988467413
_cell_angle_gamma    89.05293271573227

_space_group_name_H-M_alt    "P 1"
_space_group_IT_number       1

loop_
  _space_group_symop_operation_xyz
  'x, y, z'

loop_
  _atom_site_type_symbol
  _atom_site_label
  _atom_site_symmetry_multiplicity
  _atom_site_fract_x
  _atom_site_fract_y
  _atom_site_fract_z
  _atom_site_occupancy
  Zn  Zn1       1.0  0.508588040759598  0.5794296359075375  0.49518577501995514  1.0000
  Zn  Zn2       1.0  0.5027582416581495  0.41669118291089546  0.4991088225039633  1.0000
  H   H1        1.0  0.0513881125808524  0.4779165309745679  0.3109876275603654  1.0000
  H   H2        1.0  0.7038573287193232  0.11323763698067071  0.48442947088656035  1.0000
  H   H3        1.0  0.7255026852914099  0.19457181227546266  0.43735879091953217  1.0000
  H   H4        1.0  0.7283368803317884  0.11010827608141938  0.39303778463584393  1.0000
  H   H5        1.0  0.6918007924614002  0.6655180136396978  0.3502997474428611  1.0000
  H   H6        1.0  0.6316343875805401  0.7469263303339275  0.3433772349858941  1.0000
  H   H7        1.0  0.5808058978693963  0.6609702848214809  0.3393033044760472  1.0000
  H   H8        1.0  0.4744695007731607  0.3265141325323029  0.6726154567976934  1.0000
  H   H9        1.0  0.38594269507592566  0.2675414295585696  0.6829947971035537  1.0000
  H   H10       1.0  0.3704156461790475  0.3629083337803038  0.6741382014384314  1.0000
  H   H11       1.0  0.7210675942209548  0.42266320939963725  0.6921694743631761  1.0000
  H   H12       1.0  0.030966827350290795  0.5727228726523633  0.3175365009094406  1.0000
  H   H13       1.0  0.620602167441092  0.3876480238044806  0.6732735329581985  1.0000
  H   H14       1.0  0.6558537582148319  0.3870794171464453  0.7613741580598159  1.0000
  H   H15       1.0  0.6768171461644455  0.46032878629846147  0.2805838791277608  1.0000
  H   H16       1.0  0.6543996017419788  0.5199922894586919  0.3519752530478825  1.0000
  H   H17       1.0  0.7348389159070833  0.5411970880098097  0.2893755495738191  1.0000
  H   H18       1.0  0.6168517018360689  0.5647667843028685  0.906744010321276  1.0000
  H   H19       1.0  0.6747618354437819  0.5439243300776011  0.8273694065533945  1.0000
  H   H20       1.0  0.6994969849871423  0.4985967697128189  0.9064389365364247  1.0000
  H   H21       1.0  0.6397097877011148  0.47711780257921527  0.0691069268271818  1.0000
  H   H22       1.0  0.6866897454916696  0.5118756467922267  0.145494938014906  1.0000
  H   H23       1.0  0.9659684467707593  0.5179876398067762  0.2658569324640823  1.0000
  H   H24       1.0  0.6848394154210524  0.564365944774984  0.0678842652012861  1.0000
  H   H25       1.0  0.24563165867080983  0.42366452088894846  0.7926162549932343  1.0000
  H   H26       1.0  0.1847506444275808  0.47330436399476383  0.8563922358647602  1.0000
  H   H27       1.0  0.27154552313462693  0.4188569199712617  0.882679673995966  1.0000
  H   H28       1.0  0.2643236281769532  0.35336059744002307  0.23110174211846873  1.0000
  H   H29       1.0  0.36445527295491326  0.3315052418959325  0.1903966641667409  1.0000
  H   H30       1.0  0.27398975227205813  0.3410261328894818  0.1388207865074449  1.0000
  H   H31       1.0  0.5078255062632451  0.6484987181609299  0.8975297514405157  1.0000
  H   H32       1.0  0.46547355710652744  0.6805094436529869  0.9796916127929549  1.0000
  H   H33       1.0  0.42199641119356807  0.711612565647087  0.9001300743666932  1.0000
  H   H34       1.0  0.9827542580190495  0.42765494356072514  0.6848541247490089  1.0000
  H   H35       1.0  0.584997585856314  0.37198597390300847  0.10577360530031402  1.0000
  H   H36       1.0  0.5760070855579755  0.3316361566093633  0.0215625623310132  1.0000
  H   H37       1.0  0.5460013618549765  0.2830302521303522  0.09850935782868221  1.0000
  H   H38       1.0  0.2837809772270106  0.57862128651972  0.1205334930664534  1.0000
  H   H39       1.0  0.26990028883723477  0.6259954509599339  0.0403107450712596  1.0000
  H   H40       1.0  0.30077138393912867  0.6734654697048866  0.1160259200032314  1.0000
  H   H41       1.0  0.37541693623953165  0.3407376656214538  0.8658356441612653  1.0000
  H   H42       1.0  0.36733789624663865  0.30386755304460417  0.9519639289773139  1.0000
  H   H43       1.0  0.4407205033964416  0.26616241795458967  0.8891988670707249  1.0000
  H   H44       1.0  0.9657117450841141  0.5231396152412486  0.6892928931554394  1.0000
  H   H45       1.0  0.0519879455298167  0.48238096780033857  0.7327998845521648  1.0000
  H   H46       1.0  0.42611462677766093  0.8850248982403884  0.6596776938681614  1.0000
  H   H47       1.0  0.37977993733591825  0.7982416956242486  0.6706610244138957  1.0000
  H   H48       1.0  0.3140073256616489  0.8762554342193878  0.6613219306807211  1.0000
  C   C1        1.0  0.5022036004845701  0.5035247482190215  0.364043923890776  1.0000
  C   C2        1.0  0.4114069887458952  0.4669145522294187  0.26638346258039297  1.0000
  C   C3        1.0  0.475614987265935  0.5059780014009476  0.7066644029979727  1.0000
  C   C4        1.0  0.4864137082506303  0.49710449852850047  0.2877924500633071  1.0000
  C   C5        1.0  0.4108635280278818  0.5492228173630809  0.9623195121351954  1.0000
  C   C6        1.0  0.4498500144880993  0.4239786795263143  0.0356584310357704  1.0000
  C   C7        1.0  0.4117238451957093  0.550034289234226  0.0348776434138287  1.0000
  C   C8        1.0  0.45090270074241096  0.4232426567933558  0.9630023820396332  1.0000
  C   C9        1.0  0.4339589916326786  0.48826476457829665  0.071638439920676  1.0000
  C   C10       1.0  0.43290024297972  0.4861090953179783  0.9259289926650567  1.0000
  C   C11       1.0  0.43922239361516097  0.7309771473573222  0.5379088156303027  1.0000
  C   C12       1.0  0.4933577954853873  0.5091547297338934  0.6297194866637952  1.0000
  C   C13       1.0  0.5566901140388508  0.26204672055486367  0.4576798921909599  1.0000
  C   C14       1.0  0.43703824220156656  0.8062538048064738  0.5404171127201067  1.0000
  C   C15       1.0  0.5607537203896981  0.18697787709510996  0.4617263728695278  1.0000
  C   C16       1.0  0.6654541429969356  0.4823752306948137  0.5015338694877869  1.0000
  C   C17       1.0  0.3457913984727128  0.4939259477493751  0.4949252779436719  1.0000
  C   C18       1.0  0.5016621787409578  0.8435386568861959  0.5062863522129747  1.0000
  C   C19       1.0  0.5062356576770028  0.1528434477759504  0.5090606948056191  1.0000
  C   C20       1.0  0.5649236140111924  0.8049089250528284  0.4703454092345325  1.0000
  C   C21       1.0  0.452209685522952  0.19445578989333262  0.5514935561630381  1.0000
  C   C22       1.0  0.5612874231776601  0.729719800540991  0.46799602592376743  1.0000
  C   C23       1.0  0.527218839801293  0.48183903434565406  0.8212913756129794  1.0000
  C   C24       1.0  0.4552359696526906  0.2696175459205961  0.5472517409772237  1.0000
  C   C25       1.0  0.5480229689306312  0.9589094601739417  0.5578876569323513  1.0000
  C   C26       1.0  0.4570209396949494  0.03752182305323969  0.46118620721890113  1.0000
  C   C27       1.0  0.5489941495857663  0.03406229209696929  0.5586026296170914  1.0000
  C   C28       1.0  0.45588257042653174  0.9624008953293384  0.46053987059329426  1.0000
  C   C29       1.0  0.5039527696375856  0.0735049531307368  0.5100602532001162  1.0000
  C   C30       1.0  0.501762151064554  0.9229277282470748  0.5086539816133282  1.0000
  C   C31       1.0  0.028280369496975804  0.5627962477690076  0.4723092082726552  1.0000
  C   C32       1.0  0.9835502859646181  0.4330713264784905  0.5267107108276932  1.0000
  C   C33       1.0  0.9778712726273896  0.503401324487825  0.4327777531042614  1.0000
  C   C34       1.0  0.5223711160531933  0.5251766299807841  0.1677739649386893  1.0000
  C   C35       1.0  0.033861443473178085  0.4926703656184157  0.5660664945101316  1.0000
  C   C36       1.0  0.7561010890647138  0.48333532520778966  0.5022841381284735  1.0000
  C   C37       1.0  0.2554349173586914  0.500250076006914  0.49650623707695724  1.0000
  C   C38       1.0  0.9703879062769047  0.5518994114851311  0.5386164656723125  1.0000
  C   C39       1.0  0.040951996350983705  0.44394749408696293  0.46021474250958505  1.0000
  C   C40       1.0  0.9200645606388632  0.49223926621117886  0.5000373489031844  1.0000
  C   C41       1.0  0.09136410859387212  0.503430247470547  0.4988078073560374  1.0000
  C   C42       1.0  0.8321575613647312  0.4869542849701034  0.5008052725343219  1.0000
  C   C43       1.0  0.1794025099302416  0.5052788346880773  0.49823285672662365  1.0000
  C   C44       1.0  0.5422354006589458  0.49089322088436654  0.7498772702180219  1.0000
  C   C45       1.0  0.445140629627268  0.4890062519705864  0.8497394048102151  1.0000
  C   C46       1.0  0.5429414769566349  0.5252257852619167  0.2380182225761018  1.0000
  C   C47       1.0  0.002377019027861098  0.5199343569429473  0.3128343377053113  1.0000
  C   C48       1.0  0.013235469104607498  0.4798942953194967  0.6871611839212761  1.0000
  C   C49       1.0  0.37387987068046863  0.8508202555428568  0.6455363069187073  1.0000
  C   C50       1.0  0.6974883752733091  0.14129588207851637  0.4347465402255963  1.0000
  C   C51       1.0  0.6310900975018966  0.6914563122971489  0.3620321515487319  1.0000
  C   C52       1.0  0.4095759433986715  0.3166760052918107  0.6586903124006439  1.0000
  C   C53       1.0  0.6564408583498321  0.4163753210408103  0.7119223580752703  1.0000
  C   C54       1.0  0.6731479505800879  0.5167857054039899  0.296912537397553  1.0000
  C   C55       1.0  0.6489011686791032  0.5220386669440629  0.8762341334531811  1.0000
  C   C56       1.0  0.4486738822682099  0.49271094600216253  0.1467818944325714  1.0000
  C   C57       1.0  0.6501987886559136  0.5255896952315452  0.0999014646866598  1.0000
  C   C58       1.0  0.2479718263019066  0.45385603419872916  0.8414528252616265  1.0000
  C   C59       1.0  0.3048930600624331  0.36087557141540566  0.1847544033638187  1.0000
  C   C60       1.0  0.450408182463626  0.6657287541462151  0.9265583961046459  1.0000
  C   C61       1.0  0.5478781870061837  0.3360452526508197  0.0740849258881013  1.0000
  C   C62       1.0  0.3065974386072483  0.6228234199061191  0.0875504864258119  1.0000
  C   C63       1.0  0.41054934715253216  0.31593020608367073  0.9080441002155197  1.0000
  C   C64       1.0  0.37822532451951923  0.5043029152282016  0.8061983110294548  1.0000
  C   C65       1.0  0.39292986220986137  0.46305714593594877  0.1960188657506592  1.0000
  C   C66       1.0  0.39393812241456055  0.511849556966304  0.7347074736084167  1.0000
  N   N1        1.0  0.4993495550869157  0.6943629136768336  0.5019012562235474  1.0000
  N   N2        1.0  0.5065675179790573  0.30166099040938127  0.5001341435793948  1.0000
  Cl  Cl1       1.0  0.3618735443845011  0.6855173993788881  0.5808906358939296  1.0000
  Cl  Cl2       1.0  0.9539189457756978  0.35044468459796013  0.5583583122397114  1.0000
  Cl  Cl3       1.0  0.08787941905040239  0.3750201611446116  0.41315392468546014  1.0000
  Cl  Cl4       1.0  0.9237668377967978  0.621309590555711  0.5852221208617365  1.0000
  Cl  Cl5       1.0  0.3105366785325998  0.5262734339696138  0.6809084554938352  1.0000
  Cl  Cl6       1.0  0.33686953247212154  0.43931870512622595  0.3272607642939747  1.0000
  Cl  Cl7       1.0  0.6161587694792774  0.3037673540544503  0.3951449891246384  1.0000
  Cl  Cl8       1.0  0.6485186171513247  0.8491013601321595  0.4326692715303296  1.0000
  Cl  Cl9       1.0  0.3788166137000744  0.1535109249549862  0.6046263898651887  1.0000
  Cl  Cl10      1.0  0.6042275779412379  0.9103048752071955  0.6166697870763898  1.0000
  Cl  Cl11      1.0  0.40106233289566257  0.0861201553291977  0.4025333562750006  1.0000
  Cl  Cl12      1.0  0.6059415130362709  0.07860737353261979  0.6186253424668919  1.0000
  Cl  Cl13      1.0  0.3996787692786441  0.9180044212262573  0.4003320932712882  1.0000
  Cl  Cl14      1.0  0.05758461473657659  0.6457729112449542  0.4414663991825307  1.0000
  O   O1        1.0  0.5048689827914856  0.5665699066087128  0.3883866742886184  1.0000
  O   O2        1.0  0.07052016022703358  0.4890333658468435  0.6284730232412913  1.0000
  O   O3        1.0  0.37168803848781806  0.8435365781933372  0.5711842773076725  1.0000
  O   O4        1.0  0.6101310494233445  0.14676965200321487  0.4172735132787153  1.0000
  O   O5        1.0  0.6211440507440428  0.688547868858734  0.43711159923693543  1.0000
  O   O6        1.0  0.4040808448255078  0.3137925928016046  0.5841159572226715  1.0000
  O   O7        1.0  0.6226340617230546  0.487898102665504  0.721247505607522  1.0000
  O   O8        1.0  0.6172287055578564  0.5568905140839105  0.2539295154587577  1.0000
  O   O9        1.0  0.5922113388862514  0.46469778475427853  0.8638926158600455  1.0000
  O   O10       1.0  0.5719140837804629  0.5598586918604695  0.11912204623118332  1.0000
  O   O11       1.0  0.2984521719865398  0.5162150026244561  0.8333798319492516  1.0000
  O   O12       1.0  0.49437265210151077  0.44827868821898426  0.6005260525765123  1.0000
  O   O13       1.0  0.31961106944234524  0.4359211906013983  0.1726058240274355  1.0000
  O   O14       1.0  0.3892900687488988  0.6100023967692607  0.9261086135362716  1.0000
  O   O15       1.0  0.4624349593466093  0.3612952515050124  0.07232508512078079  1.0000
  O   O16       1.0  0.39447176020986763  0.6130821919964335  0.0701727791611475  1.0000
  O   O17       1.0  0.47671413212918873  0.36117308119163744  0.9289413680048  1.0000
  O   O18       1.0  0.5115435903041642  0.4451697839563024  0.3966880956456507  1.0000
  O   O19       1.0  0.5047996765592372  0.5696796781308961  0.6020651025665131  1.0000
  O   O20       1.0  0.6302557797520335  0.54307918722715  0.4926296889210491  1.0000
  O   O21       1.0  0.3759866635824878  0.4306005392858409  0.4944285381660621  1.0000
  O   O22       1.0  0.6311342687745239  0.4217530482962886  0.5086545382941097  1.0000
  O   O23       1.0  0.3849479450048392  0.552514691736846  0.4942413687057936  1.0000
  O   O24       1.0  0.9428193632644338  0.5077909045164972  0.3696683503170348  1.0000
