data_image0
_chemical_formula_structural       Cd3H24C22S4N4Cl6O6
_chemical_formula_sum              "Cd3 H24 C22 S4 N4 Cl6 O6"
_cell_length_a       7.52219189893648
_cell_length_b       9.856277390662077
_cell_length_c       12.750062544401793
_cell_angle_alpha    83.58556010651562
_cell_angle_beta     74.36125998326374
_cell_angle_gamma    68.82612919313905

_space_group_name_H-M_alt    "P 1"
_space_group_IT_number       1

loop_
  _space_group_symop_operation_xyz
  'x, y, z'

loop_
  _atom_site_type_symbol
  _atom_site_label
  _atom_site_symmetry_multiplicity
  _atom_site_fract_x
  _atom_site_fract_y
  _atom_site_fract_z
  _atom_site_occupancy
  Cd  Cd1       1.0  5.455302336149782e-06  0.9999983464177968  0.9999997930135434  1.0000
  Cd  Cd2       1.0  0.9682311454726645  0.03983981835540358  0.2932687941878952  1.0000
  Cd  Cd3       1.0  0.031769533642005875  0.9601687382811901  0.7067304996849015  1.0000
  H   H1        1.0  0.21641746877856605  0.5670542759052282  0.9005198417609248  1.0000
  H   H2        1.0  0.783586656002612  0.4329412319335971  0.09948945897173189  1.0000
  H   H3        1.0  0.29810453135008425  0.5484931230583855  0.07974052912478409  1.0000
  H   H4        1.0  0.7018974882452084  0.4514893115418772  0.9202726148283416  1.0000
  H   H5        1.0  0.35772381726455654  0.30822415514818136  0.18378257927387406  1.0000
  H   H6        1.0  0.6422802276391835  0.6917539176646627  0.8162251328577736  1.0000
  H   H7        1.0  0.3276457054190587  0.097306189719518  0.10163760889491864  1.0000
  H   H8        1.0  0.6723741354680259  0.902667546632301  0.8983585321414578  1.0000
  H   H9        1.0  0.5448020157542929  0.3336706798740251  0.7306510055609932  1.0000
  H   H10       1.0  0.45519953700411264  0.6663389707177672  0.2693496200226804  1.0000
  H   H11       1.0  0.8562832585825363  0.382817827564935  0.6536151323620913  1.0000
  H   H12       1.0  0.14371465988232057  0.6171994259082111  0.3463767807398951  1.0000
  H   H13       1.0  0.8446863978903212  0.6190280720429155  0.548446179327726  1.0000
  H   H14       1.0  0.1552945848978169  0.3809869520010523  0.4515415959933903  1.0000
  H   H15       1.0  0.5178848852324763  0.7909579503811485  0.5222302774916869  1.0000
  H   H16       1.0  0.48209142299071345  0.2090494399744571  0.4777604909493148  1.0000
  H   H17       1.0  0.17017055371835  0.11423800869464877  0.41556781866315606  1.0000
  H   H18       1.0  0.8298320407277517  0.8857694707604011  0.5844359678385728  1.0000
  H   H19       1.0  0.5045667077827717  0.0179178065267749  0.35367250386823196  1.0000
  H   H20       1.0  0.495433458230316  0.9820918382800485  0.6463267766998867  1.0000
  H   H21       1.0  0.4722839715388503  0.9618473958182178  0.2340018146841061  1.0000
  H   H22       1.0  0.5277175928329426  0.0381622586763584  0.7660011616310809  1.0000
  H   H23       1.0  0.40248633278151413  0.8774286056308609  0.3628266478624552  1.0000
  H   H24       1.0  0.5975210604636557  0.12257452360670837  0.6371743968488984  1.0000
  C   C1        1.0  0.22461246709880817  0.34616095984893747  0.9081793137854746  1.0000
  C   C2        1.0  0.7753940319195677  0.6538323644250993  0.09182352280037517  1.0000
  C   C3        1.0  0.24094871868420137  0.4657616346764754  0.9477758282860831  1.0000
  C   C4        1.0  0.7590627820173881  0.534224085996513  0.0522331479111315  1.0000
  C   C5        1.0  0.2871241706535202  0.454426757783402  0.0479460434804082  1.0000
  C   C6        1.0  0.7128804001926169  0.5455589352656957  0.9520569912162171  1.0000
  C   C7        1.0  0.31849114366268355  0.3225403680692408  0.10620583881691904  1.0000
  C   C8        1.0  0.6815146059460775  0.6774398783437546  0.8937959173875709  1.0000
  C   C9        1.0  0.3025458345855441  0.20511798741601683  0.06423219272188868  1.0000
  C   C10       1.0  0.6974697927392415  0.7948764434071903  0.9357667248562006  1.0000
  C   C11       1.0  0.3682050914787214  0.5321451975585062  0.6660514499609602  1.0000
  C   C12       1.0  0.6317860871740137  0.46786006650071227  0.33394809378189183  1.0000
  C   C13       1.0  0.5444493802466825  0.43271675448912816  0.6833241611725923  1.0000
  C   C14       1.0  0.4555455993272872  0.5672950493032544  0.3166710577395051  1.0000
  C   C15       1.0  0.7182276742995342  0.4617867525454783  0.641100344419989  1.0000
  C   C16       1.0  0.28176214980434366  0.5382272206399037  0.3588970814534703  1.0000
  C   C17       1.0  0.7128890092056112  0.5911561263181113  0.5823735767470949  1.0000
  C   C18       1.0  0.28709870706867247  0.4088534768314744  0.41761986729844114  1.0000
  C   C19       1.0  0.5355105149865481  0.6880620050060882  0.5666647632208494  1.0000
  C   C20       1.0  0.46447045496077527  0.31194431063139655  0.43332770283997474  1.0000
  C   C21       1.0  0.4096978976340965  0.9800741880557947  0.3213916698368919  1.0000
  C   C22       1.0  0.5903077650355686  0.0199354629787933  0.6786028042901859  1.0000
  S   S1        1.0  0.1765077141957079  0.3227614501387136  0.7849074620497515  1.0000
  S   S2        1.0  0.8234999919106232  0.6772351411094203  0.21509253961294655  1.0000
  S   S3        1.0  0.12843358097755703  0.5279220596705655  0.7138104334166896  1.0000
  S   S4        1.0  0.8715601980232891  0.47207777524588573  0.2861962290441297  1.0000
  N   N1        1.0  0.25408541981299493  0.21919069499035967  0.9675617581539411  1.0000
  N   N2        1.0  0.745931722362357  0.7807917590128921  0.032439539346391745  1.0000
  N   N3        1.0  0.3670901636678183  0.6580469765100644  0.6081976656057717  1.0000
  N   N4        1.0  0.6328963571319053  0.34195936356820755  0.391800964094429  1.0000
  Cl  Cl1       1.0  0.7835442184713985  0.18464281462372154  0.15470867959634654  1.0000
  Cl  Cl2       1.0  0.2164624382049781  0.8153559451592826  0.8452865939939398  1.0000
  Cl  Cl3       1.0  0.21415367566164892  0.8608062119076222  0.14139564722538012  1.0000
  Cl  Cl4       1.0  0.7858500975470761  0.13919582091133262  0.8586068607842136  1.0000
  Cl  Cl5       1.0  0.8467367860382141  0.8679445064956324  0.4234588109093735  1.0000
  Cl  Cl6       1.0  0.15326011660943106  0.13206622271707147  0.5765424677859983  1.0000
  O   O1        1.0  0.24007332594219838  0.10917844891962859  0.9227859173107189  1.0000
  O   O2        1.0  0.759941921484796  0.8908137932735086  0.07720776397531637  1.0000
  O   O3        1.0  0.19488124134075951  0.7492604029721619  0.5951468267874631  1.0000
  O   O4        1.0  0.8051004445922986  0.2507415711115399  0.40485453397978677  1.0000
  O   O5        1.0  0.2160197820119906  0.08971530050084908  0.33669739399255855  1.0000
  O   O6        1.0  0.7839810612755259  0.9102899897428925  0.6633029455102598  1.0000
