data_image0
_chemical_formula_structural       Cu4H36C48Br4N4O4
_chemical_formula_sum              "Cu4 H36 C48 Br4 N4 O4"
_cell_length_a       3.8379958771813114
_cell_length_b       11.199710219574676
_cell_length_c       24.307057853429384
_cell_angle_alpha    89.99986528894641
_cell_angle_beta     90.00069800453666
_cell_angle_gamma    91.71622553152224

_space_group_name_H-M_alt    "P 1"
_space_group_IT_number       1

loop_
  _space_group_symop_operation_xyz
  'x, y, z'

loop_
  _atom_site_type_symbol
  _atom_site_label
  _atom_site_symmetry_multiplicity
  _atom_site_fract_x
  _atom_site_fract_y
  _atom_site_fract_z
  _atom_site_occupancy
  Cu  Cu1       1.0  0.7983687887940577  0.9467541894630647  0.46267538254453905  1.0000
  Cu  Cu2       1.0  0.7016243164552307  0.5532405963773146  0.9626759483909383  1.0000
  Cu  Cu3       1.0  0.20162639235097404  0.05323835077751941  0.5373235336129838  1.0000
  Cu  Cu4       1.0  0.29836140276738377  0.446763550785967  0.037322144944745596  1.0000
  H   H1        1.0  0.5028673055293639  0.840876580085336  0.36039785312006256  1.0000
  H   H2        1.0  0.9971369401294012  0.6591240350694677  0.8603997210475925  1.0000
  H   H3        1.0  0.4971309985790455  0.1591222145421725  0.6396014744404397  1.0000
  H   H4        1.0  0.002882578694055809  0.34087923738862014  0.1396004293380457  1.0000
  H   H5        1.0  0.4558663917521032  0.90041668195137  0.2632650813471358  1.0000
  H   H6        1.0  0.04413420953073201  0.5995923697117719  0.7632669292647236  1.0000
  H   H7        1.0  0.5441221548793251  0.09959014647681391  0.7367346576025326  1.0000
  H   H8        1.0  0.9558855309624406  0.4004135825875964  0.23673239831343548  1.0000
  H   H9        1.0  0.036105912740190094  0.2255057577083832  0.3040515244138078  1.0000
  H   H10       1.0  0.4638836824989809  0.2744994015773088  0.804049913307381  1.0000
  H   H11       1.0  0.9638770531556772  0.774496601458715  0.6959498601452054  1.0000
  H   H12       1.0  0.5361100753527523  0.7255074297138436  0.1959477686317825  1.0000
  H   H13       1.0  0.07621986619641061  0.1486687677906744  0.400400575413542  1.0000
  H   H14       1.0  0.4237790705271394  0.3513314935355894  0.9003979805115776  1.0000
  H   H15       1.0  0.9237706949891374  0.851330915821727  0.5996020433639018  1.0000
  H   H16       1.0  0.5762145395245638  0.6486735511959411  0.0995997014283674  1.0000
  H   H17       1.0  0.9741685264220621  0.8996193792350201  0.20746658004704702  1.0000
  H   H18       1.0  0.5258554870350736  0.6003792605133711  0.7074634537355422  1.0000
  H   H19       1.0  0.025850770746849598  0.10038121338085658  0.7925348045491986  1.0000
  H   H20       1.0  0.474166120045318  0.39961776042075314  0.2925342282366046  1.0000
  H   H21       1.0  0.0557360763490138  0.7915197965811845  0.11982779868984748  1.0000
  H   H22       1.0  0.4442447995924752  0.7084738163787849  0.6198229265581787  1.0000
  H   H23       1.0  0.9442545586455395  0.2084807803165775  0.8801723516683423  1.0000
  H   H24       1.0  0.5557608779538726  0.291519622863845  0.3801735211905068  1.0000
  H   H25       1.0  0.8612115402747094  0.8777842206210595  0.0320199056448587  1.0000
  H   H26       1.0  0.6387386440044338  0.6222035620778358  0.532015336458862  1.0000
  H   H27       1.0  0.1387558656782133  0.12221902324804292  0.9679827131075669  1.0000
  H   H28       1.0  0.3612691958202277  0.377784518913252  0.4679819341010898  1.0000
  H   H29       1.0  0.5967519291463574  0.07997828189245842  0.0309327224381732  1.0000
  H   H30       1.0  0.903210735031813  0.4200120638480414  0.5309296028095076  1.0000
  H   H31       1.0  0.40322589948989673  0.9200249676877805  0.9690723647435249  1.0000
  H   H32       1.0  0.09679218914227052  0.5799795874011764  0.4690689019530865  1.0000
  H   H33       1.0  0.5161234868752305  0.18950573563611073  0.1182524899728108  1.0000
  H   H34       1.0  0.9838719689219886  0.3104878050986386  0.6182504695477604  1.0000
  H   H35       1.0  0.48388293000503063  0.8104966363842794  0.8817530086410628  1.0000
  H   H36       1.0  0.016141377814058402  0.6895038518691124  0.3817472124189578  1.0000
  C   C1        1.0  0.6247391997931191  0.9244488247108791  0.3462505996780719  1.0000
  C   C2        1.0  0.8752613230061712  0.5755509593129204  0.8462523119171265  1.0000
  C   C3        1.0  0.375256572552054  0.07555086176819263  0.653748316476289  1.0000
  C   C4        1.0  0.12474762540977481  0.42445052086978324  0.1537474270557411  1.0000
  C   C5        1.0  0.5995620199770714  0.9589293606641365  0.2914561831568321  1.0000
  C   C6        1.0  0.9004425744159834  0.5410742470164464  0.7914559249746276  1.0000
  C   C7        1.0  0.4004339741591778  0.04107300564881201  0.7085452014151984  1.0000
  C   C8        1.0  0.09956905353288902  0.45892812787616327  0.20854340259730716  1.0000
  C   C9        1.0  0.7425993162424194  0.0696675647463039  0.2751578240789456  1.0000
  C   C10       1.0  0.7573954215655404  0.43033419650438276  0.7751581047449463  1.0000
  C   C11       1.0  0.257383501823071  0.9303330078630124  0.7248427376745781  1.0000
  C   C12       1.0  0.24260853726946863  0.5696699606584729  0.2248420456246762  1.0000
  C   C13       1.0  0.9175118375225751  0.1392931573975176  0.3150426741806882  1.0000
  C   C14       1.0  0.582485767669091  0.36070753133553524  0.8150410328666736  1.0000
  C   C15       1.0  0.0824759701845252  0.8607047382279446  0.6849591217886513  1.0000
  C   C16       1.0  0.41751297977874197  0.6392966229745272  0.18495664907887738  1.0000
  C   C17       1.0  0.9401451058959082  0.09740091627050158  0.3684358529523237  1.0000
  C   C18       1.0  0.5598510778141019  0.4025977430917109  0.8684361793497571  1.0000
  C   C19       1.0  0.059842849550541595  0.9025987659182775  0.6315642974036493  1.0000
  C   C20       1.0  0.4401449162463039  0.597404623225863  0.1315631482065598  1.0000
  C   C21       1.0  0.6894896694472763  0.1230310454556474  0.21945704858705278  1.0000
  C   C22       1.0  0.8105120482649042  0.3769790113530578  0.7194554345251873  1.0000
  C   C23       1.0  0.3105095954978907  0.8769793618010695  0.780545981596589  1.0000
  C   C24       1.0  0.1895069532129199  0.6230180081491242  0.2805434816537868  1.0000
  C   C25       1.0  0.7337309741733763  0.05180530199373833  0.16883068227886608  1.0000
  C   C26       1.0  0.7662742356856783  0.44819784038433846  0.6688264364568539  1.0000
  C   C27       1.0  0.2662781222246409  0.9481979647374886  0.8311739935309318  1.0000
  C   C28       1.0  0.2337400717050997  0.5518054292237196  0.3311700112952849  1.0000
  C   C29       1.0  0.8867780050393108  0.9390553892249545  0.1690656911905961  1.0000
  C   C30       1.0  0.6132276903888751  0.5609452010826318  0.6690619582080117  1.0000
  C   C31       1.0  0.11322848563477808  0.06094787608171971  0.8309369276008809  1.0000
  C   C32       1.0  0.3867915326676439  0.43905449826637977  0.3309336667446345  1.0000
  C   C33       1.0  0.9319631514955732  0.8777576216088292  0.1198352114686685  1.0000
  C   C34       1.0  0.5680308746478673  0.6222405058181054  0.61982926666807  1.0000
  C   C35       1.0  0.0680328426255059  0.1222447447050499  0.8801657617002192  1.0000
  C   C36       1.0  0.4319908801112078  0.37775830168303776  0.38016512407813957  1.0000
  C   C37       1.0  0.8251735756160982  0.9273293219467149  0.070147452663754  1.0000
  C   C38       1.0  0.6747899908202014  0.5726600816833667  0.5701430076368367  1.0000
  C   C39       1.0  0.1748041789987766  0.07267303436110951  0.9298543432931937  1.0000
  C   C40       1.0  0.3252181445438466  0.4273315724306671  0.4298526173089599  1.0000
  C   C41       1.0  0.6762079076906389  0.039777772712057  0.0695755088152197  1.0000
  C   C42       1.0  0.8237604335854058  0.4602150806371697  0.5695721880914562  1.0000
  C   C43       1.0  0.32377788567471555  0.9602272677162421  0.9304291669703559  1.0000
  C   C44       1.0  0.1762504553026005  0.5397783614610319  0.4304254938718657  1.0000
  C   C45       1.0  0.6318939780095718  0.10184331159652524  0.1184196814526572  1.0000
  C   C46       1.0  0.8680965005093385  0.39815290536868275  0.6184173374137174  1.0000
  C   C47       1.0  0.3681021640480679  0.8981608412686486  0.8815849943437257  1.0000
  C   C48       1.0  0.1319195257748049  0.6018396463080508  0.38158034455520357  1.0000
  Br  Br1       1.0  0.2806990631032846  0.8334468243117146  0.4963305817149077  1.0000
  Br  Br2       1.0  0.21930235285070407  0.6665522385917626  0.9963290066839577  1.0000
  Br  Br3       1.0  0.7192804841987909  0.16654570735106947  0.5036695686364254  1.0000
  Br  Br4       1.0  0.7806907400525701  0.3334465531718538  0.0036727892901992996  1.0000
  N   N1        1.0  0.7901515329890428  0.9921487455212201  0.3846523329674625  1.0000
  N   N2        1.0  0.7098491421723313  0.5078499712208356  0.8846521401868229  1.0000
  N   N3        1.0  0.2098440916167803  0.007849154394527604  0.615348228800265  1.0000
  N   N4        1.0  0.2901572744500456  0.4921524008152786  0.1153463645736181  1.0000
  O   O1        1.0  0.6087847269967597  0.2295636283502845  0.2175019241666334  1.0000
  O   O2        1.0  0.8912132803004625  0.2704348231709374  0.7175034632980796  1.0000
  O   O3        1.0  0.3912110454546038  0.7704360581223142  0.7824998718097262  1.0000
  O   O4        1.0  0.10879298858255741  0.7295657623018531  0.2824966870757279  1.0000
