data_image0
_chemical_formula_structural       Cu8H32C44N16O28
_chemical_formula_sum              "Cu8 H32 C44 N16 O28"
_cell_length_a       7.271273906430158
_cell_length_b       13.72283388423954
_cell_length_c       14.097422014800529
_cell_angle_alpha    112.23442432781904
_cell_angle_beta     89.98353900835703
_cell_angle_gamma    90.00544426804265

_space_group_name_H-M_alt    "P 1"
_space_group_IT_number       1

loop_
  _space_group_symop_operation_xyz
  'x, y, z'

loop_
  _atom_site_type_symbol
  _atom_site_label
  _atom_site_symmetry_multiplicity
  _atom_site_fract_x
  _atom_site_fract_y
  _atom_site_fract_z
  _atom_site_occupancy
  Cu  Cu1       1.0  0.8966527995190251  0.0939111404064121  0.5885443832680581  1.0000
  Cu  Cu2       1.0  0.39649303489768783  0.40613269662335233  0.9114461101128839  1.0000
  Cu  Cu3       1.0  0.1033565595928749  0.9060868283253  0.41145463777332475  1.0000
  Cu  Cu4       1.0  0.6035177008403707  0.5938668321162198  0.08854851628512965  1.0000
  Cu  Cu5       1.0  0.5647526111066908  0.34825371881252937  0.09068460560297358  1.0000
  Cu  Cu6       1.0  0.0646826464224191  0.15168824410208973  0.4092098850675044  1.0000
  Cu  Cu7       1.0  0.4352196153363722  0.6517481883706111  0.9093165689384153  1.0000
  Cu  Cu8       1.0  0.9353267118953571  0.8483105201511594  0.5907922645227972  1.0000
  H   H1        1.0  0.2733734108942017  0.07893773502908633  0.4966949592296147  1.0000
  H   H2        1.0  0.7736475362097083  0.4209847002407869  0.0032448914364379623  1.0000
  H   H3        1.0  0.726642823632723  0.9210586695245625  0.5033070356084439  1.0000
  H   H4        1.0  0.22634256867225136  0.5790124854580512  0.9967552631771215  1.0000
  H   H5        1.0  0.10361836460010213  0.144234523932937  0.012380151000712708  1.0000
  H   H6        1.0  0.6036354187376531  0.35572867396927416  0.4876156067686282  1.0000
  H   H7        1.0  0.896371740663547  0.8557634448755425  0.9876188715071809  1.0000
  H   H8        1.0  0.3963643157619928  0.6442873745881031  0.5123808101759196  1.0000
  H   H9        1.0  0.8858146840477803  0.18904380775393295  0.0049461407403442025  1.0000
  H   H10       1.0  0.38578449419808447  0.31091740675422136  0.4950982365525364  1.0000
  H   H11       1.0  0.11417954797934023  0.8109572996826274  0.995050483357929  1.0000
  H   H12       1.0  0.6142179898509711  0.6891002266293217  0.5049023069530494  1.0000
  H   H13       1.0  0.9797511549111209  0.22684987413077817  0.8395933546151186  1.0000
  H   H14       1.0  0.4798400443336846  0.2730747310923434  0.6604460522586423  1.0000
  H   H15       1.0  0.020237576253471397  0.7731480822712912  0.16040140734294545  1.0000
  H   H16       1.0  0.5201775691517697  0.7269397387625532  0.33954836688089796  1.0000
  H   H17       1.0  0.970241962547938  0.9197034286393235  0.8434016975872114  1.0000
  H   H18       1.0  0.4701339509617527  0.5802046103877815  0.6566375562464587  1.0000
  H   H19       1.0  0.02976877142639721  0.08029611871808838  0.15659931979266875  1.0000
  H   H20       1.0  0.5298534041043298  0.4198114589054427  0.34336596273180936  1.0000
  H   H21       1.0  0.5486261208591118  0.22182945388846784  0.3342284463365389  1.0000
  H   H22       1.0  0.048733588509883005  0.2782410698819221  0.16575379566772605  1.0000
  H   H23       1.0  0.4513543559229094  0.7781677442606494  0.665775969664857  1.0000
  H   H24       1.0  0.9512496405958618  0.7217553223914381  0.8342439410297617  1.0000
  H   H25       1.0  0.5641958474027718  0.9031045950363039  0.3215562208031103  1.0000
  H   H26       1.0  0.0643083697999032  0.5969981944598787  0.17851658715960644  1.0000
  H   H27       1.0  0.4358245150634447  0.09689493573352342  0.6784391149707434  1.0000
  H   H28       1.0  0.9357037392635876  0.403000567713754  0.8214848521121001  1.0000
  H   H29       1.0  0.40082600784133876  0.9656574796839552  0.05613656787706136  1.0000
  H   H30       1.0  0.9009013703749676  0.5343594048026362  0.4439325347057236  1.0000
  H   H31       1.0  0.5991613465843529  0.0343475764266401  0.9438657579621862  1.0000
  H   H32       1.0  0.09910386196320792  0.46563621254794196  0.5560691728578038  1.0000
  C   C1        1.0  0.9742347802817692  0.14158385608876506  0.8129397569118242  1.0000
  C   C2        1.0  0.47431020905321486  0.3583376669469588  0.6871071500694159  1.0000
  C   C3        1.0  0.02575945098197961  0.858415685128506  0.18705913139777416  1.0000
  C   C4        1.0  0.5257032782669315  0.6416728708269733  0.3128872490399176  1.0000
  C   C5        1.0  0.9709924302815197  0.9830487049646097  0.8153762936560515  1.0000
  C   C6        1.0  0.470959549349125  0.5168640388479278  0.6846603081539301  1.0000
  C   C7        1.0  0.0290169291915703  0.0169516213706373  0.1846221715047278  1.0000
  C   C8        1.0  0.5290319307782028  0.4831504642095511  0.3153454747214185  1.0000
  C   C9        1.0  0.4696950907581084  0.10154872653877331  0.19089187128727056  1.0000
  C   C10       1.0  0.9697880258479474  0.39849201637979803  0.30913431090697696  1.0000
  C   C11       1.0  0.5302908870414245  0.8984547695639622  0.8091148491953535  1.0000
  C   C12       1.0  0.03020482966575601  0.6014988713325098  0.6908635385968511  1.0000
  C   C13       1.0  0.5247304549328435  0.13804195329768024  0.2935380099735313  1.0000
  C   C14       1.0  0.024823318940782702  0.3620351169900149  0.20647006122437978  1.0000
  C   C15       1.0  0.4752555236813053  0.861959172789625  0.706465005735119  1.0000
  C   C16       1.0  0.9751709130133579  0.637956545551866  0.7935238156326394  1.0000
  C   C17       1.0  0.5515479868827317  0.06705263983037922  0.3417922331525106  1.0000
  C   C18       1.0  0.051744644591444504  0.4330471290883224  0.15824850453944356  1.0000
  C   C19       1.0  0.4484531207656418  0.9329461141125253  0.6582063665208084  1.0000
  C   C20       1.0  0.9482509612862916  0.5669429734347277  0.8417497667514413  1.0000
  C   C21       1.0  0.536267938728983  0.9588276998997288  0.2852892292409807  1.0000
  C   C22       1.0  0.036415244853842  0.5412721818052191  0.21479306897920486  1.0000
  C   C23       1.0  0.4637359186852594  0.04117106230680892  0.7147122106592223  1.0000
  C   C24       1.0  0.9635844856317066  0.4587210821010502  0.7852106151021305  1.0000
  C   C25       1.0  0.4844192438807796  0.9219053821411766  0.1819360681940055  1.0000
  C   C26       1.0  0.984442534952443  0.5781612590287182  0.31815223552175825  1.0000
  C   C27       1.0  0.5155832384340543  0.07809495249608031  0.8180652379269093  1.0000
  C   C28       1.0  0.0155599446905725  0.421833593841022  0.6818569953388123  1.0000
  C   C29       1.0  0.4454850582384538  0.9937546650654954  0.1357020502349826  1.0000
  C   C30       1.0  0.9455925516354216  0.5062862822851388  0.3643741490523739  1.0000
  C   C31       1.0  0.5545105472793281  0.006248035477312902  0.8643015409654711  1.0000
  C   C32       1.0  0.05440580376097161  0.49370776680490996  0.6356291131371423  1.0000
  C   C33       1.0  0.4371895175257237  0.17752480295128245  0.13890320148271945  1.0000
  C   C34       1.0  0.9372582320781647  0.3224791345523955  0.3610923795959878  1.0000
  C   C35       1.0  0.5627882103050511  0.8224700169187713  0.8610946695178188  1.0000
  C   C36       1.0  0.06273737222156942  0.6775117717667954  0.6389118606802031  1.0000
  C   C37       1.0  0.6066429175429066  0.10370732770493164  0.45289192975761255  1.0000
  C   C38       1.0  0.10689312068014802  0.39637313666775514  0.047143437841022325  1.0000
  C   C39       1.0  0.3933636905863054  0.8962937941628227  0.5471096641615817  1.0000
  C   C40       1.0  0.8930997345965894  0.6036209021009854  0.9528562742220148  1.0000
  C   C41       1.0  0.4788122702146184  0.805816991278434  0.1199488488386181  1.0000
  C   C42       1.0  0.9784862079183514  0.694244862878499  0.38010097116362845  1.0000
  C   C43       1.0  0.5212025917195079  0.19418410780127  0.880044933252009  1.0000
  C   C44       1.0  0.0215176470405325  0.30574684099797633  0.6199071071420691  1.0000
  N   N1        1.0  0.9595195744930722  0.9745844692326957  0.7192138890930482  1.0000
  N   N2        1.0  0.45952720180921613  0.5253504088256307  0.7808325244904638  1.0000
  N   N3        1.0  0.04049253418872921  0.025413509831295804  0.28078868228431736  1.0000
  N   N4        1.0  0.5404629042702922  0.47466014559071135  0.21916755727240672  1.0000
  N   N5        1.0  0.9596744625872378  0.07306753240619203  0.7174361652035444  1.0000
  N   N6        1.0  0.4597793365466957  0.42686828327759246  0.7826202739218363  1.0000
  N   N7        1.0  0.040328020758693114  0.9269288556530952  0.28256014980924254  1.0000
  N   N8        1.0  0.5402190223988798  0.5731391097061762  0.21737439410783582  1.0000
  N   N9        1.0  0.9801949352716691  0.08697366561959544  0.8762241914420417  1.0000
  N   N10       1.0  0.48020492488620914  0.41293047830179574  0.6238112134580407  1.0000
  N   N11       1.0  0.0198034214657596  0.9130227307307451  0.12377496432138473  1.0000
  N   N12       1.0  0.5198016851731924  0.5870879402435919  0.3761889077367259  1.0000
  N   N13       1.0  0.9723793455335754  0.12564985040322094  0.9828007568266276  1.0000
  N   N14       1.0  0.47238501626607404  0.374289759219927  0.5172409928477821  1.0000
  N   N15       1.0  0.0276135108164937  0.8743520484230628  0.017197575707122322  1.0000
  N   N16       1.0  0.5276147176559152  0.6257255082964549  0.48275726631152355  1.0000
  O   O1        1.0  0.5425630019166547  0.25967606286339884  0.17034456441150783  1.0000
  O   O2        1.0  0.04262003613312261  0.24032825866621724  0.3295725071661977  1.0000
  O   O3        1.0  0.45739547191213614  0.7403305657875949  0.8296576297434657  1.0000
  O   O4        1.0  0.957393446698987  0.7596657965694575  0.6704328841983553  1.0000
  O   O5        1.0  0.31806114373009825  0.15730563230912512  0.07023502146673621  1.0000
  O   O6        1.0  0.8181793571561758  0.34267971864499475  0.4298212079881055  1.0000
  O   O7        1.0  0.6819275840607875  0.8426805526244653  0.9297682007671357  1.0000
  O   O8        1.0  0.18182862518483486  0.6573127559127842  0.5701814772430965  1.0000
  O   O9        1.0  0.4884055055155515  0.12584801150698152  0.5229826173489159  1.0000
  O   O10       1.0  0.9887837207243921  0.37408429258345427  0.9770228248054736  1.0000
  O   O11       1.0  0.511602478259981  0.8741546807118754  0.47701813247238806  1.0000
  O   O12       1.0  0.0112036334015997  0.6259136824419473  0.022978328239212024  1.0000
  O   O13       1.0  0.7812729930460875  0.10661720644935001  0.4672136737919035  1.0000
  O   O14       1.0  0.2815594700478243  0.39354938195616296  0.03287251638543158  1.0000
  O   O15       1.0  0.21873911617114325  0.8933697470201241  0.5327834437918569  1.0000
  O   O16       1.0  0.7184292613639869  0.6064446361425342  0.9671200949008923  1.0000
  O   O17       1.0  0.567602755851212  0.7474920332018444  0.1561514456567324  1.0000
  O   O18       1.0  0.06674917407408291  0.7526811114819055  0.3437842320504816  1.0000
  O   O19       1.0  0.4324437385706049  0.25250984058678944  0.8438383614825756  1.0000
  O   O20       1.0  0.9332574349107505  0.24731449138263883  0.6562125046446214  1.0000
  O   O21       1.0  0.3875750082742969  0.7756017610072948  0.036188362427353314  1.0000
  O   O22       1.0  0.8873496324857231  0.7244853429084801  0.46392475616593054  1.0000
  O   O23       1.0  0.6124164708514501  0.2243993712640275  0.9638167831895857  1.0000
  O   O24       1.0  0.11268310499900742  0.27550712948193734  0.5360772170706626  1.0000
  O   O25       1.0  0.1442065901743774  0.05710357009065349  0.4734642057763239  1.0000
  O   O26       1.0  0.6445019869423378  0.4428316107792726  0.026467686571209025  1.0000
  O   O27       1.0  0.8558041438409564  0.9428928282789784  0.5265356591534457  1.0000
  O   O28       1.0  0.35548536775106504  0.5571679325340712  0.9735319123712431  1.0000
