data_image0
_chemical_formula_structural       H24Pb2C38S4N8O14
_chemical_formula_sum              "H24 Pb2 C38 S4 N8 O14"
_cell_length_a       7.342221911865287
_cell_length_b       9.601201356347895
_cell_length_c       15.202551258200879
_cell_angle_alpha    73.4662184212893
_cell_angle_beta     77.30784070391225
_cell_angle_gamma    77.54590488931818

_space_group_name_H-M_alt    "P 1"
_space_group_IT_number       1

loop_
  _space_group_symop_operation_xyz
  'x, y, z'

loop_
  _atom_site_type_symbol
  _atom_site_label
  _atom_site_symmetry_multiplicity
  _atom_site_fract_x
  _atom_site_fract_y
  _atom_site_fract_z
  _atom_site_occupancy
  H   H1        1.0  0.8319771106468749  0.20933172181322848  0.12065264261431007  1.0000
  H   H2        1.0  0.16802714889688267  0.790665824125483  0.8793406046291425  1.0000
  H   H3        1.0  0.6349690544930909  0.32824321944756457  0.5912893087653972  1.0000
  H   H4        1.0  0.36502500561748263  0.6717564817973525  0.40871122562755624  1.0000
  H   H5        1.0  0.6383148957968174  0.06019931260691891  0.6692798240530282  1.0000
  H   H6        1.0  0.36167727951798434  0.9398026039572538  0.33071722845130597  1.0000
  H   H7        1.0  0.6761723272796091  0.97325824335541  0.839369999603271  1.0000
  H   H8        1.0  0.3238398518270672  0.026741507746329798  0.16062463642323624  1.0000
  H   H9        1.0  0.7824612025871504  0.48999783701273686  0.04894867489735338  1.0000
  H   H10       1.0  0.2175363530874037  0.5099985651627462  0.9510520729866487  1.0000
  H   H11       1.0  0.7495974909576616  0.7534912090802736  0.9530656002959295  1.0000
  H   H12       1.0  0.25039986521834834  0.24650626718287322  0.046940897544899905  1.0000
  H   H13       1.0  0.6834927960278633  0.8063618142974744  0.7911335273187634  1.0000
  H   H14       1.0  0.3164896416121152  0.1936400609921876  0.20886983894187247  1.0000
  H   H15       1.0  0.7942981794823467  0.7673390910607835  0.07694220744949128  1.0000
  H   H16       1.0  0.2057247142685341  0.23266286705631953  0.9230541751258559  1.0000
  H   H17       1.0  0.8112623391216829  0.5350891147217992  0.2038871885147558  1.0000
  H   H18       1.0  0.18873892830138325  0.46491610168392566  0.7961129052134199  1.0000
  H   H19       1.0  0.8502761957832662  0.7846392817907526  0.3914615490297635  1.0000
  H   H20       1.0  0.14971509524063006  0.2153669976814925  0.608544029336251  1.0000
  H   H21       1.0  0.9077874981861032  0.9149514787310334  0.5891547469892588  1.0000
  H   H22       1.0  0.09220098745221611  0.0850482067078886  0.4108477035022205  1.0000
  H   H23       1.0  0.8091079308849131  0.9636154741310959  0.5009030043267944  1.0000
  H   H24       1.0  0.19088147288408663  0.036386422428734  0.49909763785691313  1.0000
  Pb  Pb1       1.0  0.6443673145829935  0.6625182975610212  0.6216280642252061  1.0000
  Pb  Pb2       1.0  0.35563606605587955  0.3374770070034145  0.3783735704013084  1.0000
  C   C1        1.0  0.6491214123643444  0.2855369102778838  0.6644376343209262  1.0000
  C   C2        1.0  0.3508659139598294  0.7144550701494976  0.33556434106619554  1.0000
  C   C3        1.0  0.6508026710949582  0.13549480797832558  0.7086712225635737  1.0000
  C   C4        1.0  0.34919696102873127  0.864498310840915  0.2913259414371724  1.0000
  C   C5        1.0  0.6723237052723692  0.08776753340532648  0.8010572474678102  1.0000
  C   C6        1.0  0.3276831223960741  0.912231109650733  0.19893750214556155  1.0000
  C   C7        1.0  0.6921248524497229  0.18878327659896135  0.8480292598311011  1.0000
  C   C8        1.0  0.30788481491183006  0.8112087337737037  0.1519722881447124  1.0000
  C   C9        1.0  0.7236473295895466  0.1484292735289117  0.9421846800291933  1.0000
  C   C10       1.0  0.27636113630516224  0.8515682645996066  0.057811406539293876  1.0000
  C   C11       1.0  0.750240715266358  0.2537536993497581  0.9840573860842388  1.0000
  C   C12       1.0  0.2497709981593843  0.7462482513580468  0.015937565427933013  1.0000
  C   C13       1.0  0.7376811278483474  0.40648734333788633  0.938292826093445  1.0000
  C   C14       1.0  0.262332212035922  0.593513511518388  0.06170148865125921  1.0000
  C   C15       1.0  0.7555569141796427  0.5185384296812073  0.9776557141447954  1.0000
  C   C16       1.0  0.2444383302440016  0.4814623571662225  0.022348446411534387  1.0000
  C   C17       1.0  0.7372030500335427  0.6632478321123186  0.9256130727406814  1.0000
  C   C18       1.0  0.2627793915290155  0.33675404015200167  0.07439095142748194  1.0000
  C   C19       1.0  0.7001329718859141  0.6945203991928466  0.8346559282680489  1.0000
  C   C20       1.0  0.29985319219721873  0.3054770787370201  0.16534716478702194  1.0000
  C   C21       1.0  0.7023117183934035  0.4483466063028345  0.8446695566075422  1.0000
  C   C22       1.0  0.2976934945842443  0.5516531235287444  0.15532780349588654  1.0000
  C   C23       1.0  0.6856658266027011  0.3389377032397292  0.7986638279710764  1.0000
  C   C24       1.0  0.3143282545842183  0.6610553816214945  0.20133919957336852  1.0000
  C   C25       1.0  0.7790259935568143  0.030913460075133504  0.07982937906713526  1.0000
  C   C26       1.0  0.22098457085907336  0.9690873778021326  0.9201678674494219  1.0000
  C   C27       1.0  0.8062186034325052  0.90762237736007  0.16141312677670075  1.0000
  C   C28       1.0  0.19378268114432734  0.09237622568728909  0.8385888021954245  1.0000
  C   C29       1.0  0.8065170325421107  0.7686946895115198  0.14660123644475231  1.0000
  C   C30       1.0  0.19348494320880147  0.2313072199217743  0.8534000288237282  1.0000
  C   C31       1.0  0.8159656159833376  0.6403240272857997  0.2167003816878222  1.0000
  C   C32       1.0  0.18403659849190745  0.35967677780645596  0.7833017126991069  1.0000
  C   C33       1.0  0.8276835187105862  0.6473487888458678  0.3058357438147752  1.0000
  C   C34       1.0  0.17230938308152588  0.35265640687619276  0.694166566153655  1.0000
  C   C35       1.0  0.8365981966284439  0.7808230826025306  0.32241945326397586  1.0000
  C   C36       1.0  0.16340028748107474  0.21918212287485514  0.6775822564209905  1.0000
  C   C37       1.0  0.8252570550039524  0.9112731494078687  0.2515768661235285  1.0000
  C   C38       1.0  0.17474074577664567  0.08872874363291319  0.7484268230801377  1.0000
  S   S1        1.0  0.812542643492961  0.077620843959231  0.28789172332732  1.0000
  S   S2        1.0  0.1874516381881861  0.9223843663030137  0.7121078049401321  1.0000
  S   S3        1.0  0.8247469848585498  0.483147817658022  0.39711571993588274  1.0000
  S   S4        1.0  0.17524918161835498  0.5168551772849669  0.6028872902201956  1.0000
  N   N1        1.0  0.6651329269400605  0.3836698482637502  0.7079360103769832  1.0000
  N   N2        1.0  0.33485581457637187  0.6163221194757751  0.2920691044769158  1.0000
  N   N3        1.0  0.683065605624428  0.5910773166015133  0.7960815179452256  1.0000
  N   N4        1.0  0.3169314569111209  0.4089213063573992  0.20391494007175484  1.0000
  N   N5        1.0  0.7848131634081169  0.17642359098415025  0.0713020039006764  1.0000
  N   N6        1.0  0.21519063829985904  0.823576148509943  0.9286928746435099  1.0000
  N   N7        1.0  0.7409625462037753  0.011656478958634897  0.0019115715985122991  1.0000
  N   N8        1.0  0.25905525590955153  0.9883366503880493  0.998088246833639  1.0000
  O   O1        1.0  0.6107643914654161  0.1418796782350782  0.2936082232968432  1.0000
  O   O2        1.0  0.389232657838953  0.8581255550568441  0.706387057383708  1.0000
  O   O3        1.0  0.8794606147174451  0.030263774489817794  0.3777306671291286  1.0000
  O   O4        1.0  0.1205315630564954  0.9697447403060264  0.6222678396688865  1.0000
  O   O5        1.0  0.935368666505731  0.17114555927141592  0.21611341611524895  1.0000
  O   O6        1.0  0.06462862936813  0.828858563628799  0.7838840094988131  1.0000
  O   O7        1.0  0.008755335177262706  0.3901255911969058  0.3778368282103842  1.0000
  O   O8        1.0  0.9912405518860584  0.6098851395975017  0.6221595701381163  1.0000
  O   O9        1.0  0.6716134693512787  0.4149984578295828  0.3881650722968075  1.0000
  O   O10       1.0  0.3283866662156925  0.5849990323872374  0.6118391516796963  1.0000
  O   O11       1.0  0.7932167718500482  0.5285610334273512  0.4839184515212055  1.0000
  O   O12       1.0  0.20679360629848273  0.47143426820455403  0.5160857222886079  1.0000
  O   O13       1.0  0.7875093274445816  0.9208909153269359  0.5687715596920244  1.0000
  O   O14       1.0  0.21248542922609912  0.0791054880215682  0.43122817251865814  1.0000
