data_image0
_chemical_formula_structural       Fe3H48C72N30
_chemical_formula_sum              "Fe3 H48 C72 N30"
_cell_length_a       11.798256115108327
_cell_length_b       18.965976132713596
_cell_length_c       18.960553420130914
_cell_angle_alpha    115.81338062713287
_cell_angle_beta     101.96731604740663
_cell_angle_gamma    101.9899448554419

_space_group_name_H-M_alt    "P 1"
_space_group_IT_number       1

loop_
  _space_group_symop_operation_xyz
  'x, y, z'

loop_
  _atom_site_type_symbol
  _atom_site_label
  _atom_site_symmetry_multiplicity
  _atom_site_fract_x
  _atom_site_fract_y
  _atom_site_fract_z
  _atom_site_occupancy
  Fe  Fe1       1.0  2.1889984011516652e-06  0.5000001301618724  0.5000002307169495  1.0000
  Fe  Fe2       1.0  0.4999999741354485  0.49999983720677205  0.999999828906148  1.0000
  Fe  Fe3       1.0  0.5000015624658687  3.3001165889998225e-07  0.5000003603661725  1.0000
  H   H1        1.0  0.07871072470516079  0.31609706709575386  0.24527643662212031  1.0000
  H   H2        1.0  0.8334346303565212  0.7547547278383174  0.07066007129265728  1.0000
  H   H3        1.0  0.7624940654622773  0.9293154540045873  0.6840444359861735  1.0000
  H   H4        1.0  0.9212901492488041  0.6839009517921114  0.754723546815626  1.0000
  H   H5        1.0  0.16656049673218115  0.24524391239281568  0.9293367981120114  1.0000
  H   H6        1.0  0.23750507694877138  0.0706825645854465  0.3159547947551928  1.0000
  H   H7        1.0  0.23939796219633533  0.27462778251682346  0.3144153183714238  1.0000
  H   H8        1.0  0.9252006708613578  0.6857564397496246  0.9601247841926438  1.0000
  H   H9        1.0  0.9649499575364544  0.039713879879634796  0.7254225289705403  1.0000
  H   H10       1.0  0.7606023566888495  0.7253708586662383  0.6855848636024788  1.0000
  H   H11       1.0  0.07480027226143447  0.314243446263248  0.0398754930698502  1.0000
  H   H12       1.0  0.03505178148090214  0.9602841391717545  0.27457809443541953  1.0000
  H   H13       1.0  0.30216035938805413  0.33614111278087216  0.4700068137264141  1.0000
  H   H14       1.0  0.8325314538622876  0.5301546816597592  0.8660958986653853  1.0000
  H   H15       1.0  0.9664412522316538  0.13366678576412738  0.6637826327727652  1.0000
  H   H16       1.0  0.6978412065562195  0.6638600180910146  0.5299940860647254  1.0000
  H   H17       1.0  0.16746862278098715  0.4698452042187994  0.13390426586894924  1.0000
  H   H18       1.0  0.03356141960179542  0.866333100605004  0.33621945166621703  1.0000
  H   H19       1.0  0.20353490084976755  0.4344785068341536  0.5493118226057874  1.0000
  H   H20       1.0  0.6545379338511521  0.45076967125746836  0.8850977005763881  1.0000
  H   H21       1.0  0.7694619438510841  0.11476267977358387  0.5655104600094703  1.0000
  H   H22       1.0  0.7964672201632865  0.5655220017425362  0.45068887864919543  1.0000
  H   H23       1.0  0.3454618356297558  0.5492295921039484  0.11490057097347518  1.0000
  H   H24       1.0  0.23054277376827753  0.8852378292644685  0.434491633910099  1.0000
  H   H25       1.0  0.6689689236072025  0.5333194035619327  0.28405224467103807  1.0000
  H   H26       1.0  0.3849917187996468  0.7159281338355185  0.24917126208767124  1.0000
  H   H27       1.0  0.1356813410916755  0.7507310495323194  0.46677316317924067  1.0000
  H   H28       1.0  0.3310291086662857  0.46667985961849456  0.7159473831426553  1.0000
  H   H29       1.0  0.6150075619490564  0.28407361900452327  0.7508285563032047  1.0000
  H   H30       1.0  0.8643210828353602  0.24927008164915057  0.5332310127803765  1.0000
  H   H31       1.0  0.540854632717881  0.5510835171150602  0.17565501781220405  1.0000
  H   H32       1.0  0.36510238821060154  0.82433347478333  0.3752710916371313  1.0000
  H   H33       1.0  0.9897454900571532  0.6244879080336502  0.4488865936668062  1.0000
  H   H34       1.0  0.45914277956638466  0.448914501147918  0.8243429329927352  1.0000
  H   H35       1.0  0.6348983140864062  0.1756676558958218  0.6247286409457473  1.0000
  H   H36       1.0  0.010258046839695015  0.3755119784989985  0.5511161307403825  1.0000
  H   H37       1.0  0.6823726136119888  0.41411036787272326  0.9997258363129191  1.0000
  H   H38       1.0  0.6828182166012553  0.00023852729691499998  0.4144327695013672  1.0000
  H   H39       1.0  0.2682906951466321  0.5857661736165624  0.5861111078077955  1.0000
  H   H40       1.0  0.3176259765625388  0.5858882729540794  0.00027253848450925716  1.0000
  H   H41       1.0  0.3171812428850342  0.9997601136057804  0.585564663544119  1.0000
  H   H42       1.0  0.7317126009244245  0.41423495758237266  0.413891071919771  1.0000
  H   H43       1.0  0.8187991692453876  0.3922665201027937  0.10240541888660455  1.0000
  H   H44       1.0  0.716745614627939  0.8975535007737463  0.2899745831877567  1.0000
  H   H45       1.0  0.42657049806254566  0.7103953320966452  0.6081093311740631  1.0000
  H   H46       1.0  0.1811994195130068  0.6077321207532193  0.8975934831508782  1.0000
  H   H47       1.0  0.28325124966817566  0.10244513963837677  0.7100209299530889  1.0000
  H   H48       1.0  0.5734319936171914  0.28960766623904277  0.3918956658503562  1.0000
  C   C1        1.0  0.9655634766598523  0.42202505345692726  0.3289702611559092  1.0000
  C   C2        1.0  0.6367443876359499  0.6710410727739311  0.09297243647567639  1.0000
  C   C3        1.0  0.5435347127466625  0.9071253150471958  0.578129798513082  1.0000
  C   C4        1.0  0.034438960012316375  0.5779760774616418  0.6710291696432407  1.0000
  C   C5        1.0  0.3632511200323164  0.328960057011713  0.9070250380180697  1.0000
  C   C6        1.0  0.45646741109863603  0.0928751934710732  0.42186984826179247  1.0000
  C   C7        1.0  0.8342084951580943  0.45213084765014583  0.2654856882747437  1.0000
  C   C8        1.0  0.568931104588529  0.7345182461501095  0.18661038800251356  1.0000
  C   C9        1.0  0.3820880128254697  0.813469153907725  0.5480260810307697  1.0000
  C   C10       1.0  0.16579189714429518  0.5478696605702849  0.7345132058037577  1.0000
  C   C11       1.0  0.4310623601260841  0.2654822609081932  0.8133860225305297  1.0000
  C   C12       1.0  0.6179124359006136  0.18653322170061404  0.45197785203295376  1.0000
  C   C13       1.0  0.05893370991813637  0.3949369450518674  0.3606425556542661  1.0000
  C   C14       1.0  0.6983710658792929  0.6393840190978819  0.03415460527875063  1.0000
  C   C15       1.0  0.6640222215401791  0.9658511801966865  0.6052062870375748  1.0000
  C   C16       1.0  0.9410689675798238  0.6050629412004156  0.6393574198245063  1.0000
  C   C17       1.0  0.301623751214791  0.3606139986745304  0.9658414256215478  1.0000
  C   C18       1.0  0.33597872299873893  0.03414870578696849  0.3947934629848717  1.0000
  C   C19       1.0  0.11034342410617623  0.3402302549162214  0.31222480057157753  1.0000
  C   C20       1.0  0.7982000131334175  0.6878166345410293  0.027846239056387365  1.0000
  C   C21       1.0  0.7701633879115802  0.9721010436289813  0.6598903232763647  1.0000
  C   C22       1.0  0.889659807044431  0.6597690090700751  0.6877755036110855  1.0000
  C   C23       1.0  0.2017965340874568  0.3121813835584319  0.9721510717803384  1.0000
  C   C24       1.0  0.229838111696111  0.027898220059476793  0.3401092282099256  1.0000
  C   C25       1.0  0.1985886199955615  0.31786764907026566  0.3507998374808707  1.0000
  C   C26       1.0  0.8480020978380405  0.6493208150431824  0.9669604988224592  1.0000
  C   C27       1.0  0.880924037008576  0.03289721306239099  0.6821869763368085  1.0000
  C   C28       1.0  0.8014140518378879  0.6821322372988659  0.6492022469581115  1.0000
  C   C29       1.0  0.15199624867844355  0.3506790705083275  0.033038385775448355  1.0000
  C   C30       1.0  0.11907714977225216  0.9671014282257671  0.3178127911252063  1.0000
  C   C31       1.0  0.2335462738815791  0.3518532170592861  0.4370632017378284  1.0000
  C   C32       1.0  0.7967764747345993  0.5630578542350831  0.9147206677369584  1.0000
  C   C33       1.0  0.8820050505746835  0.08509082992506477  0.6481252606676763  1.0000
  C   C34       1.0  0.7664546664089612  0.6481466690120071  0.562938130004774  1.0000
  C   C35       1.0  0.20322273684527656  0.43694203147995125  0.08527885682916295  1.0000
  C   C36       1.0  0.11799644620076308  0.9149084338218143  0.35187534529871567  1.0000
  C   C37       1.0  0.17911904993179203  0.4064528328499505  0.4818269049396022  1.0000
  C   C38       1.0  0.6975172686632406  0.518253913322198  0.9245381632111888  1.0000
  C   C39       1.0  0.7729289671455034  0.07531670179355388  0.593548024851323  1.0000
  C   C40       1.0  0.8208828274232189  0.5935489204514467  0.518174306115867  1.0000
  C   C41       1.0  0.3024810086844169  0.48174410510430465  0.07546042756196408  1.0000
  C   C42       1.0  0.2270751290684955  0.9246825623562669  0.4064529192995536  1.0000
  C   C43       1.0  0.7555889975780516  0.46113068868820034  0.20246999430238333  1.0000
  C   C44       1.0  0.5533068500606787  0.7974978097005374  0.2586690858524534  1.0000
  C   C45       1.0  0.2944815912624818  0.7414423473873767  0.5390618313313312  1.0000
  C   C46       1.0  0.24440816821591924  0.5388685743579058  0.7975295207831438  1.0000
  C   C47       1.0  0.44668951983872746  0.20250332030705204  0.7413300830896148  1.0000
  C   C48       1.0  0.7055167439249884  0.25855753839783086  0.4609412711869894  1.0000
  C   C49       1.0  0.6746323065394575  0.5058909502511354  0.22165555166544954  1.0000
  C   C50       1.0  0.45306852422175575  0.7782950072965562  0.2841634101150561  1.0000
  C   C51       1.0  0.16874996783965907  0.7157922312098393  0.4942209790188131  1.0000
  C   C52       1.0  0.3253639927749958  0.4941083126606641  0.7783438506919182  1.0000
  C   C53       1.0  0.546928400746438  0.22170550041583675  0.7158355602908486  1.0000
  C   C54       1.0  0.8312507245444607  0.2842088996737926  0.5057824442444243  1.0000
  C   C55       1.0  0.6026542014758292  0.5156288052658198  0.1613497756877891  1.0000
  C   C56       1.0  0.44130849530743155  0.8386175242819287  0.3541768645045095  1.0000
  C   C57       1.0  0.08702220403296913  0.6457074066914499  0.4844229773037441  1.0000
  C   C58       1.0  0.39734203291817466  0.484368590433341  0.8386477511246683  1.0000
  C   C59       1.0  0.5586910276831887  0.16138298386260885  0.6458229713259342  1.0000
  C   C60       1.0  0.9129799113155811  0.35429310200208863  0.5155798329114489  1.0000
  C   C61       1.0  0.6826997602336318  0.4398876165495408  0.06357277565576418  1.0000
  C   C62       1.0  0.6193384272263316  0.9363932665433196  0.3763353821113213  1.0000
  C   C63       1.0  0.24284643634889128  0.6238130624885583  0.5603179832752119  1.0000
  C   C64       1.0  0.31729733922376374  0.5601097793131445  0.9364253911249139  1.0000
  C   C65       1.0  0.38066078860192215  0.06360661908407649  0.623662560734644  1.0000
  C   C66       1.0  0.7571559904103963  0.37618806863449084  0.4396851382043039  1.0000
  C   C67       1.0  0.7578872725604242  0.42759275536480595  0.120689918351502  1.0000
  C   C68       1.0  0.6374649131402206  0.8792538834816951  0.3069538522968003  1.0000
  C   C69       1.0  0.33032023458382287  0.6932771357084488  0.5726874611303074  1.0000
  C   C70       1.0  0.24211075971306428  0.5724065078156214  0.8793097094621914  1.0000
  C   C71       1.0  0.36253461268265136  0.12074662460442906  0.6930449290535421  1.0000
  C   C72       1.0  0.6696802127261348  0.3067252399291076  0.4273169991734633  1.0000
  N   N1        1.0  0.9219487778042532  0.47088002672128215  0.38607721853630744  1.0000
  N   N2        1.0  0.5360142179212061  0.6139472898459812  0.0847716322707015  1.0000
  N   N3        1.0  0.4510158195662724  0.9152513297993747  0.5291756296773542  1.0000
  N   N4        1.0  0.0780542125205699  0.5291204819312937  0.6139225409667333  1.0000
  N   N5        1.0  0.46398295212114954  0.3860519731124936  0.9152263010946697  1.0000
  N   N6        1.0  0.5489842556608764  0.08474855610839425  0.4708250620970347  1.0000
  N   N7        1.0  0.8370196764402492  0.49028118992747927  0.3458502743382398  1.0000
  N   N8        1.0  0.4913389254928687  0.6541644286828613  0.14441955308808468  1.0000
  N   N9        1.0  0.34667593053024587  0.8555922407502617  0.5097863726377128  1.0000
  N   N10       1.0  0.16298331388457396  0.5097193187250966  0.6541494851648012  1.0000
  N   N11       1.0  0.5086576894807067  0.34583545657081055  0.855578578813443  1.0000
  N   N12       1.0  0.6533244532753882  0.14440826764543857  0.49021568488110734  1.0000
  N   N13       1.0  0.9131459981744424  0.4086508285390663  0.2522794757920366  1.0000
  N   N14       1.0  0.6610460759505868  0.7477336624826094  0.15630589124155853  1.0000
  N   N15       1.0  0.504529316421248  0.8438437143662014  0.5915545374852584  1.0000
  N   N16       1.0  0.08685643708160028  0.5913503024087134  0.7477204822471608  1.0000
  N   N17       1.0  0.3389453472264989  0.25226622181912733  0.8436889280907424  1.0000
  N   N18       1.0  0.4954711337209615  0.15615866121292749  0.40844886833841093  1.0000
  N   N19       1.0  0.09235954356988424  0.427946944596897  0.44521433199339094  1.0000
  N   N20       1.0  0.6472539426858289  0.5548131152768291  0.9826112995231071  1.0000
  N   N21       1.0  0.6645051009689809  0.0173466198466983  0.5721241440528999  1.0000
  N   N22       1.0  0.907642025206634  0.5720541862165688  0.554785513317647  1.0000
  N   N23       1.0  0.352740872992129  0.4451849025247867  0.017385258617245877  1.0000
  N   N24       1.0  0.3354970214601918  0.9826538887007811  0.4278760299620359  1.0000
  N   N25       1.0  0.6055052262230803  0.48355493114744513  0.08265920938465848  1.0000
  N   N26       1.0  0.5228992176655748  0.9172631618795535  0.4007894520883184  1.0000
  N   N27       1.0  0.12198041757952173  0.5991427055049882  0.5165233731989504  1.0000
  N   N28       1.0  0.3944936753621843  0.516444332108868  0.9173394766770855  1.0000
  N   N29       1.0  0.4771014197109764  0.0827361015869599  0.5992084049496498  1.0000
  N   N30       1.0  0.8780217006012728  0.40085780313012964  0.4834783825361412  1.0000
