data_image0
_chemical_formula_structural       Zn2H44C44N8O8
_chemical_formula_sum              "Zn2 H44 C44 N8 O8"
_cell_length_a       5.219560254162436
_cell_length_b       9.418120552145076
_cell_length_c       19.649369156674478
_cell_angle_alpha    96.91477919170798
_cell_angle_beta     90.00095395630744
_cell_angle_gamma    89.9999911052452

_space_group_name_H-M_alt    "P 1"
_space_group_IT_number       1

loop_
  _space_group_symop_operation_xyz
  'x, y, z'

loop_
  _atom_site_type_symbol
  _atom_site_label
  _atom_site_symmetry_multiplicity
  _atom_site_fract_x
  _atom_site_fract_y
  _atom_site_fract_z
  _atom_site_occupancy
  Zn  Zn1       1.0  0.4999977481159306  0.5000028828140656  9.483423966043441e-07  1.0000
  Zn  Zn2       1.0  0.9999922878750952  6.375780045999998e-07  5.837550603e-07  1.0000
  H   H1        1.0  0.2277813675381566  0.5353967438001915  0.4622220844016312  1.0000
  H   H2        1.0  0.7277644320444879  0.964604545248903  0.5377743613641996  1.0000
  H   H3        1.0  0.7722455026311721  0.4645998611725444  0.5377805446065124  1.0000
  H   H4        1.0  0.27225094275670614  0.0353963440974709  0.4622239358494937  1.0000
  H   H5        1.0  0.5774668167009054  0.7133539468235381  0.49013979030184623  1.0000
  H   H6        1.0  0.07744829315734589  0.7866482139128336  0.5098611718785122  1.0000
  H   H7        1.0  0.4225543057406113  0.28664373247675445  0.5098593385584351  1.0000
  H   H8        1.0  0.9225632499486593  0.21334839513770015  0.4901384038006285  1.0000
  H   H9        1.0  0.8926992055990723  0.7643343342846263  0.40158994818357024  1.0000
  H   H10       1.0  0.3926943047656549  0.7356639482145577  0.5984126052787885  1.0000
  H   H11       1.0  0.10731042155481423  0.235664417295787  0.5984072071650458  1.0000
  H   H12       1.0  0.607317238372829  0.2643315899110589  0.40158792612221106  1.0000
  H   H13       1.0  0.8689098159819721  0.6408662665596763  0.2832973951673736  1.0000
  H   H14       1.0  0.36889922602698993  0.8591341227787619  0.7167067086075034  1.0000
  H   H15       1.0  0.13109597944843193  0.3591324843370457  0.7167002690559342  1.0000
  H   H16       1.0  0.6311123170888066  0.14086997320863046  0.283293301377519  1.0000
  H   H17       1.0  0.7936284050462276  0.34881138186673155  0.1865494363243485  1.0000
  H   H18       1.0  0.2936206840174833  0.15118806198650958  0.8134532849576743  1.0000
  H   H19       1.0  0.206367811105082  0.6511905749861028  0.8134504495409374  1.0000
  H   H20       1.0  0.7063717004258976  0.8488128239389705  0.18654755662137748  1.0000
  H   H21       1.0  0.6789818709183422  0.5119756026004437  0.16374843480434717  1.0000
  H   H22       1.0  0.1789733321879083  0.9880256128446513  0.8362564560115473  1.0000
  H   H23       1.0  0.32101051349395254  0.4880274238123617  0.8362515130965491  1.0000
  H   H24       1.0  0.8210228840777986  0.011973130552163994  0.1637468059020719  1.0000
  H   H25       1.0  0.3762198159949505  0.2343050703839537  0.1309911665743471  1.0000
  H   H26       1.0  0.876211770715763  0.26569769258650666  0.8690080183809527  1.0000
  H   H27       1.0  0.6237725684456309  0.7656936764167098  0.869009550917312  1.0000
  H   H28       1.0  0.12378444543834628  0.7343064033911443  0.13099199157172586  1.0000
  H   H29       1.0  0.23278375902641102  0.49993902830993125  0.11788345036303839  1.0000
  H   H30       1.0  0.7327788334746898  6.355370656049983e-05  0.882114111412747  1.0000
  H   H31       1.0  0.7672105413407947  0.5000639946978109  0.8821190419557821  1.0000
  H   H32       1.0  0.26720267904342876  0.9999429038755352  0.1178829843607119  1.0000
  H   H33       1.0  0.1507672962552746  0.26178731360113255  0.2292786115603889  1.0000
  H   H34       1.0  0.6507604047588059  0.2382033969345158  0.7707194482005875  1.0000
  H   H35       1.0  0.8492327517197678  0.7382135702854453  0.7707237566831608  1.0000
  H   H36       1.0  0.3492453906321202  0.761791077075088  0.22927695008237947  1.0000
  H   H37       1.0  0.0404037631363039  0.3399042080850946  0.3509606841785313  1.0000
  H   H38       1.0  0.5403907833082471  0.16008850333457758  0.6490355071819209  1.0000
  H   H39       1.0  0.9596077800247187  0.6600956076088947  0.6490406042800316  1.0000
  H   H40       1.0  0.45961884387531876  0.8399070381961021  0.3509624798011544  1.0000
  H   H41       1.0  0.15160077416104661  0.3648689146236989  0.06078897126164409  1.0000
  H   H42       1.0  0.6516013973826631  0.13513463376880705  0.939208309909219  1.0000
  H   H43       1.0  0.8483858627408692  0.6351330381355138  0.9392139678800788  1.0000
  H   H44       1.0  0.3483890711452773  0.8648705324488541  0.060791253192256464  1.0000
  C   C1        1.0  0.6898455738723611  0.2655643859319098  0.06562534399697029  1.0000
  C   C2        1.0  0.18983430482577998  0.23444241566485854  0.9343753380016935  1.0000
  C   C3        1.0  0.31014681058375965  0.734433290625091  0.9343758203337629  1.0000
  C   C4        1.0  0.8101580795865149  0.765560610747947  0.0656246098992028  1.0000
  C   C5        1.0  0.479875486605529  0.32690681088607926  0.11556595886371918  1.0000
  C   C6        1.0  0.9798685838921201  0.17309821955810628  0.884436332109189  1.0000
  C   C7        1.0  0.5201168978378519  0.673094075039401  0.8844348827153324  1.0000
  C   C8        1.0  0.0201257164398072  0.826903735249743  0.1155650804003798  1.0000
  C   C9        1.0  0.6164215826849571  0.4077260238755186  0.17794536463957655  1.0000
  C   C10       1.0  0.1164049284733011  0.0922721299346918  0.8220529844389403  1.0000
  C   C11       1.0  0.3835765493351674  0.5922748634161293  0.8220544591860558  1.0000
  C   C12       1.0  0.8835874558995157  0.9077266195909954  0.17794569752161488  1.0000
  C   C13       1.0  0.46489373114764027  0.42490076850918246  0.24300497870128618  1.0000
  C   C14       1.0  0.9648765498347275  0.07509675867365925  0.7569947791773686  1.0000
  C   C15       1.0  0.5351024850375552  0.5751011869811362  0.7569959249295479  1.0000
  C   C16       1.0  0.03511966631239011  0.9249019894919498  0.2430049205568281  1.0000
  C   C17       1.0  0.2558000961764364  0.3461126762698043  0.2597936357576671  1.0000
  C   C18       1.0  0.7557893622476044  0.15388565674893329  0.740203774979328  1.0000
  C   C19       1.0  0.7442018676052484  0.6538914190302448  0.7402068830899182  1.0000
  C   C20       1.0  0.24421260148901067  0.8461098834143639  0.25979522975313063  1.0000
  C   C21       1.0  0.3515239260479959  0.48932997781614757  0.3562714228953681  1.0000
  C   C22       1.0  0.8514992838515097  0.010663125647909099  0.6437286260425734  1.0000
  C   C23       1.0  0.648487617129966  0.5106698371965875  0.6437303744459724  1.0000
  C   C24       1.0  0.148510343351802  0.9893345543263266  0.35626999391067216  1.0000
  C   C25       1.0  0.3639083771714624  0.5593225862596822  0.4231265179490364  1.0000
  C   C26       1.0  0.8638864111093412  0.9406745934771333  0.5768733074982747  1.0000
  C   C27       1.0  0.636108913577651  0.4406729518695867  0.5768740134640922  1.0000
  C   C28       1.0  0.13611938440436688  0.05932308445090227  0.4231268390952109  1.0000
  C   C29       1.0  0.56040621725068  0.6581814855786731  0.4383071783974373  1.0000
  C   C30       1.0  0.060387244073176305  0.8418153090662979  0.5616908571395669  1.0000
  C   C31       1.0  0.4396091575816  0.34181726328036877  0.5616920124944186  1.0000
  C   C32       1.0  0.9396166354800285  0.15817809401716681  0.43830649686120887  1.0000
  C   C33       1.0  0.7399388049265596  0.687271677901215  0.3879704472094687  1.0000
  C   C34       1.0  0.2399232195679488  0.8127306879891233  0.612032218510798  1.0000
  C   C35       1.0  0.2600689063740589  0.3127270729967221  0.6120272170178822  1.0000
  C   C36       1.0  0.7600787442264832  0.18727019794243918  0.3879686230884686  1.0000
  C   C37       1.0  0.7269604372148422  0.6178169595080188  0.3212208557674572  1.0000
  C   C38       1.0  0.2269511253101228  0.8821800407152331  0.6787824627335084  1.0000
  C   C39       1.0  0.27304344238203276  0.38218392914978927  0.6787779503047487  1.0000
  C   C40       1.0  0.7730546702205245  0.11781763653154087  0.32121819274275504  1.0000
  C   C41       1.0  0.5306522115028615  0.5174725042262194  0.30430663939178254  1.0000
  C   C42       1.0  0.030626657697737897  0.9825242491886211  0.695693814958325  1.0000
  C   C43       1.0  0.4693497522393528  0.48252731418671146  0.6956926135154617  1.0000
  C   C44       1.0  0.9693714743237862  0.017477707665435094  0.3043060709110037  1.0000
  N   N1        1.0  0.18818742777619948  0.38486857719994544  0.3272982279136656  1.0000
  N   N2        1.0  0.6881722477434807  0.11512325181927  0.6726990340523287  1.0000
  N   N3        1.0  0.8118068725854143  0.6151301675581633  0.6727040162303553  1.0000
  N   N4        1.0  0.31182588416940854  0.8848733613102834  0.32729748830185906  1.0000
  N   N5        1.0  0.3046967456653391  0.42113172828125295  0.0828368223876765  1.0000
  N   N6        1.0  0.8046940553379187  0.07887201129982907  0.9171636493835605  1.0000
  N   N7        1.0  0.6952918070729055  0.5788702258416902  0.9171650989925411  1.0000
  N   N8        1.0  0.19529449735230034  0.9211320839916933  0.08283686943571668  1.0000
  O   O1        1.0  0.791695640661402  0.14961838499599614  0.0781898936832235  1.0000
  O   O2        1.0  0.2916929698736864  0.3503906851904616  0.9218113423137452  1.0000
  O   O3        1.0  0.20828908028419596  0.8503825016058708  0.9218104389968785  1.0000
  O   O4        1.0  0.7083089938629215  0.6496048549728355  0.0781876624187063  1.0000
  O   O5        1.0  0.7597387192638722  0.33790417544265944  0.0179677181503379  1.0000
  O   O6        1.0  0.2597345451044432  0.16210378796696284  0.9820307765008494  1.0000
  O   O7        1.0  0.240253665165362  0.6620988502888917  0.9820327386333291  1.0000
  O   O8        1.0  0.7402520917438479  0.8378960277112026  0.017970511905154793  1.0000
