data_image0
_chemical_formula_structural       Mn2H18C16N2O12
_chemical_formula_sum              "Mn2 H18 C16 N2 O12"
_cell_length_a       5.1756424457821915
_cell_length_b       9.613319158283124
_cell_length_c       10.100356062683014
_cell_angle_alpha    106.6054679830544
_cell_angle_beta     92.33399374571566
_cell_angle_gamma    87.95851821678959

_space_group_name_H-M_alt    "P 1"
_space_group_IT_number       1

loop_
  _space_group_symop_operation_xyz
  'x, y, z'

loop_
  _atom_site_type_symbol
  _atom_site_label
  _atom_site_symmetry_multiplicity
  _atom_site_fract_x
  _atom_site_fract_y
  _atom_site_fract_z
  _atom_site_occupancy
  Mn  Mn1       1.0  0.0640465877962413  0.8044536542525618  0.3056803727325815  1.0000
  Mn  Mn2       1.0  0.5563982649010911  0.20725647943895345  0.7039462354638105  1.0000
  H   H1        1.0  0.42990601674290474  0.05236376697683908  0.05858846197240549  1.0000
  H   H2        1.0  0.9430791233060206  0.9277160121130444  0.9520092404457898  1.0000
  H   H3        1.0  0.8385400620036877  0.3894475559461055  0.1295492765242514  1.0000
  H   H4        1.0  0.3322120229919818  0.6173733449175953  0.8778953297505011  1.0000
  H   H5        1.0  0.7025461763734385  0.3215425419721781  0.33706700993378297  1.0000
  H   H6        1.0  0.19700963544284633  0.6854323413133512  0.6638429494316114  1.0000
  H   H7        1.0  0.4766591126592273  0.9163581892811549  0.21578888181455377  1.0000
  H   H8        1.0  0.0089233682127769  0.04749118758326888  0.786681536269704  1.0000
  H   H9        1.0  0.385035969672515  0.9925238153221443  0.37812508147021623  1.0000
  H   H10       1.0  0.8759908991377969  0.9904462386492908  0.626684333321684  1.0000
  H   H11       1.0  0.7383452262852614  0.6175305021779565  0.24681363455547975  1.0000
  H   H12       1.0  0.28946672054628664  0.4461141247528032  0.6441424886520863  1.0000
  H   H13       1.0  0.6373537736071525  0.7032098154439552  0.3932220875720347  1.0000
  H   H14       1.0  0.09227975213051562  0.3154288297439861  0.5929482831823378  1.0000
  H   H15       1.0  0.4036254703241583  0.623911338359008  0.14457268863071704  1.0000
  H   H16       1.0  0.9279504155782733  0.39738724587466107  0.8534525733137529  1.0000
  H   H17       1.0  0.14618242650483643  0.5443311112850893  0.1176083521971236  1.0000
  H   H18       1.0  0.662219598021558  0.4654745386789897  0.9045900808013556  1.0000
  C   C1        1.0  0.8951857182714136  0.1075001648267317  0.43378082799740275  1.0000
  C   C2        1.0  0.3885195449961643  0.8853529141883809  0.5653112622647994  1.0000
  C   C3        1.0  0.9853527887818887  0.1475990397163115  0.312742293721847  1.0000
  C   C4        1.0  0.49265533938161354  0.8420420536852544  0.6861122655434498  1.0000
  C   C5        1.0  0.19117824650206222  0.07099869434023279  0.23398058344142922  1.0000
  C   C6        1.0  0.7052141822890833  0.9123868445506457  0.7690242668249782  1.0000
  C   C7        1.0  0.2695501850448707  0.11021441358759887  0.11969487377030671  1.0000
  C   C8        1.0  0.7778541105091178  0.8756485742877798  0.8893558157779112  1.0000
  C   C9        1.0  0.14494006079174682  0.226792757377332  0.08361680700507179  1.0000
  C   C10       1.0  0.6484390639983743  0.7682801082226192  0.9287204517204232  1.0000
  C   C11       1.0  0.9388974525448432  0.3022009178538383  0.1611716670552781  1.0000
  C   C12       1.0  0.4384139275142971  0.6974949252268912  0.8458315878069415  1.0000
  C   C13       1.0  0.8618955841768355  0.2637332720539405  0.2756007264695128  1.0000
  C   C14       1.0  0.36463937561740073  0.7344750770107706  0.7267407911083268  1.0000
  C   C15       1.0  0.23005915359376422  0.2711988657373538  0.9624382546112571  1.0000
  C   C16       1.0  0.7345033301840262  0.729338870194553  0.0537342436784058  1.0000
  N   N1        1.0  0.31978560304177256  0.9550346029911051  0.2754542449911739  1.0000
  N   N2        1.0  0.8396725483206778  0.01899236668821659  0.7307105414745865  1.0000
  O   O1        1.0  0.23655791295774972  0.620799885279439  0.19081489577742158  1.0000
  O   O2        1.0  0.7432009777318669  0.39992543867192143  0.8214340071681718  1.0000
  O   O3        1.0  0.8946466661859843  0.9732367044156406  0.43269852319392044  1.0000
  O   O4        1.0  0.39694512939641413  0.0171951783782021  0.5616292923892559  1.0000
  O   O5        1.0  0.8183814435222773  0.20993647780240107  0.5376022473838873  1.0000
  O   O6        1.0  0.28697350660949894  0.784525455294947  0.46442045105150254  1.0000
  O   O7        1.0  0.33744363570051655  0.17325636888942597  0.8651386752441326  1.0000
  O   O8        1.0  0.8678476535984387  0.823257121541303  0.14620968689010994  1.0000
  O   O9        1.0  0.18557551236785494  0.401559277733078  0.9595144384912828  1.0000
  O   O10       1.0  0.6709466077046926  0.606086209736979  0.07079530313286135  1.0000
  O   O11       1.0  0.7965567115942492  0.6640700129860162  0.34426241016775794  1.0000
  O   O12       1.0  0.27590789097583723  0.34107427036678917  0.6182398521198493  1.0000
