data_image0
_chemical_formula_structural       Zn8H16C80Br24O26
_chemical_formula_sum              "Zn8 H16 C80 Br24 O26"
_cell_length_a       24.000310096267256
_cell_length_b       24.001775810810404
_cell_length_c       23.999941673294835
_cell_angle_alpha    66.62878605068569
_cell_angle_beta     72.44889867560559
_cell_angle_gamma    107.56071660219354

_space_group_name_H-M_alt    "P 1"
_space_group_IT_number       1

loop_
  _space_group_symop_operation_xyz
  'x, y, z'

loop_
  _atom_site_type_symbol
  _atom_site_label
  _atom_site_symmetry_multiplicity
  _atom_site_fract_x
  _atom_site_fract_y
  _atom_site_fract_z
  _atom_site_occupancy
  Zn  Zn1       1.0  0.05692289569742572  0.9576487833722355  0.4854420100576392  1.0000
  Zn  Zn2       1.0  0.0569232938370234  0.099279975140881  0.45764388207122414  1.0000
  Zn  Zn3       1.0  0.9430742840621561  0.9854387310723566  0.45764322957071357  1.0000
  Zn  Zn4       1.0  0.9430869988231836  0.9576419625254149  0.5992805410060313  1.0000
  Zn  Zn5       1.0  0.9430758284400937  0.5423488953945181  0.014563704003585021  1.0000
  Zn  Zn6       1.0  0.05692778208700834  0.5145607363674853  0.04236243384740133  1.0000
  Zn  Zn7       1.0  0.943073954594986  0.4007199920851292  0.042359998109326155  1.0000
  Zn  Zn8       1.0  0.056905692807610805  0.5423459820523817  0.9007297759803452  1.0000
  H   H1        1.0  0.9239942193855412  0.7148135845125198  0.17540678173072172  1.0000
  H   H2        1.0  0.07599008917359393  0.6753941224272213  0.21486063635094874  1.0000
  H   H3        1.0  0.9239987171305304  0.8245905253657925  0.28515323287133754  1.0000
  H   H4        1.0  0.07594908265615893  0.7851115345617076  0.32466398518670303  1.0000
  H   H5        1.0  0.07600875006707503  0.400570808317724  0.7091890515841899  1.0000
  H   H6        1.0  0.9240118359640517  0.20915441130081563  0.9006054080264934  1.0000
  H   H7        1.0  0.07595260146045753  0.29083285654263596  0.5994102499279422  1.0000
  H   H8        1.0  0.923998713926629  0.09940251877867481  0.7908387226729874  1.0000
  H   H9        1.0  0.6097599431329073  0.4005879051656508  0.17537399997335257  1.0000
  H   H10       1.0  0.6097551560575026  0.20915759212252982  0.21485948010868594  1.0000
  H   H11       1.0  0.39024130583832317  0.2908395245109432  0.28513493318778427  1.0000
  H   H12       1.0  0.39023431521609814  0.09942311346076599  0.32454973880449234  1.0000
  H   H13       1.0  0.3902517020420292  0.6753617126340219  0.9005891518653116  1.0000
  H   H14       1.0  0.3902284205551968  0.7148435524889795  0.7091534345349472  1.0000
  H   H15       1.0  0.6097708892418439  0.7851442860273466  0.7908474265818556  1.0000
  H   H16       1.0  0.6097500472845779  0.8245705632588098  0.5994221463127829  1.0000
  C   C1        1.0  0.18109970283272497  0.0905565585956793  0.40945405930616374  1.0000
  C   C2        1.0  0.9999924332324568  0.13684143711240174  0.3631522951078451  1.0000
  C   C3        1.0  0.9999909544393971  0.9094573444437585  0.40944720172115745  1.0000
  C   C4        1.0  0.8189026400893271  0.9094486495795809  0.590558648565107  1.0000
  C   C5        1.0  1.1939983792530786e-05  0.8631539038771548  0.636844541276858  1.0000
  C   C6        1.0  0.9999921199346886  0.09054826164598509  0.5905517603923089  1.0000
  C   C7        1.0  3.8812504214250505e-06  0.5905354091103374  0.09055997023715187  1.0000
  C   C8        1.0  6.693430400186241e-06  0.3631573003286022  0.13685317183793444  1.0000
  C   C9        1.0  0.818897829527245  0.40944214799115747  0.09053815110318192  1.0000
  C   C10       1.0  0.9999896117824393  0.40943764022242174  0.9094627297613304  1.0000
  C   C11       1.0  0.9999888771014014  0.6368359572292877  0.863159647079861  1.0000
  C   C12       1.0  0.18109590543866702  0.5905410121654524  0.9094442211402554  1.0000
  C   C13       1.0  6.10429844970358e-06  0.8050729983693969  0.6949277598115062  1.0000
  C   C14       1.0  0.9999966134255444  0.6949203160778197  0.8050774036896303  1.0000
  C   C15       1.0  0.9572258565827878  0.7768736667153675  0.7659000868650735  1.0000
  C   C16       1.0  0.04278064006911813  0.7231218751377638  0.7341026369898034  1.0000
  C   C17       1.0  0.957225108911352  0.7231211871091292  0.8196536397405295  1.0000
  C   C18       1.0  0.04278444592620177  0.7768774107940358  0.6803519505195936  1.0000
  C   C19       1.0  0.9999985090713537  0.19492206020243702  0.30507536595165863  1.0000
  C   C20       1.0  5.740307286596766e-07  0.305077669577237  0.19492972110544574  1.0000
  C   C21       1.0  0.9572202306827224  0.18035141003839786  0.2768691326034017  1.0000
  C   C22       1.0  0.042778721741896716  0.31965129707813134  0.22313439799135892  1.0000
  C   C23       1.0  0.9572208911791973  0.23410587079266798  0.2231194047101824  1.0000
  C   C24       1.0  0.04277799524756888  0.2658931436116774  0.2768868583946755  1.0000
  C   C25       1.0  0.9999995986925754  0.6280368776233374  0.12806076178849668  1.0000
  C   C26       1.0  0.9574503654549318  0.6580531325221275  0.13604335962814665  1.0000
  C   C27       1.0  0.9573578303837778  0.6927661084876179  0.1706817164913588  1.0000
  C   C28       1.0  0.9999927402775056  0.6995453930796175  0.1995721723263272  1.0000
  C   C29       1.0  0.04263058047533982  0.6706643681219121  0.1928030183079982  1.0000
  C   C30       1.0  0.04254454708754444  0.6360297098431217  0.15809004697823778  1.0000
  C   C31       1.0  0.9999908168112694  0.7347803811283311  0.23480517314536098  1.0000
  C   C32       1.0  0.9999853150402269  0.7651894898506482  0.2652227200920551  1.0000
  C   C33       1.0  0.9999829546674379  0.8004240398082277  0.30045727632159447  1.0000
  C   C34       1.0  0.9573541631137202  0.8293193222088888  0.30721287323829927  1.0000
  C   C35       1.0  0.9574450459081448  0.8639577988094943  0.34191995164569283  1.0000
  C   C36       1.0  0.9999872588075644  0.8719432077994753  0.3719585979769634  1.0000
  C   C37       1.0  0.042511134336471836  0.8418990064547743  0.36400204530163177  1.0000
  C   C38       1.0  0.0426008949314467  0.807181699362019  0.3293679080966355  1.0000
  C   C39       1.0  7.261088057813661e-06  0.3719329649239497  0.8719670899347919  1.0000
  C   C40       1.0  0.042558505900935  0.40648889940918315  0.7994013950332574  1.0000
  C   C41       1.0  0.04264304681384351  0.3719425541404746  0.7645990365461375  1.0000
  C   C42       1.0  2.194065089556272e-06  0.3004259874144636  0.8004549202368666  1.0000
  C   C43       1.0  0.9573704671131721  0.26456521399197896  0.8719739797923085  1.0000
  C   C44       1.0  0.9574647347076353  0.29936564391538684  0.9065229741568006  1.0000
  C   C45       1.0  0.9999963162600525  0.26519508996898383  0.7652182494439757  1.0000
  C   C46       1.0  0.9999854365467871  0.23478513226397982  0.7348026505713962  1.0000
  C   C47       1.0  0.9999817253010477  0.19955383228689536  0.699566556641962  1.0000
  C   C48       1.0  0.042600959245476085  0.235418683864431  0.6280454864856042  1.0000
  C   C49       1.0  0.04251040458107267  0.20061678863475407  0.5934967849849572  1.0000
  C   C50       1.0  0.9999826652121371  0.12805027452510132  0.6280520524678153  1.0000
  C   C51       1.0  0.9574396975722904  0.09348759638776728  0.7006237530270314  1.0000
  C   C52       1.0  0.9573522515348643  0.12803258979113952  0.7354262739320633  1.0000
  C   C53       1.0  0.7438959497056956  0.3719425234325229  0.12804816788648302  1.0000
  C   C54       1.0  0.7058876043435447  0.40650284086045463  0.13601479733014094  1.0000
  C   C55       1.0  0.6365383347440883  0.371955127765581  0.1706505110692476  1.0000
  C   C56       1.0  0.6008788827115338  0.3004344217276228  0.1995513456671958  1.0000
  C   C57       1.0  0.6365350443562148  0.2645690109219672  0.1927983601106079  1.0000
  C   C58       1.0  0.7058821823954914  0.29936785204910177  0.15809340821004988  1.0000
  C   C59       1.0  0.5304120975651259  0.2652036897617763  0.23477618448119847  1.0000
  C   C60       1.0  0.46958451779482147  0.23479515768659814  0.2651866635433747  1.0000
  C   C61       1.0  0.39911808232660206  0.19956684143060952  0.30041835668869515  1.0000
  C   C62       1.0  0.36346209473565955  0.23542827036860106  0.3071891168566978  1.0000
  C   C63       1.0  0.2941134057406316  0.2006283919314101  0.3418995311478312  1.0000
  C   C64       1.0  0.2561003605783227  0.12806326044031385  0.3719249416034743  1.0000
  C   C65       1.0  0.29410872880967537  0.09350765661852026  0.363918104888029  1.0000
  C   C66       1.0  0.3634561412291504  0.1280509172961928  0.3292905486160295  1.0000
  C   C67       1.0  0.256098222055094  0.6280410674357668  0.8719422352619477  1.0000
  C   C68       1.0  0.29411890703704563  0.6360115566584313  0.9065004846559077  1.0000
  C   C69       1.0  0.36346694078063996  0.6706444392690828  0.8719547443065995  1.0000
  C   C70       1.0  0.3991179751876076  0.6995451289218196  0.8004323468053657  1.0000
  C   C71       1.0  0.36345394105457973  0.6927832984040094  0.7645677165019509  1.0000
  C   C72       1.0  0.29410482524492915  0.658076129617818  0.7993686235196265  1.0000
  C   C73       1.0  0.4695864643946094  0.7347786052700371  0.7652013232570101  1.0000
  C   C74       1.0  0.5304111613123865  0.7651904596219624  0.7348020652890599  1.0000
  C   C75       1.0  0.6008808080565301  0.8004235380377409  0.6995737665941919  1.0000
  C   C76       1.0  0.636545717248069  0.8071966026863465  0.7354345165389446  1.0000
  C   C77       1.0  0.7058965594776936  0.8419111957722123  0.7006309811293577  1.0000
  C   C78       1.0  0.743901283113594  0.8719371246572154  0.6280632209006785  1.0000
  C   C79       1.0  0.7058835219521598  0.8639415981843188  0.5935044220993361  1.0000
  C   C80       1.0  0.6365349417676641  0.8293055787132461  0.6280519864989388  1.0000
  Br  Br1       1.0  0.8969788200669984  0.808739668749027  0.7942751127660798  1.0000
  Br  Br2       1.0  0.10302274013442052  0.6912540445931653  0.7057260754925923  1.0000
  Br  Br3       1.0  0.8969795128184683  0.6912563841692999  0.9117674696023813  1.0000
  Br  Br4       1.0  0.10305081599408072  0.8087624696224295  0.5882388267474499  1.0000
  Br  Br5       1.0  0.896976438893759  0.08824076874621073  0.3087222771441204  1.0000
  Br  Br6       1.0  0.10301574228405742  0.41176033896371683  0.1912893476823497  1.0000
  Br  Br7       1.0  0.8969747203629411  0.2057318209612762  0.19124215345410522  1.0000
  Br  Br8       1.0  0.10302750813373512  0.294268985966319  0.30875905745173066  1.0000
  Br  Br9       1.0  0.895072698664798  0.6561912451891416  0.10183882115906322  1.0000
  Br  Br10      1.0  0.10492584027203124  0.6018397605045394  0.1562470992140703  1.0000
  Br  Br11      1.0  0.8950840689014539  0.898173258735639  0.34374166239898346  1.0000
  Br  Br12      1.0  0.10485105017418316  0.8436961789118341  0.39825611168161157  1.0000
  Br  Br13      1.0  0.10495233007213048  0.5030564142782551  0.7388768089179153  1.0000
  Br  Br14      1.0  0.8951046343869747  0.2388319806731689  0.003100301740666025  1.0000
  Br  Br15      1.0  0.10486238271401045  0.2611501734015746  0.4969151764797888  1.0000
  Br  Br16      1.0  0.8950746727494664  0.9969135336356277  0.7611465284212644  1.0000
  Br  Br17      1.0  0.7419333454058404  0.5030790442226235  0.10179397460700558  1.0000
  Br  Br18      1.0  0.7419229026269961  0.23882972902162447  0.1562877671578065  1.0000
  Br  Br19      1.0  0.2580698448214633  0.2611584770022121  0.34373046340673596  1.0000
  Br  Br20      1.0  0.25806217280879906  0.9969450530716131  0.39806724321424275  1.0000
  Br  Br21      1.0  0.2580841503230146  0.6017833608031324  0.0030841010901240533  1.0000
  Br  Br22      1.0  0.25805233694410395  0.6562650027604704  0.7388303564840727  1.0000
  Br  Br23      1.0  0.7419505365066281  0.8437507433189351  0.7611612920971712  1.0000
  Br  Br24      1.0  0.7419227539075877  0.8981266957215085  0.4969325983563806  1.0000
  O   O1        1.0  1.9756137064000254e-06  3.4915400207000014e-06  0.5000010255902582  1.0000
  O   O2        1.0  0.15181495588390698  0.02576109706380693  0.4343801781771788  1.0000
  O   O3        1.0  0.03951992021976738  0.15385838411256  0.3856224210102255  1.0000
  O   O4        1.0  0.9600774335803022  0.9343299483328025  0.413854726257405  1.0000
  O   O5        1.0  0.151814673340958  0.12606090642758966  0.4138413497124632  1.0000
  O   O6        1.0  0.039915698618955296  0.913884200236865  0.43431107785628603  1.0000
  O   O7        1.0  0.9604627313252437  0.07485092543161907  0.3856547142505419  1.0000
  O   O8        1.0  0.8481823655461792  0.9343583836542989  0.5257640571121914  1.0000
  O   O9        1.0  0.9605356101606047  0.8856683260712187  0.6538638944878915  1.0000
  O   O10       1.0  0.8481922327174942  0.9138352470065173  0.6260658192176083  1.0000
  O   O11       1.0  0.03948921762626157  0.8856107436018094  0.5748526875850076  1.0000
  O   O12       1.0  0.039894307969475996  0.1260526434576477  0.5257624357043937  1.0000
  O   O13       1.0  0.9601022860983192  0.0257571732827844  0.6260584086982349  1.0000
  O   O14       1.0  0.9999973912609689  0.4999949673334144  5.729178077776265e-06  1.0000
  O   O15       1.0  0.9601106818745533  0.5861484139646223  0.06565578375368382  1.0000
  O   O16       1.0  0.03954731645015389  0.42514838612594735  0.11433889513890702  1.0000
  O   O17       1.0  0.8481794300945962  0.373938009959872  0.08613222932062577  1.0000
  O   O18       1.0  0.03989942343336849  0.5656411831780161  0.08617685361262767  1.0000
  O   O19       1.0  0.8481831647030943  0.47422936112403863  0.06565678840773614  1.0000
  O   O20       1.0  0.9604693993700336  0.34614037778912643  0.11439183010445939  1.0000
  O   O21       1.0  0.9601026733015557  0.3739309212833106  0.9742544481409827  1.0000
  O   O22       1.0  0.039505160464877016  0.6143620088995901  0.8461376190309908  1.0000
  O   O23       1.0  0.03986014247613663  0.47423430553267554  0.8739491044727077  1.0000
  O   O24       1.0  0.9604701386304911  0.6143366210501571  0.9251508483696401  1.0000
  O   O25       1.0  0.15181666547445613  0.5656721585249045  0.9742308077537771  1.0000
  O   O26       1.0  0.15180493363615702  0.5861286941018022  0.8739430707303985  1.0000
