data_image0
_chemical_formula_structural       Zn2H14C32N6O8F6
_chemical_formula_sum              "Zn2 H14 C32 N6 O8 F6"
_cell_length_a       9.751214059217096
_cell_length_b       11.040528806798436
_cell_length_c       19.17242345300764
_cell_angle_alpha    89.65082448554448
_cell_angle_beta     90.54683479939361
_cell_angle_gamma    90.10468393811132

_space_group_name_H-M_alt    "P 1"
_space_group_IT_number       1

loop_
  _space_group_symop_operation_xyz
  'x, y, z'

loop_
  _atom_site_type_symbol
  _atom_site_label
  _atom_site_symmetry_multiplicity
  _atom_site_fract_x
  _atom_site_fract_y
  _atom_site_fract_z
  _atom_site_occupancy
  Zn  Zn1       1.0  0.6345124641558257  0.5084402068339029  0.5086703364208988  1.0000
  Zn  Zn2       1.0  0.3534563949089319  0.5102809620826249  0.4971613586789728  1.0000
  H   H1        1.0  0.2917564077477053  0.11754356209460327  0.46189685443697936  1.0000
  H   H2        1.0  0.8456669770225461  0.9081627090904543  0.5013785721128414  1.0000
  H   H3        1.0  0.7864436533790667  0.8937048024618047  0.5895467506003556  1.0000
  H   H4        1.0  0.1384424727716009  0.4028155117207531  0.5892376035638804  1.0000
  H   H5        1.0  0.8394948531672809  0.5957490232922636  0.3505651268716008  1.0000
  H   H6        1.0  0.8464603977345888  0.7294585449808009  0.40346495710786456  1.0000
  H   H7        1.0  0.10049811764876179  0.6044157157068  0.341843607279074  1.0000
  H   H8        1.0  0.29847184093995344  0.46684847737131435  0.1434480807278291  1.0000
  H   H9        1.0  0.29424089923787017  0.5110506625249512  0.2710242198827189  1.0000
  H   H10       1.0  0.707399839337576  0.4417960325891811  0.8501547312466329  1.0000
  H   H11       1.0  0.6986012307648933  0.4914411801067117  0.7223725927560025  1.0000
  H   H12       1.0  0.25920162180543127  0.47057748058705323  0.7248757890689532  1.0000
  H   H13       1.0  0.2664029861360433  0.4219161534527983  0.8526597124105635  1.0000
  H   H14       1.0  0.2999326878220288  0.8922787506119714  0.4591255431724406  1.0000
  C   C1        1.0  0.511836283302877  0.7438735547950797  0.4955006013871924  1.0000
  C   C2        1.0  0.506057000685331  0.4710470926149454  0.28853589786106687  1.0000
  C   C3        1.0  0.49364957074359245  0.3984668400142153  0.9334033396645439  1.0000
  C   C4        1.0  0.5080975034849047  0.39407225890440856  0.0676280923480448  1.0000
  C   C5        1.0  0.6097239197367088  0.4489797304350203  0.822416412172295  1.0000
  C   C6        1.0  0.6049778152915053  0.476383132991458  0.7516970010507009  1.0000
  C   C7        1.0  0.47880236775596074  0.48319003606402317  0.7161183226994083  1.0000
  C   C8        1.0  0.3567260705067383  0.46455817853954057  0.7528548373336221  1.0000
  C   C9        1.0  0.36051457822210153  0.4376798340418162  0.8237830846325593  1.0000
  C   C10       1.0  0.48742225009512913  0.42836644204236024  0.8589755870482776  1.0000
  C   C11       1.0  0.6231584915868139  0.9484084660879616  0.5132273795653646  1.0000
  C   C12       1.0  0.4957324549238109  0.49397095591680074  0.3656082118117823  1.0000
  C   C13       1.0  0.5097015065792122  0.8788840853762422  0.49386692092982537  1.0000
  C   C14       1.0  0.39041019913369  0.9436393245841753  0.47514654009363266  1.0000
  C   C15       1.0  0.3854667678652178  0.07011257050643849  0.477004546949459  1.0000
  C   C16       1.0  0.4988618528142582  0.13963882436943456  0.4989029250846855  1.0000
  C   C17       1.0  0.6167274845350833  0.07437262550588739  0.516337916153006  1.0000
  C   C18       1.0  0.7624682539698141  0.08159049116083139  0.5445861756074706  1.0000
  C   C19       1.0  0.7705980634336954  0.9401455784847738  0.5393547063056375  1.0000
  C   C20       1.0  0.05841434356887021  0.5685272010381011  0.45432717247264515  1.0000
  C   C21       1.0  0.0759825643630805  0.44966675464807077  0.5502097151504728  1.0000
  C   C22       1.0  0.9319556252740211  0.4472899735274822  0.5527926178205789  1.0000
  C   C23       1.0  0.4931980187398323  0.2744275871728092  0.5031102402559711  1.0000
  C   C24       1.0  0.9166410217255248  0.56399532634272  0.45768734036470693  1.0000
  C   C25       1.0  0.8936198337483885  0.6411833332976469  0.3934623888855668  1.0000
  C   C26       1.0  0.05560695771951171  0.645844421241783  0.38821637062712  1.0000
  C   C27       1.0  0.47786915883594355  0.5052913112464807  0.6388818770951872  1.0000
  C   C28       1.0  0.6267871860850179  0.4345258547932076  0.2559241503090632  1.0000
  C   C29       1.0  0.630282467858912  0.40938071586017327  0.1844822680817728  1.0000
  C   C30       1.0  0.5120834622013818  0.4198488679281949  0.14255312757949667  1.0000
  C   C31       1.0  0.3908994363113507  0.45823432084374344  0.17537025719330046  1.0000
  C   C32       1.0  0.3884772835344066  0.48268985011294036  0.24601667365806887  1.0000
  N   N1        1.0  0.3826746894893702  0.37845256508423114  0.0375222664451584  1.0000
  N   N2        1.0  0.37571998432601816  0.38281456777912115  0.9690545814342216  1.0000
  N   N3        1.0  0.6173876160639225  0.37466322933715174  0.9633389950367004  1.0000
  N   N4        1.0  0.6248290897922645  0.37500667489785394  0.03193990527934431  1.0000
  N   N5        1.0  0.141022604900904  0.5117750724471433  0.49954240717391935  1.0000
  N   N6        1.0  0.8487745445247228  0.5028059647083793  0.5068903538312881  1.0000
  O   O1        1.0  0.629237769496129  0.6932664036304029  0.4941773971008415  1.0000
  O   O2        1.0  0.3963807880700116  0.6901555513292974  0.49923011368861137  1.0000
  O   O3        1.0  0.6060115910037424  0.4904340839006877  0.40149435885584245  1.0000
  O   O4        1.0  0.3760587087601763  0.5137474637131871  0.3888899534993726  1.0000
  O   O5        1.0  0.6057108917256002  0.3270084857168171  0.5183413017727219  1.0000
  O   O6        1.0  0.3784189253479013  0.32586685365671286  0.4911786509370586  1.0000
  O   O7        1.0  0.592645030184272  0.5319295756207154  0.6114236597855935  1.0000
  O   O8        1.0  0.36444062886491224  0.4937933890518237  0.6058328261229775  1.0000
  F   F1        1.0  0.7467626655405938  0.4197534364160019  0.2911211133140554  1.0000
  F   F2        1.0  0.856912467136894  0.14408471258305156  0.5045448932909053  1.0000
  F   F3        1.0  0.7766824778521125  0.1258813494250077  0.6114253447379525  1.0000
  F   F4        1.0  0.8726330257752934  0.38768026413770673  0.6049387626745073  1.0000
  F   F5        1.0  0.7514346117467384  0.3726448471914167  0.1588654809752583  1.0000
  F   F6        1.0  0.11043475555619149  0.7619227447233281  0.3954919117147853  1.0000
