data_image0
_chemical_formula_structural       Zn2H16C34S8N2O32F4
_chemical_formula_sum              "Zn2 H16 C34 S8 N2 O32 F4"
_cell_length_a       14.527710029823327
_cell_length_b       15.707895074564997
_cell_length_c       15.967729554430447
_cell_angle_alpha    92.60990098848444
_cell_angle_beta     90.70516421117489
_cell_angle_gamma    87.63763260706476

_space_group_name_H-M_alt    "P 1"
_space_group_IT_number       1

loop_
  _space_group_symop_operation_xyz
  'x, y, z'

loop_
  _atom_site_type_symbol
  _atom_site_label
  _atom_site_symmetry_multiplicity
  _atom_site_fract_x
  _atom_site_fract_y
  _atom_site_fract_z
  _atom_site_occupancy
  Zn  Zn1       1.0  0.5893555497452354  0.4729602171159187  0.5086661766768117  1.0000
  Zn  Zn2       1.0  0.39543045127511783  0.5111742664066483  0.509799212846474  1.0000
  H   H1        1.0  0.9306989871872345  0.3710719163448388  0.5471373398329933  1.0000
  H   H2        1.0  0.2702233439613692  0.9360939279647057  0.5966809215555244  1.0000
  H   H3        1.0  0.7081115380357801  0.8041104779507933  0.3739164485004381  1.0000
  H   H4        1.0  0.3801377133611936  0.9125734775092981  0.2863629822136176  1.0000
  H   H5        1.0  0.5766198537645691  0.4028171292058361  0.23311595820812417  1.0000
  H   H6        1.0  0.44040938176681277  0.6908114349183093  0.2036608724216222  1.0000
  H   H7        1.0  0.20538866159652963  0.6226721867944107  0.36579586608494463  1.0000
  H   H8        1.0  0.708865538348519  0.6337913442961991  0.5260297012887705  1.0000
  H   H9        1.0  0.1006852127039934  0.3948441193988685  0.5495454027349923  1.0000
  H   H10       1.0  0.39166419272078906  0.8838927430352117  0.462808400919684  1.0000
  H   H11       1.0  0.665390910943742  0.9500331089299934  0.5508390727448429  1.0000
  H   H12       1.0  0.36451485052866417  0.023735420565152796  0.4347970981201145  1.0000
  H   H13       1.0  0.6260247956768977  0.08652006710173768  0.5283256841515039  1.0000
  H   H14       1.0  0.5946134895228995  0.4142697871058941  0.9405136571935844  1.0000
  H   H15       1.0  0.3818238756609987  0.6150940493213569  0.927592806670049  1.0000
  H   H16       1.0  0.4373708046005333  0.07745335059460962  0.6981110570145648  1.0000
  C   C1        1.0  0.48728970628204843  0.48899716788710634  0.6683583680762342  1.0000
  C   C2        1.0  0.4283798563572176  0.5745467371755453  0.9637890092715582  1.0000
  C   C3        1.0  0.5482912973215406  0.4618993596180729  0.9711367162337652  1.0000
  C   C4        1.0  0.4872607907418924  0.5125610960615461  0.9231213530928956  1.0000
  C   C5        1.0  0.4880507558798044  0.5400932025862488  0.18812711620327605  1.0000
  C   C6        1.0  0.5441844504393456  0.6554793645139086  0.5220944395004425  1.0000
  C   C7        1.0  0.4865584214319013  0.5022714179696451  0.8347900031219242  1.0000
  C   C8        1.0  0.48735606879777293  0.4939204508741568  0.7586812438293294  1.0000
  C   C9        1.0  0.48393978716222813  0.5413849470046087  0.2643018694098274  1.0000
  C   C10       1.0  0.9268439293254076  0.5757617886340755  0.4770016892451139  1.0000
  C   C11       1.0  0.021552496934496897  0.5829664350496843  0.4656789038185353  1.0000
  C   C12       1.0  0.5283213046269991  0.0435233932237082  0.4021990319899588  1.0000
  C   C13       1.0  0.896506646021571  0.49693528953248023  0.5034610722668944  1.0000
  C   C14       1.0  0.08250493558000471  0.5185454420481507  0.4956540655760905  1.0000
  C   C15       1.0  0.9576784537964045  0.4304907538396776  0.5271851728110877  1.0000
  C   C16       1.0  0.0513544332712854  0.44293092708009146  0.5271268429373706  1.0000
  C   C17       1.0  0.801730601431565  0.47864631772267074  0.5045152769303698  1.0000
  C   C18       1.0  0.1789261889040858  0.5291739286279268  0.499893150359334  1.0000
  C   C19       1.0  0.47938359791835683  0.5280014535571951  0.35288538389354335  1.0000
  C   C20       1.0  0.46595420852920455  0.33304354055182034  0.4827282049653193  1.0000
  C   C21       1.0  0.591327810275601  0.9610487897530858  0.5596469407651483  1.0000
  C   C22       1.0  0.4302622993309412  0.9258091056591766  0.5055153978197141  1.0000
  C   C23       1.0  0.5638244658798613  0.9476062084499405  0.40258006259264795  1.0000
  C   C24       1.0  0.40061155271145305  0.019404231506712197  0.4953227270957115  1.0000
  C   C25       1.0  0.5659764648762078  0.057285329043679695  0.5549455796439133  1.0000
  C   C26       1.0  0.45625644434224455  0.24175812216299164  0.4778965435026095  1.0000
  C   C27       1.0  0.53670120620027  0.9105321950133387  0.48914363630517954  1.0000
  C   C28       1.0  0.4859193176256511  0.07516069876117369  0.49040949994014243  1.0000
  C   C29       1.0  0.4634698354787189  0.16529685691707394  0.48450144692645847  1.0000
  C   C30       1.0  0.554398937591223  0.8198660376513515  0.4969339142353135  1.0000
  C   C31       1.0  0.5534956318152383  0.7451604014591311  0.5124803144338517  1.0000
  C   C32       1.0  0.5501604453289843  0.4730158837546981  0.0577796262286441  1.0000
  C   C33       1.0  0.4297889109385337  0.583962155053449  0.05052966245446561  1.0000
  C   C34       1.0  0.4898967972465015  0.5332642355539292  0.0999344751648579  1.0000
  S   S1        1.0  0.5697587875826358  0.11400466761775621  0.659177810951597  1.0000
  S   S2        1.0  0.30631379577273066  0.0601512766861276  0.5629318929442988  1.0000
  S   S3        1.0  0.6963325971162603  0.9415386789169276  0.3853574918425125  1.0000
  S   S4        1.0  0.5223176051935211  0.8837125240892191  0.3070219440718844  1.0000
  S   S5        1.0  0.6375199834426581  0.4135492872755647  0.1136022077090004  1.0000
  S   S6        1.0  0.3510042584279276  0.6611777590967806  0.09953444410998462  1.0000
  S   S7        1.0  0.07088255983563128  0.6686570516342626  0.4092665794083389  1.0000
  S   S8        1.0  0.8453471019002592  0.668391132486903  0.4732154657057635  1.0000
  N   N1        1.0  0.25758266827476456  0.5352221977530932  0.5100543313353542  1.0000
  N   N2        1.0  0.727141173033729  0.45486773660766033  0.502674431967101  1.0000
  O   O1        1.0  0.5654825234499796  0.4818699042044017  0.6330745352066885  1.0000
  O   O2        1.0  0.5372232602509612  0.2004275473836756  0.6484864046978204  1.0000
  O   O3        1.0  0.5025998378312408  0.0678762501242929  0.7173489203939809  1.0000
  O   O4        1.0  0.3370996394870929  0.0766317979935209  0.6483158085280181  1.0000
  O   O5        1.0  0.2559007868419555  0.1244750791588132  0.5192161274797016  1.0000
  O   O6        1.0  0.2428947316334273  0.9792830661345846  0.5599551335948405  1.0000
  O   O7        1.0  0.7098846845588511  0.9463773448587603  0.2972689149665584  1.0000
  O   O8        1.0  0.737582698686481  0.9989571499948297  0.4454866930224385  1.0000
  O   O9        1.0  0.7229403770158102  0.8493960561034938  0.41629225793469266  1.0000
  O   O10       1.0  0.529933906624521  0.9302793905044879  0.23289691219275  1.0000
  O   O11       1.0  0.5631093982001119  0.7996067891908964  0.3153411511264466  1.0000
  O   O12       1.0  0.4084429396865588  0.4938326964062584  0.6325913279494202  1.0000
  O   O13       1.0  0.4137689678752991  0.8761202290168343  0.3257642577316417  1.0000
  O   O14       1.0  0.6737631462516871  0.34784485008548677  0.056820436972437  1.0000
  O   O15       1.0  0.6949308373767736  0.47404070077653415  0.15690092540904033  1.0000
  O   O16       1.0  0.5803953288242737  0.36577150866654756  0.1818249287685703  1.0000
  O   O17       1.0  0.31290245558122354  0.7140470859288187  0.03606331034989551  1.0000
  O   O18       1.0  0.29403072752647574  0.618040625201516  0.15570517797884523  1.0000
  O   O19       1.0  0.4191907922018032  0.7211300585799094  0.15386721999906433  1.0000
  O   O20       1.0  0.0017492466673801024  0.7010338375363504  0.35381978638480405  1.0000
  O   O21       1.0  0.12358998063511001  0.7204331718219663  0.4669923857497694  1.0000
  O   O22       1.0  0.14120675219187723  0.6103967480139402  0.3514781895377723  1.0000
  O   O23       1.0  0.6179269530423707  0.6064730634983492  0.517382396714659  1.0000
  O   O24       1.0  0.8987114463259829  0.7383995095296215  0.5032150190190166  1.0000
  O   O25       1.0  0.7979102644847131  0.6679249130482391  0.39347177457904087  1.0000
  O   O26       1.0  0.7792955742369329  0.6456426979850036  0.5437888986052712  1.0000
  O   O27       1.0  0.46440433005266607  0.6299006957417673  0.5319121697277894  1.0000
  O   O28       1.0  0.5531696353633749  0.49761594314410473  0.38579004396744665  1.0000
  O   O29       1.0  0.40255051921049284  0.5452135675370402  0.38845508265637824  1.0000
  O   O30       1.0  0.5494648591780235  0.35383210379584534  0.49122360281644023  1.0000
  O   O31       1.0  0.3947083516456686  0.3825783896145866  0.4794755748208744  1.0000
  O   O32       1.0  0.6611948656321545  0.09423875509679651  0.6889806073539617  1.0000
  F   F1        1.0  0.572008029674116  0.9276696429404437  0.6363492655721218  1.0000
  F   F2        1.0  0.4106685547071934  0.9004722465981132  0.5868768762279757  1.0000
  F   F3        1.0  0.5964750006533208  0.09537247793914361  0.38123971213440916  1.0000
  F   F4        1.0  0.4602989496216594  0.05427879910494939  0.34154504518640755  1.0000
