data_image0
_chemical_formula_structural       Cd4H60C72N20O24
_chemical_formula_sum              "Cd4 H60 C72 N20 O24"
_cell_length_a       13.123363741659238
_cell_length_b       14.25449631998741
_cell_length_c       14.25436415757605
_cell_angle_alpha    110.580906341183
_cell_angle_beta     105.6163116340539
_cell_angle_gamma    105.61563672148328

_space_group_name_H-M_alt    "P 1"
_space_group_IT_number       1

loop_
  _space_group_symop_operation_xyz
  'x, y, z'

loop_
  _atom_site_type_symbol
  _atom_site_label
  _atom_site_symmetry_multiplicity
  _atom_site_fract_x
  _atom_site_fract_y
  _atom_site_fract_z
  _atom_site_occupancy
  Cd  Cd1       1.0  0.1432116593262975  0.0427204340905618  0.07693409797362699  1.0000
  Cd  Cd2       1.0  0.35678225685420273  0.9230654455972387  0.9572799005409038  1.0000
  Cd  Cd3       1.0  0.8567832151441833  0.9572314107567338  0.9230294800700563  1.0000
  Cd  Cd4       1.0  0.6432133866138016  0.0769735273183656  0.042750457014491955  1.0000
  H   H1        1.0  0.027201642771146315  0.9233803315669534  0.21491493719290128  1.0000
  H   H2        1.0  0.4727950698993623  0.7850843173275025  0.07662465915922222  1.0000
  H   H3        1.0  0.9728408297048645  0.07665516867153602  0.7851119318357789  1.0000
  H   H4        1.0  0.5271574266081701  0.21490541082612685  0.9233540105185227  1.0000
  H   H5        1.0  0.16436918291214656  0.8960937524453246  0.3835107274654562  1.0000
  H   H6        1.0  0.3356353575939082  0.6164855141684528  0.10390948315944117  1.0000
  H   H7        1.0  0.8356419896004894  0.10404450787179803  0.6165781764602372  1.0000
  H   H8        1.0  0.6643698016496415  0.383437941318526  0.8959703948748298  1.0000
  H   H9        1.0  0.3719623747142009  0.0340116264686046  0.2431447054363076  1.0000
  H   H10       1.0  0.1280394915568904  0.7568549168541239  0.9659905784476803  1.0000
  H   H11       1.0  0.6280841888528103  0.9660868673740172  0.7568867155827165  1.0000
  H   H12       1.0  0.8719219618406767  0.243116275482656  0.0339095676653116  1.0000
  H   H13       1.0  0.5689456733564384  0.3016335067590461  0.18052270398676734  1.0000
  H   H14       1.0  0.9310572596841953  0.8194813509769079  0.6983556705462703  1.0000
  H   H15       1.0  0.4310377160298415  0.6983620145139185  0.8194846558491947  1.0000
  H   H16       1.0  0.0689576006733006  0.18050983433559514  0.3016321249813458  1.0000
  H   H17       1.0  0.4418990219953542  0.30621469673788954  0.10067448504555196  1.0000
  H   H18       1.0  0.05810983081184418  0.8993201173521757  0.693783150578227  1.0000
  H   H19       1.0  0.5580995146076333  0.6938218605612575  0.8993634803841386  1.0000
  H   H20       1.0  0.9418942644781296  0.10064393988376005  0.30617713766869775  1.0000
  H   H21       1.0  0.29766846627256877  0.28862274563041274  0.34137627014721517  1.0000
  H   H22       1.0  0.20233026739920487  0.6586254235979612  0.7113849678270157  1.0000
  H   H23       1.0  0.7023146397405425  0.7113557978070872  0.6586616329970524  1.0000
  H   H24       1.0  0.7976850963810804  0.34134147256403935  0.28864156529078844  1.0000
  H   H25       1.0  0.24658173692523627  0.33336611393289683  0.49981790307188584  1.0000
  H   H26       1.0  0.2534275357882763  0.500190734137739  0.6666438519924042  1.0000
  H   H27       1.0  0.7534165516490319  0.666623886303853  0.5002298705343406  1.0000
  H   H28       1.0  0.7465772130565965  0.49976795147718905  0.3333715699326946  1.0000
  H   H29       1.0  0.4018314336676099  0.4237020260266747  0.6912243756448433  1.0000
  H   H30       1.0  0.09818086157985555  0.3087817071509633  0.5763030096620341  1.0000
  H   H31       1.0  0.5982170065584568  0.5763033393946344  0.308825848643572  1.0000
  H   H32       1.0  0.9017758619540929  0.6911663726149445  0.42368828644638523  1.0000
  H   H33       1.0  0.6577511226170785  0.4257997141277699  0.5549194824545509  1.0000
  H   H34       1.0  0.8422553916709603  0.44507945658985193  0.5741982894212968  1.0000
  H   H35       1.0  0.34222193222039005  0.5741532528300013  0.4450782990228745  1.0000
  H   H36       1.0  0.15777346050533939  0.5549153723322605  0.4258553087973098  1.0000
  H   H37       1.0  0.7997865955486319  0.6081450852940693  0.9348477585247963  1.0000
  H   H38       1.0  0.7002247648184505  0.06515021886497152  0.3918458499459304  1.0000
  H   H39       1.0  0.2001890311439354  0.39181911622748095  0.06511806898077313  1.0000
  H   H40       1.0  0.29979794780113883  0.9348779788106188  0.6081784518314494  1.0000
  H   H41       1.0  0.9039763485262498  0.5986307397627045  0.8784076275971415  1.0000
  H   H42       1.0  0.5960367025483108  0.12159619025167961  0.4013694042791299  1.0000
  H   H43       1.0  0.0960484102000265  0.40139646100065113  0.12159018372047828  1.0000
  H   H44       1.0  0.4039378479628155  0.878402393136689  0.598600316442294  1.0000
  H   H45       1.0  0.3284258710318682  0.1289525138811882  0.48719374322871534  1.0000
  H   H46       1.0  0.17157940517665082  0.512794366147496  0.8710487674111462  1.0000
  H   H47       1.0  0.6716388193483098  0.8711966174099787  0.512963550198478  1.0000
  H   H48       1.0  0.8283670392672917  0.48705313600138594  0.12881399598263246  1.0000
  H   H49       1.0  0.4480312031100341  0.21574382536672235  0.6110468799279473  1.0000
  H   H50       1.0  0.051971777259780014  0.38894386408112774  0.7842632608375621  1.0000
  H   H51       1.0  0.5519373906361835  0.7844137461803059  0.3890941443186904  1.0000
  H   H52       1.0  0.9480672670243137  0.6109162826941487  0.2155856996739516  1.0000
  H   H53       1.0  0.363022865544437  0.29457766719735906  0.23254082473410878  1.0000
  H   H54       1.0  0.13697807893125716  0.7674580725074026  0.7054251151538863  1.0000
  H   H55       1.0  0.636983259738251  0.7054138099286289  0.767486974531998  1.0000
  H   H56       1.0  0.8630174450859087  0.23251776631037302  0.29458129269423944  1.0000
  H   H57       1.0  0.754260294585734  0.5581951722402537  0.7037930143784905  1.0000
  H   H58       1.0  0.7457488976807696  0.2962129448354106  0.44181091781405263  1.0000
  H   H59       1.0  0.24570841210178423  0.4417583241101611  0.2961575571405675  1.0000
  H   H60       1.0  0.2542913388762854  0.7038415781377978  0.5582472195375628  1.0000
  C   C1        1.0  0.11913290088221366  0.9434559621707096  0.24745182318225284  1.0000
  C   C2        1.0  0.3808620176344347  0.7525423036719803  0.056542675947113825  1.0000
  C   C3        1.0  0.8809263342859949  0.056663311132197705  0.7526383625556433  1.0000
  C   C4        1.0  0.6190774271088485  0.2473757168621589  0.943343400436504  1.0000
  C   C5        1.0  0.18532127620573385  0.9292192121126421  0.3297583787695899  1.0000
  C   C6        1.0  0.31467799838586064  0.6702357973305979  0.07078062966515118  1.0000
  C   C7        1.0  0.8147353605468057  0.0708753698914677  0.6703064879357754  1.0000
  C   C8        1.0  0.6852745871436596  0.3297019819494197  0.9291331080112286  1.0000
  C   C9        1.0  0.2961282852149125  0.003765463732960899  0.2588735066576149  1.0000
  C   C10       1.0  0.20387209432225714  0.7411236194089454  0.9962389919521257  1.0000
  C   C11       1.0  0.7039380038739649  0.9963332321827353  0.741200814332032  1.0000
  C   C12       1.0  0.7960644196139199  0.25880440813845257  0.003675063254789369  1.0000
  C   C13       1.0  0.4016658854159941  0.9776020376446084  0.4106993226909096  1.0000
  C   C14       1.0  0.0983352377824147  0.5893008123239768  0.02239935716355032  1.0000
  C   C15       1.0  0.598430895580037  0.022582655967632103  0.589410956396712  1.0000
  C   C16       1.0  0.9015770423528409  0.41059402403556794  0.9774269971994015  1.0000
  C   C17       1.0  0.4260997319013455  0.8917762678479664  0.4105720341460426  1.0000
  C   C18       1.0  0.0739067826577227  0.5894423090921067  0.10823195783654434  1.0000
  C   C19       1.0  0.5740688679040532  0.1084404401164747  0.5894719044296223  1.0000
  C   C20       1.0  0.9259379296576283  0.4105253924862495  0.8915654489011826  1.0000
  C   C21       1.0  0.4670633227012857  0.08423154633364763  0.5109140009974027  1.0000
  C   C22       1.0  0.03294050532045388  0.4890798670366438  0.9157721483546621  1.0000
  C   C23       1.0  0.5330572686920617  0.9159660746864305  0.4891856688649766  1.0000
  C   C24       1.0  0.9669458764076282  0.5108190249561773  0.08403367909374995  1.0000
  C   C25       1.0  0.42269792069556905  0.1472114535757854  0.08723855698139006  1.0000
  C   C26       1.0  0.07729717444829723  0.9127519176885244  0.8527858883648632  1.0000
  C   C27       1.0  0.5772959658244758  0.8527951440003108  0.9127170333030887  1.0000
  C   C28       1.0  0.9226903460405325  0.08727698614359271  0.1472003676267022  1.0000
  C   C29       1.0  0.4748033347596703  0.27144224123166083  0.1539563675944251  1.0000
  C   C30       1.0  0.02519704520302913  0.8460359832425868  0.728548795583599  1.0000
  C   C31       1.0  0.5251830396615489  0.7285638757072234  0.8460469832789386  1.0000
  C   C32       1.0  0.9748122859277829  0.15395518694382565  0.27143339892523244  1.0000
  C   C33       1.0  0.5236464560436787  0.33113594527372936  0.34822625191157636  1.0000
  C   C34       1.0  0.9763569063334072  0.6517710479693052  0.6688637316450751  1.0000
  C   C35       1.0  0.47635189854847226  0.6688095974866358  0.6517767113244659  1.0000
  C   C36       1.0  0.0236479529673446  0.3482288293676632  0.3311975211287431  1.0000
  C   C37       1.0  0.4829381054258164  0.3542001307168123  0.4392182647228253  1.0000
  C   C38       1.0  0.01706638695344509  0.5607842688190845  0.6457998805095215  1.0000
  C   C39       1.0  0.5170453283194618  0.6457144079078035  0.5607877828876724  1.0000
  C   C40       1.0  0.9829476801714705  0.4392059058033482  0.354284181354373  1.0000
  C   C41       1.0  0.3665416969546627  0.32760183947495863  0.4231741875039603  1.0000
  C   C42       1.0  0.13345818480597413  0.5768259731770016  0.6723917722208198  1.0000
  C   C43       1.0  0.6334363580313606  0.6723242647006202  0.5768464341017321  1.0000
  C   C44       1.0  0.866552047257393  0.4231477103584781  0.32766949398543227  1.0000
  C   C45       1.0  0.3371161135705805  0.352230017967493  0.5134990554078483  1.0000
  C   C46       1.0  0.16289319261363033  0.4865075537613139  0.6477772808598061  1.0000
  C   C47       1.0  0.6628855316584745  0.6477492499948597  0.48653532819062656  1.0000
  C   C48       1.0  0.8371094332200926  0.5134610189503449  0.3522480406024115  1.0000
  C   C49       1.0  0.4227496020079897  0.4033412295070706  0.6194696829143637  1.0000
  C   C50       1.0  0.07726104897511732  0.38053644979023465  0.5966712651890446  1.0000
  C   C51       1.0  0.5772611664675225  0.5966592819369084  0.3805666116492077  1.0000
  C   C52       1.0  0.9227343079064098  0.6194279219863577  0.4033325415841986  1.0000
  C   C53       1.0  0.5395839602687786  0.43186135865250475  0.6363627072621938  1.0000
  C   C54       1.0  0.9604207077128563  0.36363968654062273  0.5681345455226533  1.0000
  C   C55       1.0  0.4604225379672186  0.5681087814423051  0.3636543050436316  1.0000
  C   C56       1.0  0.039571457984656944  0.6363395613354118  0.4318911401319027  1.0000
  C   C57       1.0  0.568348744924016  0.40622216346982043  0.5457641345737798  1.0000
  C   C58       1.0  0.9316574200593449  0.4542419023792308  0.5937746157911833  1.0000
  C   C59       1.0  0.43163625373395575  0.5937218190936877  0.45424265762012084  1.0000
  C   C60       1.0  0.06835912935228805  0.5457538141953081  0.4062825181814914  1.0000
  C   C61       1.0  0.6287059790193581  0.4915504464170511  0.7521661344760417  1.0000
  C   C62       1.0  0.8713010210696696  0.2478342357519736  0.5084392380603262  1.0000
  C   C63       1.0  0.3713172221360778  0.5084179220887535  0.24783972134408566  1.0000
  C   C64       1.0  0.12867515459822704  0.75215567670778  0.49158191372534793  1.0000
  C   C65       1.0  0.8298361051984386  0.6212612178311332  0.8737153843721613  1.0000
  C   C66       1.0  0.6701694306825914  0.126280195930768  0.3787308463639505  1.0000
  C   C67       1.0  0.17016908981955225  0.37873327678548924  0.1262725341388986  1.0000
  C   C68       1.0  0.32981747949187923  0.8737234151431611  0.6212647574434059  1.0000
  C   C69       1.0  0.8722046413199323  0.7438695706593637  0.9052514525236646  1.0000
  C   C70       1.0  0.6277892725984628  0.09474914966640574  0.25611976996326297  1.0000
  C   C71       1.0  0.12778422272986487  0.2561126999129613  0.09473375954438268  1.0000
  C   C72       1.0  0.37221351802755714  0.905267578894062  0.7438899609014269  1.0000
  N   N1        1.0  0.1890968994665556  0.9894412854939604  0.20433216053314143  1.0000
  N   N2        1.0  0.31090051973032456  0.7956610616362666  0.010558120043356193  1.0000
  N   N3        1.0  0.8109692683745351  0.0106886066168244  0.7957599249975471  1.0000
  N   N4        1.0  0.6890261211688368  0.20424544689318946  0.9893109461765661  1.0000
  N   N5        1.0  0.2972387401579795  0.9681094591838646  0.33573533809173733  1.0000
  N   N6        1.0  0.20276426506482195  0.6642651435455211  0.031896705769398376  1.0000
  N   N7        1.0  0.7028230702068043  0.0319916876367756  0.6643359005055912  1.0000
  N   N8        1.0  0.7971839243102891  0.33567349239845623  0.9680204348932262  1.0000
  N   N9        1.0  0.4099548490310738  0.1479404902813428  0.5375446820458903  1.0000
  N   N10       1.0  0.09004749599194642  0.46244888078514645  0.8520646417013467  1.0000
  N   N11       1.0  0.590129280592386  0.8522295892075322  0.4625749138288811  1.0000
  N   N12       1.0  0.9098719871979525  0.5374369679551236  0.14776742884247068  1.0000
  N   N13       1.0  0.44792306348873  0.3063871397406359  0.2487403424198149  1.0000
  N   N14       1.0  0.05207695435932173  0.7512585333760599  0.6936092117042418  1.0000
  N   N15       1.0  0.5520680780478527  0.6935674588205318  0.7512674489988242  1.0000
  N   N16       1.0  0.9479303945660787  0.24873216675379695  0.306425641454709  1.0000
  N   N17       1.0  0.7362277739513273  0.5519482069684685  0.7672457286588353  1.0000
  N   N18       1.0  0.7637807047332431  0.23275078593071905  0.4480435574220465  1.0000
  N   N19       1.0  0.2637639888947518  0.44805361309035163  0.23272872492987762  1.0000
  N   N20       1.0  0.2362252664052066  0.7672658084166959  0.5519472810727991  1.0000
  O   O1        1.0  0.3429965938316357  0.087676174127914  0.10014220913372178  1.0000
  O   O2        1.0  0.15700621112124225  0.8998558032979534  0.9123206384775459  1.0000
  O   O3        1.0  0.6569913639596123  0.9122942811399425  0.8997860765165199  1.0000
  O   O4        1.0  0.8429977884677128  0.10020425574425931  0.08768682891771823  1.0000
  O   O5        1.0  0.6245406956516105  0.3372824770973892  0.3654286384061578  1.0000
  O   O6        1.0  0.8754634613505983  0.6345690078107397  0.662720030410007  1.0000
  O   O7        1.0  0.3754602893591822  0.6626875387808866  0.634565901899343  1.0000
  O   O8        1.0  0.12453832800608926  0.36544388774947134  0.33732881508498025  1.0000
  O   O9        1.0  0.602344310514951  0.48630044079057205  0.8286663468880988  1.0000
  O   O10       1.0  0.8976697186994967  0.17133479955990086  0.51369431031366  1.0000
  O   O11       1.0  0.39770560718378073  0.5136416779720251  0.17134345193247208  1.0000
  O   O12       1.0  0.10227498733456032  0.828644770609998  0.4863532606747826  1.0000
  O   O13       1.0  0.7982995778331984  0.775089350611829  0.857971042692057  1.0000
  O   O14       1.0  0.7016877231008323  0.14202813887281712  0.2248952641266442  1.0000
  O   O15       1.0  0.20166955770424977  0.22485606544326947  0.14199508473829073  1.0000
  O   O16       1.0  0.29833216295197934  0.8580009892687032  0.7751447861365435  1.0000
  O   O17       1.0  0.972813545729622  0.8049075396968491  0.9748189930614188  1.0000
  O   O18       1.0  0.5271798241822623  0.025186396658426702  0.19509161757626714  1.0000
  O   O19       1.0  0.02718648167276429  0.1950950183537756  0.025147966130049302  1.0000
  O   O20       1.0  0.4728115503718442  0.974851534136022  0.804901530187152  1.0000
  O   O21       1.0  0.4630591699407063  0.1065015677616543  0.017444645621566213  1.0000
  O   O22       1.0  0.03693483596953932  0.982543091298851  0.8934961649989573  1.0000
  O   O23       1.0  0.5369599120936995  0.8935066821643715  0.9825283567590187  1.0000
  O   O24       1.0  0.9630249398225316  0.017458101915316607  0.10648899312074185  1.0000
