data_image0
_chemical_formula_structural       Cs2H14C16O16
_chemical_formula_sum              "Cs2 H14 C16 O16"
_cell_length_a       5.10264173954972
_cell_length_b       10.032953746283912
_cell_length_c       12.516168704154616
_cell_angle_alpha    93.71705265005193
_cell_angle_beta     99.76643586834052
_cell_angle_gamma    68.95716726976472

_space_group_name_H-M_alt    "P 1"
_space_group_IT_number       1

loop_
  _space_group_symop_operation_xyz
  'x, y, z'

loop_
  _atom_site_type_symbol
  _atom_site_label
  _atom_site_symmetry_multiplicity
  _atom_site_fract_x
  _atom_site_fract_y
  _atom_site_fract_z
  _atom_site_occupancy
  Cs  Cs1       1.0  0.811081313814789  0.3749996981606927  0.13854077302995896  1.0000
  Cs  Cs2       1.0  0.18891096794246914  0.6249942886789269  0.8614677529250725  1.0000
  H   H1        1.0  0.3584951944050377  0.9609648914563491  0.27603584715570406  1.0000
  H   H2        1.0  0.6414720240707723  0.039040509430591876  0.7239510827347428  1.0000
  H   H3        1.0  0.440848846618906  0.7571126234189689  0.1667938809003999  1.0000
  H   H4        1.0  0.5591106687924777  0.24289939824108583  0.8331932452437908  1.0000
  H   H5        1.0  0.8322176335158818  0.9502693611099385  0.0856996047992453  1.0000
  H   H6        1.0  0.16774503328269208  0.04973222811040049  0.9142744859986605  1.0000
  H   H7        1.0  0.35133326677338056  0.16109949316834357  0.3465257786456489  1.0000
  H   H8        1.0  0.648677958340812  0.8389109537212318  0.6534864192538091  1.0000
  H   H9        1.0  0.8400126014778312  0.11080636943551526  0.4904906101545875  1.0000
  H   H10       1.0  0.16001697704593462  0.8891806887790493  0.5095170189988563  1.0000
  H   H11       1.0  0.6518253704756134  0.21425476787776884  0.6462269609322886  1.0000
  H   H12       1.0  0.34820049749770016  0.7857416302019046  0.3537792154819001  1.0000
  H   H13       1.0  0.08386604372559964  0.40198849444065127  0.5960738068362159  1.0000
  H   H14       1.0  0.9161142022307943  0.598044099334224  0.4039450703340463  1.0000
  C   C1        1.0  0.606775509889019  0.06843468025313368  0.21738081625695563  1.0000
  C   C2        1.0  0.3932301043440988  0.9315585727913813  0.7826055479172918  1.0000
  C   C3        1.0  0.4997341777978266  0.9483056514496437  0.21676026395634548  1.0000
  C   C4        1.0  0.5002580734376636  0.05170128335227985  0.7832370259198311  1.0000
  C   C5        1.0  0.5443618813603947  0.8314278842857163  0.15278945146809517  1.0000
  C   C6        1.0  0.45563682167895786  0.16857454772865307  0.8472074833972554  1.0000
  C   C7        1.0  0.7112101402006986  0.7833790684647185  0.061811387187319176  1.0000
  C   C8        1.0  0.2887859366486578  0.216626249222024  0.9381901479517151  1.0000
  C   C9        1.0  0.11390638927311873  0.22839823452438412  0.47460460006061556  1.0000
  C   C10       1.0  0.8861041383786347  0.7716085345164739  0.5254037494687153  1.0000
  C   C11       1.0  0.9095339400833922  0.19512820605391568  0.5299760383168104  1.0000
  C   C12       1.0  0.09051088243288796  0.8048642997468176  0.4700164010349609  1.0000
  C   C13       1.0  0.8008349762028711  0.2550847859262149  0.6196410791080564  1.0000
  C   C14       1.0  0.19918418468314067  0.7449205058123667  0.38036680888948365  1.0000
  C   C15       1.0  0.8437276622192937  0.3716818473539689  0.6922159812242511  1.0000
  C   C16       1.0  0.156273192989808  0.6283211401949557  0.30779229097524297  1.0000
  O   O1        1.0  0.7820832741348481  0.0676373792915328  0.15625974776841633  1.0000
  O   O2        1.0  0.21789215797226574  0.9323526190795802  0.8437242727232428  1.0000
  O   O3        1.0  0.5127292696764203  0.17369395290220518  0.2822054024694082  1.0000
  O   O4        1.0  0.48728647380867324  0.8263123853296717  0.7177805220497857  1.0000
  O   O5        1.0  0.85452675439295  0.8587993790943711  0.03406529119273222  1.0000
  O   O6        1.0  0.14543368171909063  0.14118859130572045  0.9659078942102038  1.0000
  O   O7        1.0  0.7109966914554492  0.6717901598237501  0.012348581090222412  1.0000
  O   O8        1.0  0.28900947783689895  0.32818187947346183  0.9876567734049498  1.0000
  O   O9        1.0  0.2019193029694719  0.1387538475362574  0.3971788118463165  1.0000
  O   O10       1.0  0.7981319455343228  0.8612532728304458  0.6028364034290161  1.0000
  O   O11       1.0  0.19330644107522232  0.33267424340903057  0.5001440920294937  1.0000
  O   O12       1.0  0.8066644049328605  0.6673374331002079  0.49985793061546946  1.0000
  O   O13       1.0  0.007261224939988216  0.439274048634374  0.6693817986476418  1.0000
  O   O14       1.0  0.9927259627319388  0.5607364182083429  0.33063774391037976  1.0000
  O   O15       1.0  0.7257973896326178  0.40319111255796947  0.7738736996122736  1.0000
  O   O16       1.0  0.2741978108044378  0.5967909762198076  0.22612590464465393  1.0000
