data_image0
_chemical_formula_structural       Cd4H40C56N20O16
_chemical_formula_sum              "Cd4 H40 C56 N20 O16"
_cell_length_a       9.430927299000885
_cell_length_b       9.690968705743918
_cell_length_c       16.200925324978307
_cell_angle_alpha    94.71022713982902
_cell_angle_beta     89.99995246566844
_cell_angle_gamma    90.00001811658069

_space_group_name_H-M_alt    "P 1"
_space_group_IT_number       1

loop_
  _space_group_symop_operation_xyz
  'x, y, z'

loop_
  _atom_site_type_symbol
  _atom_site_label
  _atom_site_symmetry_multiplicity
  _atom_site_fract_x
  _atom_site_fract_y
  _atom_site_fract_z
  _atom_site_occupancy
  Cd  Cd1       1.0  0.39013080303187303  0.6431960183238131  0.8525360108832984  1.0000
  Cd  Cd2       1.0  0.8901305163160484  0.3568051108085584  0.6474654180881674  1.0000
  Cd  Cd3       1.0  0.6098699911632578  0.3568050251642135  0.14746473144411001  1.0000
  Cd  Cd4       1.0  0.10986921753783459  0.6431948973009937  0.352535275652599  1.0000
  H   H1        1.0  0.6119584186313248  0.39534850625880574  0.7795441834559613  1.0000
  H   H2        1.0  0.1119588813377774  0.6046504758575395  0.7204560443570147  1.0000
  H   H3        1.0  0.38804025488175137  0.6046504626632442  0.220455844266546  1.0000
  H   H4        1.0  0.8880408525164185  0.3953484930646383  0.279543983365251  1.0000
  H   H5        1.0  0.6375117721815187  0.5373176929911878  0.5409365737621883  1.0000
  H   H6        1.0  0.1375118490134071  0.46268129543061326  0.9590636420281559  1.0000
  H   H7        1.0  0.36248796167281233  0.4626823113093295  0.4590635025469681  1.0000
  H   H8        1.0  0.8624878848409238  0.5373187088699111  0.04093643428099371  1.0000
  H   H9        1.0  0.12506042272327278  0.8489430756176046  0.822396195526487  1.0000
  H   H10       1.0  0.6250589666233423  0.1510569451098718  0.6776040747094001  1.0000
  H   H11       1.0  0.8749414318132904  0.15105692868317525  0.17760388078216496  1.0000
  H   H12       1.0  0.3749397068898618  0.8489430591905174  0.32239600159999793  1.0000
  H   H13       1.0  0.07520625530813871  0.09873657001598699  0.806430646042678  1.0000
  H   H14       1.0  0.5752050173089884  0.9012634346005512  0.6935690302176811  1.0000
  H   H15       1.0  0.9247945388877454  0.9012634304756305  0.19356881283461297  1.0000
  H   H16       1.0  0.4247947165453353  0.098736569699966  0.30643104609147553  1.0000
  H   H17       1.0  0.2772203350527747  0.2704761165819392  0.8303068724906097  1.0000
  H   H18       1.0  0.7772201363051606  0.7295249770707741  0.6696933747414066  1.0000
  H   H19       1.0  0.7227783384610048  0.7295249192877549  0.16969263497406226  1.0000
  H   H20       1.0  0.2227785372081783  0.27047606260796186  0.33030675015488953  1.0000
  H   H21       1.0  0.5114782749889386  0.18629722623893485  0.8707234802895487  1.0000
  H   H22       1.0  0.011476814170208603  0.8137027626521629  0.6292762259545555  1.0000
  H   H23       1.0  0.48852145886582576  0.8137027742525544  0.12927597858799092  1.0000
  H   H24       1.0  0.9885207990018825  0.1862972416480986  0.37072385035509836  1.0000
  H   H25       1.0  0.6761947838983174  0.10820867640214257  0.9393189444276404  1.0000
  H   H26       1.0  0.17619556666190314  0.8917913531344082  0.560680684317653  1.0000
  H   H27       1.0  0.32380494995570064  0.8917923670857489  0.0606817979000169  1.0000
  H   H28       1.0  0.8238052275338532  0.10820761197886951  0.439318725972747  1.0000
  H   H29       1.0  0.908961892611991  0.003876632492641402  0.9634325801460621  1.0000
  H   H30       1.0  0.40896380360379675  0.9961234620993621  0.5365681739464493  1.0000
  H   H31       1.0  0.09103678090064452  0.9961223402384434  0.0365680650080691  1.0000
  H   H32       1.0  0.5910380509321911  0.003875510632113302  0.4634324712069289  1.0000
  H   H33       1.0  0.944787782320489  0.746762246438024  0.928260231706446  1.0000
  H   H34       1.0  0.4447894046307041  0.2532368292340124  0.5717416918065725  1.0000
  H   H35       1.0  0.055211951532825786  0.2532367301022305  0.07174103087904632  1.0000
  H   H36       1.0  0.5552113895637305  0.74676214730637  0.4282595707786713  1.0000
  H   H37       1.0  0.7393594364499306  0.6089264156354942  0.8667547481805755  1.0000
  H   H38       1.0  0.23935995495881454  0.39107259791813215  0.6332454196908517  1.0000
  H   H39       1.0  0.260639237062705  0.3910725570955904  0.13324589697355552  1.0000
  H   H40       1.0  0.7606397788953813  0.6089263710040526  0.3667546080314068  1.0000
  C   C1        1.0  0.5873818793444413  0.4515203870119393  0.7260601366383952  1.0000
  C   C2        1.0  0.08738224773910018  0.5484796244182704  0.7739401513246307  1.0000
  C   C3        1.0  0.4126167941687626  0.5484796172884572  0.27393993967100994  1.0000
  C   C4        1.0  0.9126185464566561  0.4515193406950074  0.22605925896576914  1.0000
  C   C5        1.0  0.6004994586985146  0.5248274885961023  0.6031991459299706  1.0000
  C   C6        1.0  0.10050068867807478  0.47517149069274467  0.8968010872742127  1.0000
  C   C7        1.0  0.39949921481456124  0.4751714803259475  0.3968008817925437  1.0000
  C   C8        1.0  0.899499045176256  0.5248285136077797  0.10319898903494361  1.0000
  C   C9        1.0  0.48889747435064373  0.5900441296771035  0.647741436581079  1.0000
  C   C10       1.0  0.9888990333136715  0.409954945452256  0.8522586138837269  1.0000
  C   C11       1.0  0.5111011991625601  0.4099558746232859  0.3522586397283263  1.0000
  C   C12       1.0  0.011101760881643902  0.5900440234700568  0.1477414138382898  1.0000
  C   C13       1.0  0.47502758853585186  0.5633245932862678  0.029795174782123006  1.0000
  C   C14       1.0  0.9750268671849724  0.4366764622810636  0.470205943959897  1.0000
  C   C15       1.0  0.524976386681189  0.4366754262509218  0.9702073712524992  1.0000
  C   C16       1.0  0.0249707459869413  0.5633256165849118  0.5297948469551487  1.0000
  C   C17       1.0  0.20788367267881816  0.9270878247260086  0.8327030399587303  1.0000
  C   C18       1.0  0.7078811458475299  0.07291324800797838  0.6672966224647683  1.0000
  C   C19       1.0  0.7921181818583205  0.0729132111440833  0.16729646750519586  1.0000
  C   C20       1.0  0.29211752766669014  0.9270877840526808  0.3327022675682941  1.0000
  C   C21       1.0  0.18080773030224856  0.06636788957135308  0.8239261398987241  1.0000
  C   C22       1.0  0.6808065276471424  0.9336321411032383  0.676073486676664  1.0000
  C   C23       1.0  0.8191930638936356  0.9336321109202642  0.17607331897856682  1.0000
  C   C24       1.0  0.31919214586606154  0.06636786319715068  0.323926589632734  1.0000
  C   C25       1.0  0.291982381570456  0.16054023915252463  0.8371565955097895  1.0000
  C   C26       1.0  0.7919811675480872  0.8394598189553407  0.6628429787584909  1.0000
  C   C27       1.0  0.708017352284749  0.8394597575299231  0.16284224593613325  1.0000
  C   C28       1.0  0.20801856630623658  0.1605401853451767  0.3371570975506587  1.0000
  C   C29       1.0  0.4247232814876866  0.1129919337763141  0.8596530456810856  1.0000
  C   C30       1.0  0.9247231751574033  0.8870091848468958  0.6403452798566747  1.0000
  C   C31       1.0  0.575276452367781  0.8870101336628196  0.140345892938619  1.0000
  C   C32       1.0  0.07527549835681668  0.11299184721376321  0.35965361017638753  1.0000
  C   C33       1.0  0.44372684741263413  0.9711702874145233  0.8671804896445041  1.0000
  C   C34       1.0  0.943726476281128  0.0288298005195955  0.6328177783653433  1.0000
  C   C35       1.0  0.5562739467838184  0.028830744646398895  0.13281840038806086  1.0000
  C   C36       1.0  0.0562732575742118  0.9711712315411914  0.3671811116674634  1.0000
  C   C37       1.0  0.5842973059357988  0.9137924491689443  0.8877620398691166  1.0000
  C   C38       1.0  0.08429775652206932  0.08620755007301989  0.6122363972503211  1.0000
  C   C39       1.0  0.41570242791910056  0.08620858670087729  0.11223746759531393  1.0000
  C   C40       1.0  0.9157019773335763  0.9137924428003927  0.3877618267639847  1.0000
  C   C41       1.0  0.6927065702487384  0.9980668286651236  0.9230509570779477  1.0000
  C   C42       1.0  0.19270704410369183  0.0019332049458143004  0.5769486638987047  1.0000
  C   C43       1.0  0.30729316360558556  0.0019331756354006  0.07694911923120883  1.0000
  C   C44       1.0  0.8072926897509445  0.9980657601673285  0.42305074639193674  1.0000
  C   C45       1.0  0.8237742558432116  0.9383113278790629  0.9372428547828592  1.0000
  C   C46       1.0  0.32377688980524516  0.0616887456922584  0.5627579393898331  1.0000
  C   C47       1.0  0.17622441766929597  0.06168660947368208  0.06275774178438101  1.0000
  C   C48       1.0  0.6762239043897581  0.9383112624174289  0.4372427543506845  1.0000
  C   C49       1.0  0.8441805124007827  0.796986319153966  0.9170190252412243  1.0000
  C   C50       1.0  0.3441831628955256  0.20301479864014743  0.582982425348938  1.0000
  C   C51       1.0  0.1558181611125562  0.203014720524763  0.08298109965507192  1.0000
  C   C52       1.0  0.6558176312994775  0.7969852094695398  0.4170182683915869  1.0000
  C   C53       1.0  0.730104785103748  0.7200436412537101  0.8834469323507153  1.0000
  C   C54       1.0  0.23010529174190714  0.2799564053945929  0.6165532884618727  1.0000
  C   C55       1.0  0.2698949487501423  0.27995636685584907  0.11655376139005112  1.0000
  C   C56       1.0  0.7698944421127223  0.7200425597185571  0.38344612182877574  1.0000
  N   N1        1.0  0.48125129165711666  0.5430314346449592  0.7253504047477721  1.0000
  N   N2        1.0  0.9812519160558538  0.45696867778489997  0.774650315333247  1.0000
  N   N3        1.0  0.5187473818556468  0.4569685734644651  0.274650288993243  1.0000
  N   N4        1.0  0.018747817798342198  0.5430302911372775  0.22534971238901852  1.0000
  N   N5        1.0  0.6622960889729156  0.4373762597956272  0.6537802342433638  1.0000
  N   N6        1.0  0.16229741916710336  0.5626216993637314  0.8462199212989037  1.0000
  N   N7        1.0  0.3377025845397199  0.5626227129354646  0.34622041091076744  1.0000
  N   N8        1.0  0.8377033750285179  0.43737623037120704  0.15377944040460537  1.0000
  N   N9        1.0  0.39861900595740707  0.6954045120439574  0.6227001462595682  1.0000
  N   N10       1.0  0.8986183746971078  0.30459454080816073  0.8772999466813121  1.0000
  N   N11       1.0  0.6013817882383421  0.30459445306931343  0.3772992640308318  1.0000
  N   N12       1.0  0.10138241949789521  0.6954054673015263  0.1227007470592056  1.0000
  N   N13       1.0  0.3358148668493826  0.8807034320303515  0.8532647038680568  1.0000
  N   N14       1.0  0.8358155652582581  0.119296636893786  0.6467348497768128  1.0000
  N   N15       1.0  0.6641859273470772  0.11929760003057045  0.14673418616450826  1.0000
  N   N16       1.0  0.16418416859694668  0.8807033597886612  0.3532639916691026  1.0000
  N   N17       1.0  0.6039369353459988  0.7768159821650685  0.8692446667167533  1.0000
  N   N18       1.0  0.1039374035019023  0.22318402954121555  0.6307549960255658  1.0000
  N   N19       1.0  0.3960627985084528  0.22318505751379542  0.1307554581792871  1.0000
  N   N20       1.0  0.8960633906938467  0.7768149355720623  0.3692444142648342  1.0000
  O   O1        1.0  0.3082195961172615  0.7462283726872913  0.6731123755432622  1.0000
  O   O2        1.0  0.8082200807760741  0.25377272861483385  0.8268878571035999  1.0000
  O   O3        1.0  0.6917790773963831  0.25377162780406337  0.32688708333452615  1.0000
  O   O4        1.0  0.19177965307838457  0.7462283110640301  0.17311226779244046  1.0000
  O   O5        1.0  0.41575099435334545  0.7347580365900868  0.5517011583716639  1.0000
  O   O6        1.0  0.9157513095430545  0.2652410204896114  0.9482989265084785  1.0000
  O   O7        1.0  0.5842487395014188  0.2652419639014028  0.4482983005058757  1.0000
  O   O8        1.0  0.0842494846523891  0.7347589838110408  0.05170114980042231  1.0000
  O   O9        1.0  0.40515785509109037  0.6583155103672096  0.9993616147778895  1.0000
  O   O10       1.0  0.9051577729166239  0.34168252014725903  0.5006402787943287  1.0000
  O   O11       1.0  0.594840818421808  0.3416855331205538  0.0006391275500163951  1.0000
  O   O12       1.0  0.09484090059557099  0.6583164563928674  0.4993609837914193  1.0000
  O   O13       1.0  0.508279831788002  0.5624727842239919  0.1056421139046648  1.0000
  O   O14       1.0  0.008277872140652698  0.43752919535663176  0.3943598904586097  1.0000
  O   O15       1.0  0.4917230830903846  0.43752928702456734  0.8943574421458963  1.0000
  O   O16       1.0  0.9917176203482754  0.5624739265054899  0.6056421839070654  1.0000
