data_image0
_chemical_formula_structural       Y2P2H22C18S2N2O18
_chemical_formula_sum              "Y2 P2 H22 C18 S2 N2 O18"
_cell_length_a       6.751441246080406
_cell_length_b       7.516311823794552
_cell_length_c       13.335513495779075
_cell_angle_alpha    90.65574150923204
_cell_angle_beta     93.20596685628567
_cell_angle_gamma    101.86540827705036

_space_group_name_H-M_alt    "P 1"
_space_group_IT_number       1

loop_
  _space_group_symop_operation_xyz
  'x, y, z'

loop_
  _atom_site_type_symbol
  _atom_site_label
  _atom_site_symmetry_multiplicity
  _atom_site_fract_x
  _atom_site_fract_y
  _atom_site_fract_z
  _atom_site_occupancy
  Y   Y1        1.0  0.2847884693544742  0.768360460637034  0.455135225786357  1.0000
  Y   Y2        1.0  0.7152115448117016  0.2316377150580068  0.54486443781326  1.0000
  P   P1        1.0  0.2514018006979413  0.385748871826202  0.6207751996743626  1.0000
  P   P2        1.0  0.7485940863472038  0.6142506806697628  0.379224352585716  1.0000
  H   H1        1.0  0.16559773653492726  0.10574390181276531  0.7742007301568209  1.0000
  H   H2        1.0  0.8343963496502764  0.8942542939544609  0.22579801322209656  1.0000
  H   H3        1.0  0.16579229869282128  0.12458514142097951  0.9614149139685397  1.0000
  H   H4        1.0  0.8342091976453219  0.8754130286232074  0.03858479221822361  1.0000
  H   H5        1.0  0.2124527537601466  0.31857811033481914  0.12011681764671073  1.0000
  H   H6        1.0  0.7875531905076801  0.6814200376943235  0.8798815165572622  1.0000
  H   H7        1.0  0.27276704828003057  0.6267002906150552  0.1993443930369025  1.0000
  H   H8        1.0  0.7272359288162918  0.37329787884075233  0.8006568554812433  1.0000
  H   H9        1.0  0.3322425911309921  0.8991082782878693  0.09622639663040643  1.0000
  H   H10       1.0  0.6677550953602989  0.10089263599931543  0.9037754642550697  1.0000
  H   H11       1.0  0.3361582213683363  0.8712416755451645  0.9078678980831827  1.0000
  H   H12       1.0  0.6638394672436336  0.128759231148301  0.09213171318594252  1.0000
  H   H13       1.0  0.3119186176314627  0.6779443643420536  0.766501077229357  1.0000
  H   H14       1.0  0.6880802330507194  0.3220551793834475  0.23349931007712854  1.0000
  H   H15       1.0  0.23027532749879506  0.3905162458865306  0.3438972159750336  1.0000
  H   H16       1.0  0.7697241619731016  0.6094860175356801  0.6561032041752528  1.0000
  H   H17       1.0  0.023543710572951695  0.41815222546855324  0.3855569576370429  1.0000
  H   H18       1.0  0.9764551408161213  0.5818473157257033  0.6144426797973283  1.0000
  H   H19       1.0  0.23000784149130737  0.9198621663163777  0.6451334865919094  1.0000
  H   H20       1.0  0.7699913299995131  0.08013873219499602  0.35486541739224725  1.0000
  H   H21       1.0  0.1084906040327809  0.03794347665997581  0.5767643677221985  1.0000
  H   H22       1.0  0.891508246649401  0.9620560670655179  0.4232360195842873  1.0000
  C   C1        1.0  0.23939498210916815  0.3960289274100219  0.7582531980551298  1.0000
  C   C2        1.0  0.760602387107937  0.6039706194350885  0.24174639679209525  1.0000
  C   C3        1.0  0.1962927446435359  0.23607539496633487  0.8140831127950536  1.0000
  C   C4        1.0  0.8037046252804603  0.7639241493475382  0.18591573218004953  1.0000
  C   C5        1.0  0.1961045196050577  0.24754357587338663  0.9172111080835353  1.0000
  C   C6        1.0  0.8038976162296977  0.7524573113362792  0.08278788107491412  1.0000
  C   C7        1.0  0.2343905501806702  0.4184192891345404  0.9679576344183334  1.0000
  C   C8        1.0  0.7656130671191548  0.5815815949555088  0.03204214719937681  1.0000
  C   C9        1.0  0.23648892141303432  0.43882754393731477  0.07372720672256612  1.0000
  C   C10       1.0  0.7635158579570098  0.5611719771847631  0.9262733509325118  1.0000
  C   C11       1.0  0.2720258607076574  0.609801477313113  0.11812397281225633  1.0000
  C   C12       1.0  0.7279785985606394  0.3901966864918479  0.8818773182930288  1.0000
  C   C13       1.0  0.3060454125588167  0.7662768541845256  0.05841946809159991  1.0000
  C   C14       1.0  0.6939564017604027  0.23372268077049801  0.9415817542613  1.0000
  C   C15       1.0  0.307351058283075  0.7524264066744023  0.9550735587190149  1.0000
  C   C16       1.0  0.6926492745710673  0.24757313140024456  0.04492687117461709  1.0000
  C   C17       1.0  0.2721613992732017  0.577696200930447  0.9091212834350417  1.0000
  C   C18       1.0  0.727843380096843  0.4223033201916309  0.09087927422002913  1.0000
  S   S1        1.0  0.3963895772680602  0.07987343072246494  0.3092321308958504  1.0000
  S   S2        1.0  0.6036113936689134  0.9201288295801365  0.690769081713704  1.0000
  N   N1        1.0  0.27376962484975564  0.5572910212259075  0.8067139300516504  1.0000
  N   N2        1.0  0.7262307087112844  0.4427085143174949  0.19328574996986703  1.0000
  O   O1        1.0  0.24846620981644207  0.5796654297971457  0.5881396508199614  1.0000
  O   O2        1.0  0.7515329595537067  0.4203354763079475  0.4118615027805391  1.0000
  O   O3        1.0  0.44406887529589767  0.3195453852836465  0.6036747057527024  1.0000
  O   O4        1.0  0.5559288140229555  0.6804555188785814  0.3963241556443081  1.0000
  O   O5        1.0  0.059031743033365586  0.24939560113285353  0.5846137287771427  1.0000
  O   O6        1.0  0.9409644641135273  0.7506053086802286  0.4153850900327144  1.0000
  O   O7        1.0  0.26863287466459707  0.8959606433592671  0.287401753828334  1.0000
  O   O8        1.0  0.7313649287496986  0.10404706822684771  0.7125978969631392  1.0000
  O   O9        1.0  0.432895977134379  0.08618971320428412  0.42291125514632455  1.0000
  O   O10       1.0  0.5671025548598365  0.9138084681416105  0.5770883658661462  1.0000
  O   O11       1.0  0.2971888719168874  0.2260559184565025  0.2744856711879535  1.0000
  O   O12       1.0  0.7028153820519804  0.7739476929239828  0.7255163928899081  1.0000
  O   O13       1.0  0.5957735235642829  0.09774122674166821  0.2618997502695493  1.0000
  O   O14       1.0  0.4042256458058659  0.902259679363425  0.7381014033309583  1.0000
  O   O15       1.0  0.1597017333706674  0.4837098879582698  0.3699640984353324  1.0000
  O   O16       1.0  0.8402959545344045  0.5162910212664401  0.6300362627059144  1.0000
  O   O17       1.0  0.1409047838808917  0.9147359423358026  0.5828365870322828  1.0000
  O   O18       1.0  0.8590940675081808  0.0852635988584538  0.41716305040208823  1.0000
