data_image0
_chemical_formula_structural       Cu2P2H34C40Br2N2O6
_chemical_formula_sum              "Cu2 P2 H34 C40 Br2 N2 O6"
_cell_length_a       8.349342730134312
_cell_length_b       9.902422634126026
_cell_length_c       13.69689365067317
_cell_angle_alpha    95.84313355214421
_cell_angle_beta     103.78221910196127
_cell_angle_gamma    111.41365498851238

_space_group_name_H-M_alt    "P 1"
_space_group_IT_number       1

loop_
  _space_group_symop_operation_xyz
  'x, y, z'

loop_
  _atom_site_type_symbol
  _atom_site_label
  _atom_site_symmetry_multiplicity
  _atom_site_fract_x
  _atom_site_fract_y
  _atom_site_fract_z
  _atom_site_occupancy
  Cu  Cu1       1.0  0.15720091422674198  0.5344331578823189  0.5784780900958069  1.0000
  Cu  Cu2       1.0  0.8427832902611669  0.46554549471143514  0.4215154752572375  1.0000
  P   P1        1.0  0.22687625318325633  0.618715660446412  0.7403397877838529  1.0000
  P   P2        1.0  0.7731038734987976  0.381275130987234  0.25964900983311173  1.0000
  H   H1        1.0  0.37197567055765995  0.6725167382726764  0.4406981127465174  1.0000
  H   H2        1.0  0.628036199464276  0.3274830843295788  0.5593074301497865  1.0000
  H   H3        1.0  0.637006817476731  0.6536796338043799  0.3900478230266203  1.0000
  H   H4        1.0  0.36300041316524556  0.34631573954910516  0.6099560159425864  1.0000
  H   H5        1.0  0.9213050035833489  0.5485153725171229  0.885472572980085  1.0000
  H   H6        1.0  0.07870083909129022  0.45148769715637377  0.11452215726097853  1.0000
  H   H7        1.0  0.9199728661169219  0.6472130014487547  0.061159009898112536  1.0000
  H   H8        1.0  0.0800290671972519  0.3527845219217056  0.9388354956564628  1.0000
  H   H9        1.0  0.11836731768529059  0.9102075032270632  0.1479583347695055  1.0000
  H   H10       1.0  0.8816304375751612  0.0897889134315122  0.8520384311209599  1.0000
  H   H11       1.0  0.3231139853707816  0.07068744000054042  0.061144922377636086  1.0000
  H   H12       1.0  0.676884039309421  0.929314525414782  0.9388544857983521  1.0000
  H   H13       1.0  0.32450481185841795  0.9701185636262578  0.8876378733516576  1.0000
  H   H14       1.0  0.6754952062586526  0.0298900524288896  0.11236230732160385  1.0000
  H   H15       1.0  0.5538056922828787  0.5679371724659248  0.9231078030380291  1.0000
  H   H16       1.0  0.4461943195452491  0.43206595689282773  0.0769014587263044  1.0000
  H   H17       1.0  0.6986803720493099  0.3855736550084076  0.9217130564166  1.0000
  H   H18       1.0  0.30131597795080717  0.6144272201601523  0.0782904196807479  1.0000
  H   H19       1.0  0.5304081668863815  0.13584089479507364  0.8108650663695942  1.0000
  H   H20       1.0  0.46958855676998457  0.8641610507513702  0.1891312398805454  1.0000
  H   H21       1.0  0.20840874083800284  0.05863274079426618  0.7063155761286596  1.0000
  H   H22       1.0  0.791581729825907  0.9413714163544851  0.29368368171278564  1.0000
  H   H23       1.0  0.06266699933230767  0.23817959282904155  0.7124508802811746  1.0000
  H   H24       1.0  0.9373294281810728  0.761829037316133  0.28755391612424575  1.0000
  H   H25       1.0  0.39654747485736414  0.9266948651277718  0.6759285570356611  1.0000
  H   H26       1.0  0.6034563962677025  0.07330381054980961  0.3240736039741563  1.0000
  H   H27       1.0  0.6089592704765324  0.050817474030040416  0.5793038727986187  1.0000
  H   H28       1.0  0.3910449961920789  0.9491845286693276  0.4206993216300248  1.0000
  H   H29       1.0  0.8686887320492429  0.9860262068527136  0.5790139213590919  1.0000
  H   H30       1.0  0.13131510618448058  0.013972461067325501  0.4209867742286449  1.0000
  H   H31       1.0  0.9227285070400126  0.8011505824667536  0.6790106771081952  1.0000
  H   H32       1.0  0.07728003635636328  0.19885255021713988  0.3209946532507857  1.0000
  H   H33       1.0  0.7182135799806842  0.6864993244609322  0.7815781079087929  1.0000
  H   H34       1.0  0.2817924764877304  0.31350379563661324  0.2184261475757552  1.0000
  C   C1        1.0  0.5698217417468568  0.4045035213572917  0.5331536900181817  1.0000
  C   C2        1.0  0.4301906334967285  0.5954974026530239  0.4668505447192076  1.0000
  C   C3        1.0  0.42470091835013324  0.4151347562185705  0.5607047448820028  1.0000
  C   C4        1.0  0.5753048851442201  0.5848628190009889  0.43929760102805204  1.0000
  C   C5        1.0  0.12169966866300545  0.7547865910882409  0.8782828626930269  1.0000
  C   C6        1.0  0.8782988447931714  0.24521647185636652  0.12171450461301699  1.0000
  C   C7        1.0  0.007977244490540221  0.6623602565180846  0.9256218523187699  1.0000
  C   C8        1.0  0.9920232177805985  0.3376417098472758  0.0743764325985481  1.0000
  C   C9        1.0  0.008062563293279352  0.7187315393522197  0.0233503557049914  1.0000
  C   C10       1.0  0.9919430154032227  0.2812682343296728  0.9766492028055467  1.0000
  C   C11       1.0  0.12033164096985152  0.865812981558335  0.07234263654017781  1.0000
  C   C12       1.0  0.8796705617640654  0.13419009056887177  0.9276545112999204  1.0000
  C   C13       1.0  0.23458166188454743  0.9560516694444557  0.023771900389022025  1.0000
  C   C14       1.0  0.7654168515716292  0.0439513935001514  0.9762254669170147  1.0000
  C   C15       1.0  0.2365838924958084  0.9006971993277019  0.926336395047237  1.0000
  C   C16       1.0  0.7634178050164593  0.0993047713914521  0.07366206095177569  1.0000
  C   C17       1.0  0.30151531019455996  0.41107936940732503  0.8181545226955933  1.0000
  C   C18       1.0  0.6984854708333471  0.5889281573511056  0.1818486026403647  1.0000
  C   C19       1.0  0.48079125411687335  0.4560906334122379  0.8763546900406781  1.0000
  C   C20       1.0  0.5192097846002284  0.5439147026414093  0.12365268811687002  1.0000
  C   C21       1.0  0.5608988873746769  0.3546900820190046  0.8741042686188012  1.0000
  C   C22       1.0  0.4390967326059538  0.6453118902038284  0.12589772823793777  1.0000
  C   C23       1.0  0.4645459413715827  0.212527625311111  0.812399199558975  1.0000
  C   C24       1.0  0.5354473178048805  0.7874721125904002  0.18760011355661996  1.0000
  C   C25       1.0  0.2853538273392573  0.16975244597372807  0.7542068443241376  1.0000
  C   C26       1.0  0.714640804932685  0.8302528140081477  0.24578942047038776  1.0000
  C   C27       1.0  0.20199038448011208  0.26874370987507484  0.7574101320590928  1.0000
  C   C28       1.0  0.7980086396393345  0.7312627072427277  0.24259339764303436  1.0000
  C   C29       1.0  0.5482258034376315  0.8018573619826554  0.7346622136541614  1.0000
  C   C30       1.0  0.4517720943922896  0.198136836819728  0.2653336760806368  1.0000
  C   C31       1.0  0.5145011357205503  0.9028298179043331  0.6778522757845877  1.0000
  C   C32       1.0  0.48549967747221245  0.0971677282637486  0.32214718766555717  1.0000
  C   C33       1.0  0.6320392885745391  0.9700261758827081  0.6228252189342881  1.0000
  C   C34       1.0  0.3679590705816196  0.0299713654565608  0.37717463506348287  1.0000
  C   C35       1.0  0.7790036715892512  0.9340609512165869  0.623137701696166  1.0000
  C   C36       1.0  0.2210013086531646  0.06593995054974759  0.376866239262057  1.0000
  C   C37       1.0  0.8100585635472725  0.8315486340327708  0.6796358347987452  1.0000
  C   C38       1.0  0.18994587858215078  0.1684511585679545  0.3203679488963118  1.0000
  C   C39       1.0  0.695275370262685  0.7656904232629032  0.7363586809436387  1.0000
  C   C40       1.0  0.30472370246729236  0.2343060171433251  0.2636419195837121  1.0000
  Br  Br1       1.0  0.9177200642901086  0.279939818029881  0.5133759557979971  1.0000
  Br  Br2       1.0  0.08227493389615154  0.7200410489376949  0.48661196562461845  1.0000
  N   N1        1.0  0.6458252254629926  0.48910549346623355  0.4721244691632195  1.0000
  N   N2        1.0  0.3541782172271938  0.5108898474320185  0.5278751930056984  1.0000
  O   O1        1.0  0.10992525824514132  0.7016640412333573  0.7764699715951198  1.0000
  O   O2        1.0  0.890076104791177  0.2983423535618499  0.22352803858210987  1.0000
  O   O3        1.0  0.21649488945001846  0.5093090709182276  0.8232915003749142  1.0000
  O   O4        1.0  0.7835014934414558  0.4906918120078743  0.17671344114450702  1.0000
  O   O5        1.0  0.43807777082422916  0.7376261384519863  0.7946050564533425  1.0000
  O   O6        1.0  0.5619202695751538  0.26236584249421213  0.2053899571257958  1.0000
