data_image0
_chemical_formula_structural       Al6H14C64O36
_chemical_formula_sum              "Al6 H14 C64 O36"
_cell_length_a       12.835850212141562
_cell_length_b       12.817231092415824
_cell_length_c       26.859178913229112
_cell_angle_alpha    97.66990520513271
_cell_angle_beta     89.51722970221405
_cell_angle_gamma    119.31367162118161

_space_group_name_H-M_alt    "P 1"
_space_group_IT_number       1

loop_
  _space_group_symop_operation_xyz
  'x, y, z'

loop_
  _atom_site_type_symbol
  _atom_site_label
  _atom_site_symmetry_multiplicity
  _atom_site_fract_x
  _atom_site_fract_y
  _atom_site_fract_z
  _atom_site_occupancy
  Al  Al1       1.0  0.4101571790790786  0.8156153768144419  0.4881281381120245  1.0000
  Al  Al2       1.0  0.6534045439969915  0.0719103985333049  0.5042499173135369  1.0000
  Al  Al3       1.0  0.41990572453405417  0.0729572947048212  0.5027258226451535  1.0000
  Al  Al4       1.0  0.9221832057083148  0.8453899661685681  0.021028120935810093  1.0000
  Al  Al5       1.0  0.9161599652887275  0.589437296717044  0.003943861212803816  1.0000
  Al  Al6       1.0  0.6804534115311115  0.5865555598065056  0.004818161195025507  1.0000
  H   H1        1.0  0.7356414060876021  0.20550598642086726  0.28925039732680347  1.0000
  H   H2        1.0  0.418476211000204  0.2086882555560052  0.8414834930002895  1.0000
  H   H3        1.0  0.31654181568016077  0.03538897991015939  0.7300431369007468  1.0000
  H   H4        1.0  0.8861954686108433  0.9442087337447589  0.7018260317912917  1.0000
  H   H5        1.0  0.5162294592401223  0.6634552537444236  0.6893563436101215  1.0000
  H   H6        1.0  0.7581922473574494  0.23646607406035258  0.19962194459669994  1.0000
  H   H7        1.0  0.0956873230293596  0.06314757515367118  0.7944811735994505  1.0000
  H   H8        1.0  0.5353796139599893  0.6357242477949895  0.7782772224797867  1.0000
  H   H9        1.0  0.6237563623592308  0.4874465074030567  0.22647082910228986  1.0000
  H   H10       1.0  0.5304140242204767  0.5834370145115385  0.3301330673644998  1.0000
  H   H11       1.0  0.02470377309055749  0.671055514728252  0.6899497458873682  1.0000
  H   H12       1.0  0.9304403718898229  0.4933917274340729  0.8226355237331262  1.0000
  H   H13       1.0  0.3279932438000586  0.6179757623138755  0.5063166574755086  1.0000
  H   H14       1.0  0.0113828665759783  0.042612702310457  0.0026370667087576  1.0000
  C   C1        1.0  0.6206880673827513  0.900594878880696  0.4223756523033159  1.0000
  C   C2        1.0  0.12764975484441263  0.8032089206270712  0.18170605375571108  1.0000
  C   C3        1.0  0.15535170702489148  0.8221359260794472  0.2312393218838338  1.0000
  C   C4        1.0  0.6108869754234547  0.21865338741097415  0.44573116039024535  1.0000
  C   C5        1.0  0.17802564424663814  0.8387031690956519  0.2770826078969009  1.0000
  C   C6        1.0  0.20576360161683024  0.8568420337255843  0.32657762408783236  1.0000
  C   C7        1.0  0.2339003030163482  0.8739403918546316  0.37166277999231306  1.0000
  C   C8        1.0  0.6781725566105834  0.778584417026792  0.1351214303876418  1.0000
  C   C9        1.0  0.6711227089572773  0.7969882625603616  0.18069972709361784  1.0000
  C   C10       1.0  0.6659738627171449  0.8173484030616791  0.23059174213315708  1.0000
  C   C11       1.0  0.6639704549528602  0.8365133022558168  0.2767251742337038  1.0000
  C   C12       1.0  0.6485338911894445  0.42590375822317833  0.24019429744663506  1.0000
  C   C13       1.0  0.6579849200370019  0.8570077977459291  0.32656048990480707  1.0000
  C   C14       1.0  0.64998156653823  0.8761980879367074  0.3720287343285236  1.0000
  C   C15       1.0  0.6957094976876944  0.3871874857267911  0.8751300175264588  1.0000
  C   C16       1.0  0.28638140124031963  0.8983644340824383  0.4217323220536213  1.0000
  C   C17       1.0  0.6758686570403469  0.3571713858829923  0.8292619275138549  1.0000
  C   C18       1.0  0.6564880400317035  0.32658849412749186  0.7790705281128607  1.0000
  C   C19       1.0  0.6433547168818875  0.30346956330468083  0.732709457407587  1.0000
  C   C20       1.0  0.6317347287610815  0.2791845795682946  0.6822939844116718  1.0000
  C   C21       1.0  0.6216395633710761  0.2556839436686573  0.6361560003591578  1.0000
  C   C22       1.0  0.22131702336959344  0.8804232992107615  0.6089623513874114  1.0000
  C   C23       1.0  0.6393410988065258  0.4119458465344293  0.2909219713145887  1.0000
  C   C24       1.0  0.0868614061358245  0.7451420984512468  0.7181077807790144  1.0000
  C   C25       1.0  0.0775613198323128  0.7297182577324077  0.7686386380716782  1.0000
  C   C26       1.0  0.24188886017745395  0.935656212285103  0.7915769029420899  1.0000
  C   C27       1.0  0.25005775224304466  0.9496453677047113  0.7409128437621532  1.0000
  C   C28       1.0  0.62430832973655  0.894561718495396  0.5608134489087035  1.0000
  C   C29       1.0  0.17517153935271781  0.8536176170370168  0.7033795187791013  1.0000
  C   C30       1.0  0.15657899245340454  0.8240673235245524  0.8066395338533423  1.0000
  C   C31       1.0  0.1414109419267504  0.810485248589309  0.8578662072785261  1.0000
  C   C32       1.0  0.19461255464561586  0.8668013747499967  0.6521589679949783  1.0000
  C   C33       1.0  0.11507629557621613  0.7928718413328609  0.9007528374844822  1.0000
  C   C34       1.0  0.6695792834492096  0.330414097779446  0.3091394984825086  1.0000
  C   C35       1.0  0.6630301454314703  0.8620415794332601  0.6032285285720106  1.0000
  C   C36       1.0  0.8095639676428164  0.8765343806053919  0.7185751105941802  1.0000
  C   C37       1.0  0.8216905080186904  0.8601772524716151  0.7680606240339996  1.0000
  C   C38       1.0  0.6118098891333331  0.702612614260687  0.7610447930982003  1.0000
  C   C39       1.0  0.6010037708489975  0.718247485661017  0.7116808548456459  1.0000
  C   C40       1.0  0.601087911357162  0.20830002306021805  0.5833531761505454  1.0000
  C   C41       1.0  0.6990645431855711  0.8086814897697038  0.6903171304603359  1.0000
  C   C42       1.0  0.7203262798016465  0.7752658587740839  0.7907174831462669  1.0000
  C   C43       1.0  0.7206938601100745  0.7656003179101986  0.8424912750042565  1.0000
  C   C44       1.0  0.6830832185075619  0.835607178454353  0.6425746662166887  1.0000
  C   C45       1.0  0.691418674157646  0.3633033790780828  0.20669687389160873  1.0000
  C   C46       1.0  0.7106922929094706  0.7570355071587824  0.8871474802545048  1.0000
  C   C47       1.0  0.04709464922760271  0.7614036857907178  0.08648094301135249  1.0000
  C   C48       1.0  0.7323915637022296  0.4491635317874624  0.06536444961331257  1.0000
  C   C49       1.0  0.7091257171322027  0.7581502510543884  0.08467375992285749  1.0000
  C   C50       1.0  0.057989132669988015  0.7656560757353787  0.9469764236869052  1.0000
  C   C51       1.0  0.7267214408835727  0.4419730826541012  0.9271288744833865  1.0000
  C   C52       1.0  0.2783600781508112  0.9019891515856456  0.5621883186743516  1.0000
  C   C53       1.0  0.7232135338736967  0.7484313752784642  0.9392365000125263  1.0000
  C   C54       1.0  0.6394720547304829  0.2714035826914198  0.40049311371407725  1.0000
  C   C55       1.0  0.712037018086555  0.2677121048996796  0.2752811296334272  1.0000
  C   C56       1.0  0.7030893305516628  0.38258182144650016  0.15571499656741847  1.0000
  C   C57       1.0  0.7239370471256947  0.2844115388082216  0.2251151509187537  1.0000
  C   C58       1.0  0.9400276583465654  0.9313847661186472  0.7969683482297895  1.0000
  C   C59       1.0  0.6017087586776102  0.48433990830852747  0.3269601286251031  1.0000
  C   C60       1.0  0.976091734710934  0.6124117197611766  0.7795730293797121  1.0000
  C   C61       1.0  0.3244838181197948  0.03781521413552719  0.8303382460356515  1.0000
  C   C62       1.0  0.65417778350497  0.3050088286428689  0.3592913288452875  1.0000
  C   C63       1.0  0.7130654805117942  0.4029396246009114  0.11231350785447348  1.0000
  C   C64       1.0  0.09953592246715452  0.784787682011462  0.13655118215446999  1.0000
  O   O1        1.0  0.31068971124525996  0.8214526034970786  0.4349562092590844  1.0000
  O   O2        1.0  0.6555821134320255  0.4762351788240763  0.05011724086047308  1.0000
  O   O3        1.0  0.6315796252144423  0.6620576105549674  0.0557910625968461  1.0000
  O   O4        1.0  0.5207684572206331  0.8231327532372885  0.43532905834304353  1.0000
  O   O5        1.0  0.8149676628881508  0.8322317693381649  0.9648308601175726  1.0000
  O   O6        1.0  0.02974799100157806  0.8404682292614891  0.9691314630168504  1.0000
  O   O7        1.0  0.0347735397671585  0.6637468282375067  0.9606275282690004  1.0000
  O   O8        1.0  0.8323046162862653  0.47460469035297587  0.944351325345586  1.0000
  O   O9        1.0  0.648097721891439  0.45846663574068447  0.9507700722408501  1.0000
  O   O10       1.0  0.6415192396533982  0.6520148633797404  0.9552348891675206  1.0000
  O   O11       1.0  0.8382656745857631  0.6711438958791405  0.009408853921648605  1.0000
  O   O12       1.0  0.6793264964076255  0.1845394650239029  0.563573842883386  1.0000
  O   O13       1.0  0.6970125648664762  0.0015069830653900004  0.4486956550375253  1.0000
  O   O14       1.0  0.6866095320930511  0.19527783954575276  0.46528248779883075  1.0000
  O   O15       1.0  0.5085722349725686  0.19310744462141113  0.4626188674465225  1.0000
  O   O16       1.0  0.30809569125663927  0.9995839961360315  0.4479761724690831  1.0000
  O   O17       1.0  0.30708646520211863  0.8257284224168941  0.5421843610817945  1.0000
  O   O18       1.0  0.5188154300053681  0.8231360413930061  0.5421802780664251  1.0000
  O   O19       1.0  0.6991954995124912  0.9959309140711595  0.5463234446284132  1.0000
  O   O20       1.0  0.9655129638534916  0.9106225002921206  0.8367925031994756  1.0000
  O   O21       1.0  0.020636110018784803  0.024060558879497797  0.7734004428178876  1.0000
  O   O22       1.0  0.6159895497415275  0.4963198467102997  0.3726570488832336  1.0000
  O   O23       1.0  0.5039452324148925  0.18856576767684166  0.5614517637728296  1.0000
  O   O24       1.0  0.5506254277504822  0.5374469026774022  0.3034278489483526  1.0000
  O   O25       1.0  0.8786033980377328  0.5624095576282713  0.7560769498611535  1.0000
  O   O26       1.0  0.0035180255670894936  0.5666960280003862  0.8167164989707416  1.0000
  O   O27       1.0  0.3565525835957217  0.027831534853639497  0.8711114562807224  1.0000
  O   O28       1.0  0.36184575878512254  0.1475102051170083  0.81465796486259  1.0000
  O   O29       1.0  0.30039135492664565  0.0010562108230374  0.5462795936993246  1.0000
  O   O30       1.0  0.49553694937780784  0.9888021589165559  0.49872854547415096  1.0000
  O   O31       1.0  0.8120234158302819  0.8339935528578548  0.07388250625612608  1.0000
  O   O32       1.0  0.021547641102550693  0.8382469949052975  0.07427109649116662  1.0000
  O   O33       1.0  0.026755187423930224  0.6615063847753221  0.059343389280094506  1.0000
  O   O34       1.0  0.8270552964781288  0.4658455732778535  0.0431455893850483  1.0000
  O   O35       1.0  0.33248190011990886  0.6577084020577928  0.4775830805012759  1.0000
  O   O36       1.0  0.9934851825564622  0.0030475770374493996  0.0322840724288298  1.0000
