data_image0
_chemical_formula_structural       Na4H44C32S12N8O12
_chemical_formula_sum              "Na4 H44 C32 S12 N8 O12"
_cell_length_a       6.249076123
_cell_length_b       12.899007867557732
_cell_length_c       16.54407054921467
_cell_angle_alpha    111.4529736450132
_cell_angle_beta     90.0000760696585
_cell_angle_gamma    89.99945427568946

_space_group_name_H-M_alt    "P 1"
_space_group_IT_number       1

loop_
  _space_group_symop_operation_xyz
  'x, y, z'

loop_
  _atom_site_type_symbol
  _atom_site_label
  _atom_site_symmetry_multiplicity
  _atom_site_fract_x
  _atom_site_fract_y
  _atom_site_fract_z
  _atom_site_occupancy
  Na  Na1       1.0  0.8166169034848142  0.0059016896950368  0.08733352354379058  1.0000
  Na  Na2       1.0  0.6833859377366025  0.5059020786588277  0.587340189745241  1.0000
  Na  Na3       1.0  0.18338997471847315  0.994102256551578  0.9126619595646442  1.0000
  Na  Na4       1.0  0.31661453964284203  0.49409781886519266  0.4126674555247689  1.0000
  H   H1        1.0  0.47136846507299884  0.1360465303761558  0.18824327325594933  1.0000
  H   H2        1.0  0.02863734893043811  0.6360452165365089  0.6882452305063393  1.0000
  H   H3        1.0  0.5286480145948715  0.8639557868899032  0.8117559840292471  1.0000
  H   H4        1.0  0.971361528303767  0.363949678038459  0.3117604066645256  1.0000
  H   H5        1.0  0.4217097056017637  0.129826566756428  0.09116665077752367  1.0000
  H   H6        1.0  0.07829727076290281  0.6298260858627742  0.5911688417214903  1.0000
  H   H7        1.0  0.5782939722244437  0.8701732622177616  0.9088331173023574  1.0000
  H   H8        1.0  0.9217048068179354  0.3701754670071082  0.4088380590602653  1.0000
  H   H9        1.0  0.8250474509113703  0.7848094213820502  0.9445359865782021  1.0000
  H   H10       1.0  0.6749389334211175  0.2848057850032788  0.444538080605696  1.0000
  H   H11       1.0  0.1749498259395637  0.21519207875719806  0.05546485482652487  1.0000
  H   H12       1.0  0.3250551430080862  0.7151941019746105  0.5554683527889137  1.0000
  H   H13       1.0  0.6041688824823057  0.767575082933888  0.9852623212489034  1.0000
  H   H14       1.0  0.8958216662186588  0.26757475724685525  0.4852629262998746  1.0000
  H   H15       1.0  0.39583319515264054  0.23242311705975283  0.014741221007746216  1.0000
  H   H16       1.0  0.10417241018891593  0.7324259468578448  0.5147419229751975  1.0000
  H   H17       1.0  0.6403117554738318  0.39660957801754654  0.2562924593699307  1.0000
  H   H18       1.0  0.8597009138667033  0.8966214700334092  0.7562842191503519  1.0000
  H   H19       1.0  0.3596887218379763  0.6033945106017811  0.7437193840564615  1.0000
  H   H20       1.0  0.14031396553827594  0.1033807786828191  0.24370716094472303  1.0000
  H   H21       1.0  0.9853810674835375  0.623705657301997  0.360970680229073  1.0000
  H   H22       1.0  0.5146430686132036  0.1237129671405626  0.8609692541623983  1.0000
  H   H23       1.0  0.0146306112244403  0.3763108569574812  0.6390367914107884  1.0000
  H   H24       1.0  0.4853750111438302  0.8762950805592736  0.13902012616147627  1.0000
  H   H25       1.0  0.9721114910008029  0.5890737194528982  0.04918347991672794  1.0000
  H   H26       1.0  0.5278734091396659  0.0890909455474969  0.5491757691074  1.0000
  H   H27       1.0  0.0278777852246179  0.4108995343452975  0.9508178990343408  1.0000
  H   H28       1.0  0.47211106558157934  0.9109204181171435  0.4508127281776594  1.0000
  H   H29       1.0  0.6825310634594999  0.6896691597343007  0.150418114061864  1.0000
  H   H30       1.0  0.8174569938586986  0.1896838975370301  0.650410914047221  1.0000
  H   H31       1.0  0.3174374095481269  0.3103107101743134  0.8495796809984666  1.0000
  H   H32       1.0  0.1825450835112292  0.8103249672896169  0.349576882157116  1.0000
  H   H33       1.0  0.6889738119215068  0.7072087704012162  0.30432111498026865  1.0000
  H   H34       1.0  0.8110434420598835  0.20721519456315465  0.8043133958430032  1.0000
  H   H35       1.0  0.3110298658701893  0.2927935890493458  0.6956829898065491  1.0000
  H   H36       1.0  0.18897303754243217  0.7927886989528192  0.19567602788841043  1.0000
  H   H37       1.0  0.2847542092159686  0.9850746582023362  0.07990087287954142  1.0000
  H   H38       1.0  0.2152547217908065  0.48507036480063453  0.5799028404175601  1.0000
  H   H39       1.0  0.7152510688718153  0.014923489060663502  0.920096610000094  1.0000
  H   H40       1.0  0.7847441553264076  0.5149303393040654  0.42010200885751897  1.0000
  H   H41       1.0  0.1902448369418792  0.8638164759475445  0.02711977900926851  1.0000
  H   H42       1.0  0.3097572893823397  0.3638088454887836  0.5271202058352954  1.0000
  H   H43       1.0  0.8097588408843279  0.13618335302664522  0.9728799890706127  1.0000
  H   H44       1.0  0.6902415877287993  0.6361918427967268  0.47288282562667655  1.0000
  C   C1        1.0  0.43340784141052074  0.4519761886229007  0.187690508299788  1.0000
  C   C2        1.0  0.06659514728907112  0.9519864147467629  0.6876818006930634  1.0000
  C   C3        1.0  0.566581434367862  0.5480212311553814  0.8123188596403139  1.0000
  C   C4        1.0  0.9334085304654992  0.048014974658151716  0.31230631601992787  1.0000
  C   C5        1.0  0.9814220178447074  0.6148238235297114  0.2929633497270387  1.0000
  C   C6        1.0  0.5186003890185518  0.11483858769775421  0.7929591794009099  1.0000
  C   C7        1.0  0.0185928615426292  0.3851818729779168  0.7070422957717779  1.0000
  C   C8        1.0  0.4814176906451594  0.8851744576780761  0.20703160308440977  1.0000
  C   C9        1.0  0.14371035469483934  0.5554401416292976  0.2361471316650992  1.0000
  C   C10       1.0  0.356300565437195  0.055458332496485206  0.7361548029918976  1.0000
  C   C11       1.0  0.8562965237173972  0.44455386726902907  0.7638522124351751  1.0000
  C   C12       1.0  0.6437079128315447  0.9445547761561102  0.2638432507458432  1.0000
  C   C13       1.0  0.1371188532060117  0.5461845586538487  0.14820266500544219  1.0000
  C   C14       1.0  0.3628774103055505  0.0462109840658727  0.6482017663893344  1.0000
  C   C15       1.0  0.8628672224259192  0.45379536925845804  0.8518017953696172  1.0000
  C   C16       1.0  0.6371118649582854  0.9538095525508794  0.351790513400438  1.0000
  C   C17       1.0  0.7527068845197322  0.32802204761539144  0.1329447168820082  1.0000
  C   C18       1.0  0.7473108151701168  0.8280297854473916  0.6329365200699683  1.0000
  C   C19       1.0  0.24730159410128044  0.6719753827090146  0.8670658629334935  1.0000
  C   C20       1.0  0.2526960631420537  0.17196833017722923  0.3670573271834527  1.0000
  C   C21       1.0  0.9732333876986559  0.5944382810505857  0.11642462233197651  1.0000
  C   C22       1.0  0.5267453732855502  0.09445472165675987  0.6164221312683933  1.0000
  C   C23       1.0  0.02674468666872091  0.4055458010455908  0.8835797946355439  1.0000
  C   C24       1.0  0.47323910146882764  0.9055549813889527  0.38356650456721997  1.0000
  C   C25       1.0  0.8129527646071466  0.6519966322270676  0.1736438705196335  1.0000
  C   C26       1.0  0.6870337367217516  0.15201635188659424  0.6736362548533279  1.0000
  C   C27       1.0  0.1870237095061  0.3479882775420435  0.8263601742037565  1.0000
  C   C28       1.0  0.312953938532779  0.8479916747209941  0.3263507017197397  1.0000
  C   C29       1.0  0.8171662972452014  0.6620621695294915  0.2611851301644492  1.0000
  C   C30       1.0  0.682823624236093  0.16207855740501742  0.7611765797238446  1.0000
  C   C31       1.0  0.18281817786549936  0.33793186573415573  0.7388172436243392  1.0000
  C   C32       1.0  0.3171720521984938  0.8379285887989879  0.23880468971632493  1.0000
  S   S1        1.0  0.7234784806823031  0.3133954690161929  0.027434101710945003  1.0000
  S   S2        1.0  0.7765342518566174  0.8133957472456573  0.5274280432206524  1.0000
  S   S3        1.0  0.2765107950203359  0.686606120765134  0.9725770406347249  1.0000
  S   S4        1.0  0.2234646253938593  0.1865965693953626  0.47256780380396884  1.0000
  S   S5        1.0  0.953283453432235  0.2676163528880195  0.17056097663964206  1.0000
  S   S6        1.0  0.546748087290517  0.7676374073098629  0.6705553070493693  1.0000
  S   S7        1.0  0.04672822580728561  0.7323727216110855  0.8294442365516161  1.0000
  S   S8        1.0  0.4532731929740592  0.2323707300320592  0.3294443742154414  1.0000
  S   S9        1.0  0.352721676455289  0.4671685772082199  0.09115709022201908  1.0000
  S   S10       1.0  0.147280036072722  0.9671896843607044  0.5911574800087678  1.0000
  S   S11       1.0  0.6472627988231138  0.5328171602338257  0.9088465822572401  1.0000
  S   S12       1.0  0.8527172406105097  0.0328201136001525  0.40884206270548856  1.0000
  N   N1        1.0  0.3152808452418441  0.501744779435498  0.2570408346266078  1.0000
  N   N2        1.0  0.18472433205759137  0.0017528325779849977  0.7570293413125666  1.0000
  N   N3        1.0  0.6847148313623421  0.4982593144568952  0.7429716147374847  1.0000
  N   N4        1.0  0.815287346836449  0.9982501910805439  0.242955607161356  1.0000
  N   N5        1.0  0.6115649721198083  0.39236881344118063  0.1944446664614148  1.0000
  N   N6        1.0  0.8884458291270648  0.8923715483241282  0.6944344615502231  1.0000
  N   N7        1.0  0.38843230473445806  0.6076344422321469  0.8055669432714012  1.0000
  N   N8        1.0  0.11157225092819091  0.10762155380531621  0.30555616572864597  1.0000
  O   O1        1.0  0.4756706618575067  0.08620472879463388  0.12594819531118867  1.0000
  O   O2        1.0  0.0243366740512556  0.5862025820089869  0.6259499188680023  1.0000
  O   O3        1.0  0.5243410170871955  0.9137984266904837  0.8740519016052841  1.0000
  O   O4        1.0  0.975660602878101  0.413795628530778  0.3740548352640474  1.0000
  O   O5        1.0  0.7058707735443763  0.8253087039577097  0.9830858988064577  1.0000
  O   O6        1.0  0.7941078883391555  0.3253075769630627  0.48308990579006655  1.0000
  O   O7        1.0  0.2941217026395222  0.17469028679742143  0.016913029642154204  1.0000
  O   O8        1.0  0.2058781869154132  0.6746923311070816  0.5169189513553433  1.0000
  O   O9        1.0  0.16253521018018802  0.944615741052381  0.04350690365130559  1.0000
  O   O10       1.0  0.3374734557162996  0.4446064605208094  0.5435086809032867  1.0000
  O   O11       1.0  0.83747166808395  0.0553857432676779  0.9564921199403214  1.0000
  O   O12       1.0  0.6625318223903705  0.5553926093302692  0.4564993366108538  1.0000
