data_image0
_chemical_formula_structural       Cd3H18C12S4N12O2
_chemical_formula_sum              "Cd3 H18 C12 S4 N12 O2"
_cell_length_a       6.822427109076358
_cell_length_b       9.584143242748572
_cell_length_c       9.716616380224083
_cell_angle_alpha    89.5476605247218
_cell_angle_beta     109.78730230735097
_cell_angle_gamma    94.85388320621472

_space_group_name_H-M_alt    "P 1"
_space_group_IT_number       1

loop_
  _space_group_symop_operation_xyz
  'x, y, z'

loop_
  _atom_site_type_symbol
  _atom_site_label
  _atom_site_symmetry_multiplicity
  _atom_site_fract_x
  _atom_site_fract_y
  _atom_site_fract_z
  _atom_site_occupancy
  Cd  Cd1       1.0  0.9999990673559862  3.0265701198984564e-06  0.5000036370203205  1.0000
  Cd  Cd2       1.0  0.5062775818892292  0.8156452271629321  0.5094281196981569  1.0000
  Cd  Cd3       1.0  0.493716533834899  0.18436177672381146  0.4905679617536621  1.0000
  H   H1        1.0  0.37792110269027285  0.000629641308066199  0.681371902565651  1.0000
  H   H2        1.0  0.6220783883117987  0.999371082839701  0.318623382745244  1.0000
  H   H3        1.0  0.39599229540217346  0.9417209766370291  0.06629374862865227  1.0000
  H   H4        1.0  0.6040236212967044  0.0582514131591054  0.933706412441559  1.0000
  H   H5        1.0  0.8772998078340706  0.7483630941869135  0.06021622980625815  1.0000
  H   H6        1.0  0.12270251059412367  0.25162402231512  0.9397776490023731  1.0000
  H   H7        1.0  0.11435800085777709  0.8306470941303699  0.1853811243235484  1.0000
  H   H8        1.0  0.8856379656128651  0.16933891459643044  0.814619486550015  1.0000
  H   H9        1.0  0.11793475122374282  0.6683956275005442  0.0963561341078361  1.0000
  H   H10       1.0  0.8820629070519033  0.3315914530248348  0.903641789991383  1.0000
  H   H11       1.0  0.7759952563106295  0.49880195061938776  0.6439675778695458  1.0000
  H   H12       1.0  0.22400920512196618  0.5012123166140368  0.356036101732684  1.0000
  H   H13       1.0  0.10214862744103212  0.6490472816019235  0.7779424184687685  1.0000
  H   H14       1.0  0.8978582316412371  0.3509617790707935  0.222057704526769  1.0000
  H   H15       1.0  0.3198562814896916  0.6258418182058562  0.7205856531836473  1.0000
  H   H16       1.0  0.6801444814145937  0.3741568169995801  0.2794089008943246  1.0000
  H   H17       1.0  0.3058596675934949  0.5443489192618642  0.8829487210890647  1.0000
  H   H18       1.0  0.6941436501231449  0.45565701583307555  0.11704953258676205  1.0000
  C   C1        1.0  0.9446796865729397  0.8477903960342418  0.8218419468024082  1.0000
  C   C2        1.0  0.0553261935095506  0.15221128646336268  0.1781630823716256  1.0000
  C   C3        1.0  0.2580631197394112  0.9261592952377243  0.9687011658421766  1.0000
  C   C4        1.0  0.7419506916192732  0.07382035847125219  0.031306740116477376  1.0000
  C   C5        1.0  0.04614958165826981  0.768140890048734  0.0840531234738791  1.0000
  C   C6        1.0  0.9538526045362588  0.23184514174270274  0.9159448396669135  1.0000
  C   C7        1.0  0.18088258302263674  0.340216391200414  0.6478268013447988  1.0000
  C   C8        1.0  0.8191065895201743  0.6597884820011898  0.3521732560978847  1.0000
  C   C9        1.0  0.8853275146480613  0.4280566128838499  0.6308169659517802  1.0000
  C   C10       1.0  0.11465755915936882  0.571952432436234  0.369185215889928  1.0000
  C   C11       1.0  0.21363190016346323  0.575793305687455  0.7726629786300593  1.0000
  C   C12       1.0  0.7863683030508781  0.4242126365533423  0.2273345394211433  1.0000
  S   S1        1.0  0.7103434580523994  0.746407036363486  0.7685323642519606  1.0000
  S   S2        1.0  0.28964882839976264  0.25360935416183145  0.23146844215150247  1.0000
  S   S3        1.0  0.4454234458878048  0.3344676791789851  0.6976834186890315  1.0000
  S   S4        1.0  0.5545651629176546  0.6655329952665667  0.3023175298997174  1.0000
  N   N1        1.0  0.23682242286214716  0.978126784626788  0.839211778498452  1.0000
  N   N2        1.0  0.7631961802898102  0.021865514238996298  0.1607880111736009  1.0000
  N   N3        1.0  0.0389754225716601  0.9299818732880069  0.7461176363511584  1.0000
  N   N4        1.0  0.9610334281785596  0.07001876404859077  0.2538870640521295  1.0000
  N   N5        1.0  0.08118638315013979  0.8458394122408918  0.9646005853834224  1.0000
  N   N6        1.0  0.9188227373007151  0.1541518513691287  0.035397992510411286  1.0000
  N   N7        1.0  0.8370592981629128  0.3047691946442299  0.5627139498762901  1.0000
  N   N8        1.0  0.16293087658146993  0.6952429633416202  0.4372914988429386  1.0000
  N   N9        1.0  0.021339564516388503  0.24815372352743031  0.5726487002070968  1.0000
  N   N10       1.0  0.9786435274967431  0.7518521833028587  0.4273530098727179  1.0000
  N   N11       1.0  0.09640260332658099  0.45438219487408543  0.6860908743882632  1.0000
  N   N12       1.0  0.9035930812495891  0.545624758744296  0.3139107236033923  1.0000
  O   O1        1.0  0.35080952527486176  0.9941668935834828  0.5755208160779617  1.0000
  O   O2        1.0  0.649187417282441  0.0058380271270905984  0.4244738722077415  1.0000
