data_image0
_chemical_formula_structural       Co2H16C22N4O10
_chemical_formula_sum              "Co2 H16 C22 N4 O10"
_cell_length_a       6.182484462217014
_cell_length_b       8.477942627692759
_cell_length_c       11.058780339739219
_cell_angle_alpha    85.28577494490341
_cell_angle_beta     87.24816955200805
_cell_angle_gamma    85.55737105862768

_space_group_name_H-M_alt    "P 1"
_space_group_IT_number       1

loop_
  _space_group_symop_operation_xyz
  'x, y, z'

loop_
  _atom_site_type_symbol
  _atom_site_label
  _atom_site_symmetry_multiplicity
  _atom_site_fract_x
  _atom_site_fract_y
  _atom_site_fract_z
  _atom_site_occupancy
  Co  Co1       1.0  0.8992884072612882  0.04342799549949921  0.12705162679543494  1.0000
  Co  Co2       1.0  0.10072817476592634  0.9565716825735746  0.8729497663605559  1.0000
  H   H1        1.0  0.8822172801912274  0.1335326206475429  0.7152918107821478  1.0000
  H   H2        1.0  0.11778881342133471  0.8664575763618103  0.2847078698751845  1.0000
  H   H3        1.0  0.11610734043525643  0.09088701683971581  0.6466782308458933  1.0000
  H   H4        1.0  0.8839135668620276  0.9091031508510595  0.3533253287591834  1.0000
  H   H5        1.0  0.1313546843058973  0.4957804714487252  0.09527319556026011  1.0000
  H   H6        1.0  0.8686351395815138  0.5042274644803727  0.9047288911217707  1.0000
  H   H7        1.0  0.12324754788777179  0.6318456447666063  0.8006665207604017  1.0000
  H   H8        1.0  0.8767554180413203  0.36815763724451495  0.19932983137044155  1.0000
  H   H9        1.0  0.5519683280963009  0.9862280642763892  0.7591754767824527  1.0000
  H   H10       1.0  0.44806505858053913  0.013770343859725602  0.24083430319621613  1.0000
  H   H11       1.0  0.3713215692359669  0.45093365613687547  0.6803211356935464  1.0000
  H   H12       1.0  0.6286731798183426  0.5490684807667776  0.31967111708068074  1.0000
  H   H13       1.0  0.8129913344674975  0.8251371985605614  0.6327851723684077  1.0000
  H   H14       1.0  0.1870254392704851  0.17485163645710594  0.3672295005533215  1.0000
  H   H15       1.0  0.7073949699723274  0.3987587930280512  0.5656212299840534  1.0000
  H   H16       1.0  0.29259074083275755  0.6012420133788295  0.4343814452508711  1.0000
  C   C1        1.0  0.29454943407435513  0.76793425790553  0.1226456897979631  1.0000
  C   C2        1.0  0.7054388636147167  0.23206285468491217  0.8773679410478864  1.0000
  C   C3        1.0  0.40825939741984035  0.6335349370032828  0.057778163214770514  1.0000
  C   C4        1.0  0.591734403085269  0.36646356830699023  0.9422197675866502  1.0000
  C   C5        1.0  0.29420429941458087  0.49848466895938504  0.05345436405931281  1.0000
  C   C6        1.0  0.7057731006492034  0.5015234961451897  0.9465283478896965  1.0000
  C   C7        1.0  0.6184917395554663  0.635005802912275  0.0036700517904933033  1.0000
  C   C8        1.0  0.3815008468638015  0.3650010891825274  0.9963211177591947  1.0000
  C   C9        1.0  0.27788834998216333  0.6685587703356647  0.7616050420061529  1.0000
  C   C10       1.0  0.7221053268895973  0.33144092169190026  0.2383928260921166  1.0000
  C   C11       1.0  0.5166394804408442  0.8679864681262471  0.7375296804945464  1.0000
  C   C12       1.0  0.4833653470713487  0.13200827896818623  0.2624851743574724  1.0000
  C   C13       1.0  0.7552186233492011  0.7730043118890818  0.005470360203609898  1.0000
  C   C14       1.0  0.24478795006824336  0.2269954161157841  0.9945260384806646  1.0000
  C   C15       1.0  0.41474625390780073  0.5702505327656411  0.6932368497664287  1.0000
  C   C16       1.0  0.5852491924512507  0.42975144461108516  0.3067680476671981  1.0000
  C   C17       1.0  0.6609196958697084  0.7777315862487482  0.6665968929032076  1.0000
  C   C18       1.0  0.3390840909974814  0.22227034951814056  0.3334121665901791  1.0000
  C   C19       1.0  0.6121453591539139  0.623944023045233  0.6440029005862797  1.0000
  C   C20       1.0  0.38785153028774744  0.37605683905569987  0.35599656963275095  1.0000
  C   C21       1.0  0.7575747704214066  0.5179487351429017  0.5755154901828164  1.0000
  C   C22       1.0  0.24240190434149875  0.4820545888614232  0.4244747688764434  1.0000
  N   N1        1.0  0.3280701638481673  0.8146481267163138  0.7856957841268084  1.0000
  N   N2        1.0  0.6719357580942645  0.18534558486579297  0.21430732118091103  1.0000
  N   N3        1.0  0.9429334039944879  0.5605952760865377  0.5292845331018867  1.0000
  N   N4        1.0  0.057061518500653094  0.4394056627050418  0.47070868556544104  1.0000
  O   O1        1.0  0.19575000971035195  0.8833281175780525  0.061294025858295215  1.0000
  O   O2        1.0  0.8042385445352807  0.11667973551476511  0.9387144539314393  1.0000
  O   O3        1.0  0.29059887050102173  0.7520894368256207  0.23773959904650618  1.0000
  O   O4        1.0  0.7093851722024385  0.2479113779032217  0.7622622437764692  1.0000
  O   O5        1.0  0.8932390134365634  0.7906515419461543  0.9168281466269762  1.0000
  O   O6        1.0  0.10676365364763293  0.20935180843365228  0.08316278636412733  1.0000
  O   O7        1.0  0.27245341279076746  0.14088759293517938  0.9050371315855729  1.0000
  O   O8        1.0  0.7275527639375243  0.8591145426886228  0.09495643212253672  1.0000
  O   O9        1.0  0.002981056366451207  0.04460865083186149  0.6992513237906764  1.0000
  O   O10       1.0  0.9970259137401459  0.9553886695540681  0.300747909869763  1.0000
