data_image0
_chemical_formula_structural       Co2H28C26N4Cl4
_chemical_formula_sum              "Co2 H28 C26 N4 Cl4"
_cell_length_a       5.344055110361306
_cell_length_b       9.625480358520552
_cell_length_c       13.102379875854384
_cell_angle_alpha    89.99874871244019
_cell_angle_beta     89.9996533545056
_cell_angle_gamma    90.87851383447405

_space_group_name_H-M_alt    "P 1"
_space_group_IT_number       1

loop_
  _space_group_symop_operation_xyz
  'x, y, z'

loop_
  _atom_site_type_symbol
  _atom_site_label
  _atom_site_symmetry_multiplicity
  _atom_site_fract_x
  _atom_site_fract_y
  _atom_site_fract_z
  _atom_site_occupancy
  Co  Co1       1.0  0.0808049997840143  0.28475426785028185  0.7500040927590773  1.0000
  Co  Co2       1.0  0.9191917599383217  0.7152396699555581  0.2499997960526343  1.0000
  H   H1        1.0  0.5346246761344133  0.4202201025002027  0.8438961962037937  1.0000
  H   H2        1.0  0.4653648700072919  0.579774269590331  0.3439033467955711  1.0000
  H   H3        1.0  0.46537863207758073  0.5797872666676298  0.1561046396116126  1.0000
  H   H4        1.0  0.5346294421903792  0.42021138225647536  0.6561074110672392  1.0000
  H   H5        1.0  0.7869900718792378  0.3899712700532447  0.0002609239874829  1.0000
  H   H6        1.0  0.21301670533269149  0.6100236886102336  0.5002695819224527  1.0000
  H   H7        1.0  0.2130353884574916  0.6100316543893456  0.9997368589633027  1.0000
  H   H8        1.0  0.7869767472797093  0.3899765299607267  0.49973659650135727  1.0000
  H   H9        1.0  0.2771152437294475  0.05975892821057018  0.0893051690791893  1.0000
  H   H10       1.0  0.722886572921979  0.9402407382518803  0.5892945137142149  1.0000
  H   H11       1.0  0.7229192782186898  0.94023972045931  0.9106949035585503  1.0000
  H   H12       1.0  0.27708674214977685  0.05976597865590351  0.4106971634926993  1.0000
  H   H13       1.0  0.0399476279856827  0.10421952016356069  0.9275909012692125  1.0000
  H   H14       1.0  0.9600405127270688  0.8957755133711911  0.427577472497326  1.0000
  H   H15       1.0  0.960075384826375  0.8957751183199958  0.0724137507326716  1.0000
  H   H16       1.0  0.03992337984098529  0.10423028552225588  0.5724142047257886  1.0000
  H   H17       1.0  0.8822842488891921  0.2509587745308152  0.1505926768515664  1.0000
  H   H18       1.0  0.11772695061699778  0.7490296003031034  0.6505938959892249  1.0000
  H   H19       1.0  0.1177402009520776  0.7490296073125008  0.8494112119799979  1.0000
  H   H20       1.0  0.8822555703402414  0.2509749182214236  0.34940770308877944  1.0000
  H   H21       1.0  0.7417680215761208  0.08282550497239072  0.1589857858935844  1.0000
  H   H22       1.0  0.2582266899403152  0.9171701123263245  0.6589809445614208  1.0000
  H   H23       1.0  0.2582436265144707  0.9171672009269826  0.8410165764742032  1.0000
  H   H24       1.0  0.7417541052916332  0.0828365078356654  0.3410214177211301  1.0000
  H   H25       1.0  0.3724784862219082  0.18765375542165685  0.2499931640730537  1.0000
  H   H26       1.0  0.6275244612457199  0.8123484201830068  0.7499946970430076  1.0000
  H   H27       1.0  0.5316528519717494  0.3501125957555615  0.2499886365756012  1.0000
  H   H28       1.0  0.4683518212211624  0.6498874782116387  0.7499984613359204  1.0000
  C   C1        1.0  0.4807421864443027  0.34163819183130784  0.8998974015708185  1.0000
  C   C2        1.0  0.519252101065902  0.6583575814002386  0.3998993521484522  1.0000
  C   C3        1.0  0.5192571650767731  0.6583661093230119  0.1001072503739309  1.0000
  C   C4        1.0  0.4807374670813757  0.34164060798626383  0.6001052998552723  1.0000
  C   C5        1.0  0.6220867059192443  0.32400132218117506  0.9878692197009686  1.0000
  C   C6        1.0  0.3779173855901306  0.6759958805277576  0.4878757221888321  1.0000
  C   C7        1.0  0.3779386100694423  0.6759995247600301  0.012128563266927  1.0000
  C   C8        1.0  0.6220723990792081  0.3240054251108262  0.5121289297892275  1.0000
  C   C9        1.0  0.5551103695034598  0.22066003874303416  0.058288621333979114  1.0000
  C   C10       1.0  0.44489355738717506  0.7793353194922757  0.558289504512004  1.0000
  C   C11       1.0  0.4449276039100453  0.7793344066743086  0.9417083984544306  1.0000
  C   C12       1.0  0.5550779597408919  0.22067246023512146  0.4417075152287637  1.0000
  C   C13       1.0  0.3394660851089313  0.1409626895253595  0.0365399877974752  1.0000
  C   C14       1.0  0.6605272594883472  0.8590365679033735  0.5365353541476097  1.0000
  C   C15       1.0  0.6605569999289216  0.8590329877872517  0.9634593216549804  1.0000
  C   C16       1.0  0.33945173791825306  0.14097111525732228  0.46346013914678963  1.0000
  C   C17       1.0  0.20737037640946454  0.164227279338398  0.9474439014352072  1.0000
  C   C18       1.0  0.7926160146051943  0.8357744671311164  0.4474371050184089  1.0000
  C   C19       1.0  0.7926511272437435  0.8357725771018778  0.05255693442480689  1.0000
  C   C20       1.0  0.20734974802140013  0.16423130760386329  0.5525553354233068  1.0000
  C   C21       1.0  0.7020692207004942  0.19466013630870546  0.1535752043043956  1.0000
  C   C22       1.0  0.2979293357825981  0.8053355913619386  0.653573644100895  1.0000
  C   C23       1.0  0.2979500520018803  0.8053345505029766  0.8464271580401717  1.0000
  C   C24       1.0  0.7020495894203973  0.1946710530032902  0.3464249020825535  1.0000
  C   C25       1.0  0.5594779986211265  0.2371827043332786  0.2499956395922212  1.0000
  C   C26       1.0  0.4405211364666499  0.7628184807032811  0.7499998537367033  1.0000
  N   N1        1.0  0.2770290528995715  0.2623544397525492  0.878711246874829  1.0000
  N   N2        1.0  0.7229712554865274  0.7376418825946728  0.3787077094191744  1.0000
  N   N3        1.0  0.722986840541033  0.7376454891071448  0.12129111543001163  1.0000
  N   N4        1.0  0.277018024016435  0.26235215186741095  0.6212916000779032  1.0000
  Cl  Cl1       1.0  0.8019720934710007  0.1091563787912975  0.7499995197612321  1.0000
  Cl  Cl2       1.0  0.1980245940921037  0.8908365202862357  0.2500028426187839  1.0000
  Cl  Cl3       1.0  0.9522997354766074  0.5022520467960091  0.7500045638189974  1.0000
  Cl  Cl4       1.0  0.04769141404791811  0.4977419634516451  0.24999932499730454  1.0000
