data_image0
_chemical_formula_structural       Al2H6C24S6O18
_chemical_formula_sum              "Al2 H6 C24 S6 O18"
_cell_length_a       3.9688415020068644
_cell_length_b       20.159596304289735
_cell_length_c       20.159619301364604
_cell_angle_alpha    120.0003136719587
_cell_angle_beta     90.00006992805396
_cell_angle_gamma    90.00013775031529

_space_group_name_H-M_alt    "P 1"
_space_group_IT_number       1

loop_
  _space_group_symop_operation_xyz
  'x, y, z'

loop_
  _atom_site_type_symbol
  _atom_site_label
  _atom_site_symmetry_multiplicity
  _atom_site_fract_x
  _atom_site_fract_y
  _atom_site_fract_z
  _atom_site_occupancy
  Al  Al1       1.0  0.003685749604798599  0.5000004611749913  0.49999893515875005  1.0000
  Al  Al2       1.0  0.0036797797700102992  0.16666734050473037  0.8333322872128192  1.0000
  H   H1        1.0  0.49609742873339246  0.5137326565586802  0.7839872820219468  1.0000
  H   H2        1.0  0.4960995679090557  0.15293254829765596  0.5493303787811995  1.0000
  H   H3        1.0  0.496098013930208  0.7702560890009735  0.48626804873087076  1.0000
  H   H4        1.0  0.4960999139680594  0.8964000790822837  0.8470671202508625  1.0000
  H   H5        1.0  0.4960989286502197  0.21601443148791333  0.22974371808024327  1.0000
  H   H6        1.0  0.4960999286732458  0.45066885188339967  0.10359927923951058  1.0000
  C   C1        1.0  0.5026668934130356  0.43896513097379136  0.3825730287586992  1.0000
  C   C2        1.0  0.502667488436856  0.4436106354446707  0.5610349308995026  1.0000
  C   C3        1.0  0.5026685114368945  0.6174262167820145  0.5563893209103056  1.0000
  C   C4        1.0  0.50267440199395  0.22305176696669088  0.7722885180389837  1.0000
  C   C5        1.0  0.5026708594273259  0.04923860419559388  0.776948574933833  1.0000
  C   C6        1.0  0.5026749971376246  0.2277119636520483  0.9507605301579433  1.0000
  C   C7        1.0  0.48866117880734083  0.42943241619222045  0.6809635616118398  1.0000
  C   C8        1.0  0.4887204113769171  0.23722984209891956  0.6523580271990851  1.0000
  C   C9        1.0  0.4972249689862877  0.40053129591994713  0.6025486559232361  1.0000
  C   C10       1.0  0.4972270937731407  0.2661311788640432  0.7307737207378293  1.0000
  C   C11       1.0  0.5070560345029518  0.2968035593868165  0.6341564445754102  1.0000
  C   C12       1.0  0.5070138436737395  0.36985949603506896  0.6991653655341423  1.0000
  C   C13       1.0  0.48867030987528887  0.7515333510696747  0.570568639341431  1.0000
  C   C14       1.0  0.4887172508883351  0.9151312643782814  0.76277096878416  1.0000
  C   C15       1.0  0.49723179849089405  0.7020194668483626  0.5994698383317427  1.0000
  C   C16       1.0  0.4972312741017929  0.9646453650944622  0.733870557645595  1.0000
  C   C17       1.0  0.5070519224643062  0.8373562888513888  0.7031983675093655  1.0000
  C   C18       1.0  0.5070188870370558  0.8293088373357944  0.6301417483021082  1.0000
  C   C19       1.0  0.48866418413557255  0.31903698154396665  0.24846527593793163  1.0000
  C   C20       1.0  0.48871674703998724  0.3476400775253623  0.08486806164891895  1.0000
  C   C21       1.0  0.4972239824400829  0.39745064111451706  0.2979793539110104  1.0000
  C   C22       1.0  0.4972299409391922  0.2692272072276793  0.03535419874907565  1.0000
  C   C23       1.0  0.5070549478839723  0.3658444875345026  0.16264310162450357  1.0000
  C   C24       1.0  0.5070193105432564  0.30083415110103573  0.17069066691728096  1.0000
  S   S1        1.0  0.5208885465909318  0.30096445179873393  0.5508856128477574  1.0000
  S   S2        1.0  0.5207989625471114  0.36569712655494857  0.7824347178962439  1.0000
  S   S3        1.0  0.5208866587969608  0.749924723402529  0.6990373539908674  1.0000
  S   S4        1.0  0.5208093405623443  0.9167400507267016  0.6343041257982589  1.0000
  S   S5        1.0  0.5208834356569694  0.44911389871722907  0.2500742543420742  1.0000
  S   S6        1.0  0.5208084537484224  0.21756589653994496  0.08325837740942886  1.0000
  O   O1        1.0  0.7387372563715786  0.5848472610860111  0.5725761287584702  1.0000
  O   O2        1.0  0.73873617612071  0.48773015074103654  0.4151524270033988  1.0000
  O   O3        1.0  0.7387336051491643  0.42742428230056356  0.5122695223502304  1.0000
  O   O4        1.0  0.27043917333945433  0.5830165296485461  0.5072730276348734  1.0000
  O   O5        1.0  0.27043381266542343  0.49272816909306266  0.5757422267388249  1.0000
  O   O6        1.0  0.27043541883152505  0.4242577110618483  0.41698308355777397  1.0000
  O   O7        1.0  0.7387233334053176  0.1789467698902456  0.9181826369614184  1.0000
  O   O8        1.0  0.7387208649942918  0.23923817631946057  0.8210522251710373  1.0000
  O   O9        1.0  0.7387172138343843  0.08181725297668406  0.760761420879369  1.0000
  O   O10       1.0  0.2704308812407206  0.2424146563648434  0.9163469323754326  1.0000
  O   O11       1.0  0.27042964636189737  0.08365209416474766  0.8260647002504483  1.0000
  O   O12       1.0  0.27042744808058927  0.17393410343191104  0.7575839948603401  1.0000
  O   O13       1.0  0.4770261629719953  0.5060669792761416  0.7325126757940337  1.0000
  O   O14       1.0  0.4771471433847552  0.16059464075448188  0.6008065583539377  1.0000
  O   O15       1.0  0.4770367988764903  0.72644687965046  0.49393444609636816  1.0000
  O   O16       1.0  0.4771399584246793  0.9402142336409015  0.8394056712540136  1.0000
  O   O17       1.0  0.47702831885474933  0.2674875206841136  0.27355070704604145  1.0000
  O   O18       1.0  0.4771392893082833  0.3991966271712358  0.059787430140786954  1.0000
