data_image0
_chemical_formula_structural       Na2H20C10N6O16
_chemical_formula_sum              "Na2 H20 C10 N6 O16"
_cell_length_a       7.699693216681455
_cell_length_b       7.784600243967821
_cell_length_c       10.127346339255897
_cell_angle_alpha    116.25344300247849
_cell_angle_beta     110.1020752119545
_cell_angle_gamma    96.95874649636126

_space_group_name_H-M_alt    "P 1"
_space_group_IT_number       1

loop_
  _space_group_symop_operation_xyz
  'x, y, z'

loop_
  _atom_site_type_symbol
  _atom_site_label
  _atom_site_symmetry_multiplicity
  _atom_site_fract_x
  _atom_site_fract_y
  _atom_site_fract_z
  _atom_site_occupancy
  Na  Na1       1.0  0.939733110551643  0.18080871162800344  0.38178501799561804  1.0000
  Na  Na2       1.0  0.060259888408090406  0.8191958787948009  0.618205220799453  1.0000
  H   H1        1.0  0.5116478807480432  0.16190494776572706  0.796705606741028  1.0000
  H   H2        1.0  0.788928128956435  0.6285819930478596  0.9350506067836616  1.0000
  H   H3        1.0  0.48834015140639747  0.8380823178873554  0.20328981522404618  1.0000
  H   H4        1.0  0.21106545717579908  0.37139577025579473  0.06493343272263975  1.0000
  H   H5        1.0  0.3410205985250059  0.05797798698866788  0.46335487461789154  1.0000
  H   H6        1.0  0.654434722366048  0.4149471277942851  0.532098157540666  1.0000
  H   H7        1.0  0.6589782845854727  0.9420229619562689  0.536645656485646  1.0000
  H   H8        1.0  0.3455741056871986  0.5850498963808306  0.46790770916609126  1.0000
  H   H9        1.0  0.40429971243298723  0.3192322038988422  0.6109169538144597  1.0000
  H   H10       1.0  0.6977747652463152  0.22499744261033774  0.5795507429442494  1.0000
  H   H11       1.0  0.5957042908303334  0.6807721010125858  0.38908892346365304  1.0000
  H   H12       1.0  0.30222802400808735  0.7749978321049151  0.4204520130505142  1.0000
  H   H13       1.0  0.19265545744843132  0.9538058006731377  0.16919475371322074  1.0000
  H   H14       1.0  0.5036482061120252  0.32498719188838276  0.2551289256375923  1.0000
  H   H15       1.0  0.8073438606133932  0.046196660347774775  0.8308063606177992  1.0000
  H   H16       1.0  0.4963590722442459  0.6750140789597975  0.7448748891135676  1.0000
  H   H17       1.0  0.1411045096914165  0.14527554410800286  0.12587032477158283  1.0000
  H   H18       1.0  0.4407273790709212  0.06768072428337038  0.09629365711343497  1.0000
  H   H19       1.0  0.8589035477224268  0.8547332448603766  0.8741360280354438  1.0000
  H   H20       1.0  0.5592760562941377  0.9323264258299913  0.9037109782214539  1.0000
  C   C1        1.0  0.8220029415772387  0.5154204011884075  0.11853743037394777  1.0000
  C   C2        1.0  0.17797236864554108  0.4845755404091958  0.8814583472172896  1.0000
  C   C3        1.0  0.39540628950552303  0.21354814037486136  0.49096749988830607  1.0000
  C   C4        1.0  0.5944281268783556  0.2556367195352037  0.49393803655281926  1.0000
  C   C5        1.0  0.6045976927068962  0.7864560961914007  0.5090373622314883  1.0000
  C   C6        1.0  0.4055769279778827  0.7443616215916787  0.5060662639784607  1.0000
  C   C7        1.0  0.24695713750686113  0.11549593479242046  0.21098091104168046  1.0000
  C   C8        1.0  0.4467711633846108  0.16501766414491204  0.2166207499131828  1.0000
  C   C9        1.0  0.7530477356591516  0.8845113942709516  0.7890261326913968  1.0000
  C   C10       1.0  0.5532341934760507  0.8349865463358623  0.7833834751298451  1.0000
  N   N1        1.0  0.8691568631890332  0.7224631569069755  0.19893224341014087  1.0000
  N   N2        1.0  0.8524806444407745  0.41570532793691223  0.20607351201341828  1.0000
  N   N3        1.0  0.13082780966885107  0.2775268694286837  0.801061180448613  1.0000
  N   N4        1.0  0.1475059306384877  0.5843057406833622  0.7939269427854538  1.0000
  N   N5        1.0  0.7508483539065052  0.3898466353237494  0.9472729411493002  1.0000
  N   N6        1.0  0.2491921132336755  0.6101642276222774  0.052736599810962854  1.0000
  O   O1        1.0  0.8115480180457125  0.801066600631252  0.10994287583722676  1.0000
  O   O2        1.0  0.8276416713063953  0.22887736225320765  0.12795649287950536  1.0000
  O   O3        1.0  0.18844884430587427  0.19892249900104989  0.8900564130029448  1.0000
  O   O4        1.0  0.17239816478281247  0.7711361408592622  0.8720487606625935  1.0000
  O   O5        1.0  0.9744435696746334  0.840173516786791  0.35268370019299056  1.0000
  O   O6        1.0  0.8945343575140609  0.505370695171919  0.3573400710548068  1.0000
  O   O7        1.0  0.02554082288001068  0.15982038841062257  0.6473019588418152  1.0000
  O   O8        1.0  0.10542081133873886  0.4946466462152301  0.6426501652910018  1.0000
  O   O9        1.0  0.5398088456241865  0.3071608211256845  0.8748827592046523  1.0000
  O   O10       1.0  0.8000238192898834  0.4903339252958501  0.8732593680699235  1.0000
  O   O11       1.0  0.46020416887622406  0.692826649957986  0.12513309721727936  1.0000
  O   O12       1.0  0.19997002010346415  0.5096543380202759  0.12672799786566458  1.0000
  O   O13       1.0  0.25391728907808897  0.23909107078686276  0.37017603242041003  1.0000
  O   O14       1.0  0.5831392043076563  0.1268259632782858  0.3326004379337987  1.0000
  O   O15       1.0  0.7460913085416152  0.7609195719833224  0.6298359794056834  1.0000
  O   O16       1.0  0.4168644127476355  0.8731721988985868  0.6674014541992929  1.0000
