data_image0
_chemical_formula_structural       HgH10C10N6Cl2O2
_chemical_formula_sum              "Hg1 H10 C10 N6 Cl2 O2"
_cell_length_a       3.9217249904092446
_cell_length_b       6.212709562110801
_cell_length_c       14.50949902668708
_cell_angle_alpha    98.8312188888916
_cell_angle_beta     88.71280521895108
_cell_angle_gamma    96.37914420110141

_space_group_name_H-M_alt    "P 1"
_space_group_IT_number       1

loop_
  _space_group_symop_operation_xyz
  'x, y, z'

loop_
  _atom_site_type_symbol
  _atom_site_label
  _atom_site_symmetry_multiplicity
  _atom_site_fract_x
  _atom_site_fract_y
  _atom_site_fract_z
  _atom_site_occupancy
  Hg  Hg1       1.0  0.49998481957749163  0.9999931457551341  0.9999995707855333  1.0000
  H   H1        1.0  0.23028956448753493  0.6688115325879878  0.3085353238419017  1.0000
  H   H2        1.0  0.7697570640650043  0.3312130771269254  0.6914540608427232  1.0000
  H   H3        1.0  0.22727939071234005  0.4838706264347863  0.140573337692885  1.0000
  H   H4        1.0  0.7727393819663392  0.5160996840873507  0.8594257755267877  1.0000
  H   H5        1.0  0.6854622805836997  0.9691473669266131  0.21944237146444584  1.0000
  H   H6        1.0  0.3144640318323439  0.030819033407496508  0.7805568872325283  1.0000
  H   H7        1.0  0.8998278404320743  0.1645352882498443  0.540266102953332  1.0000
  H   H8        1.0  0.1001772404401606  0.8355061886478126  0.4597315574169798  1.0000
  H   H9        1.0  0.6589243902120149  0.3686571387853732  0.5107639327244087  1.0000
  H   H10       1.0  0.34110264273028434  0.6313737193397273  0.48922733135565727  1.0000
  C   C1        1.0  0.33632974249785264  0.5128263673672536  0.2891628891194742  1.0000
  C   C2        1.0  0.6637053226069868  0.48718052568928993  0.7108352906222352  1.0000
  C   C3        1.0  0.3313863551457318  0.4106521703134264  0.19614033258125121  1.0000
  C   C4        1.0  0.6686082207703733  0.5893276306018363  0.8038609310105971  1.0000
  C   C5        1.0  0.58309771374163  0.12598681537344447  0.23932334616139173  1.0000
  C   C6        1.0  0.4168572080796268  0.8739858622784596  0.7606799732793448  1.0000
  C   C7        1.0  0.5943133212927876  0.2310161814408644  0.3318058551137639  1.0000
  C   C8        1.0  0.40568045215444937  0.7689708468976235  0.6681905095673102  1.0000
  C   C9        1.0  0.7652591363214115  0.12765680489282968  0.402825784647142  1.0000
  C   C10       1.0  0.2347497873516602  0.8723479501919371  0.5971749134678817  1.0000
  N   N1        1.0  0.4685425322013828  0.4239717805707102  0.3571385451028846  1.0000
  N   N2        1.0  0.5314925700746542  0.5760379490553049  0.6428633333094497  1.0000
  N   N3        1.0  0.4540626492785407  0.21680387821756852  0.17198349311643576  1.0000
  N   N4        1.0  0.5459092208991548  0.7831816326269132  0.828023739278308  1.0000
  N   N5        1.0  0.7769853694098288  0.23084014503096037  0.49027777396752015  1.0000
  N   N6        1.0  0.22303278919293493  0.7691853223890986  0.5097164552820033  1.0000
  Cl  Cl1       1.0  0.8515311690445274  0.7499012941796791  0.056533263324745085  1.0000
  Cl  Cl2       1.0  0.1484262650045096  0.2500877462833698  0.9434714810738286  1.0000
  O   O1        1.0  0.8969693380663273  0.9528154405871021  0.37608612033805855  1.0000
  O   O2        1.0  0.10303225817504111  0.04717739395781  0.6239169799707014  1.0000
