data_image0
_chemical_formula_structural       Zn4H26C43S10N14O18
_chemical_formula_sum              "Zn4 H26 C43 S10 N14 O18"
_cell_length_a       11.466079850801357
_cell_length_b       12.671291949543562
_cell_length_c       24.05221373303236
_cell_angle_alpha    90.34904218408036
_cell_angle_beta     88.98275928700025
_cell_angle_gamma    89.91643567974387

_space_group_name_H-M_alt    "P 1"
_space_group_IT_number       1

loop_
  _space_group_symop_operation_xyz
  'x, y, z'

loop_
  _atom_site_type_symbol
  _atom_site_label
  _atom_site_symmetry_multiplicity
  _atom_site_fract_x
  _atom_site_fract_y
  _atom_site_fract_z
  _atom_site_occupancy
  Zn  Zn1       1.0  0.6192376839194579  0.49967434060788907  0.49966390836192426  1.0000
  Zn  Zn2       1.0  0.3742031674613883  0.49888643119287224  0.4985588485573301  1.0000
  Zn  Zn3       1.0  0.3799229395469367  0.5016341228388299  0.9664160957424812  1.0000
  Zn  Zn4       1.0  0.6242959898390693  0.5003209742021754  0.9661903415908882  1.0000
  H   H1        1.0  0.3201786699056014  0.5053099651603788  0.7920606449483856  1.0000
  H   H2        1.0  0.7766031920793706  0.581198397882858  0.7725966620047515  1.0000
  H   H3        1.0  0.7810213913399409  0.44032093692568  0.7752781188444331  1.0000
  H   H4        1.0  0.7635647750747693  0.4344023743017758  0.6704307761714007  1.0000
  H   H5        1.0  0.7617899919166431  0.5747571532874504  0.669196434916529  1.0000
  H   H6        1.0  0.8809200061761047  0.36546894234446375  0.3896844743250725  1.0000
  H   H7        1.0  0.7404512390389043  0.4058560247279673  0.4088667812857664  1.0000
  H   H8        1.0  0.1135387347993273  0.6255577046171724  0.6059121679301  1.0000
  H   H9        1.0  0.25049440196885797  0.6037439156989208  0.5811726392287965  1.0000
  H   H10       1.0  0.7725230426893288  0.09488838190372212  0.5085384351455247  1.0000
  H   H11       1.0  0.7218081930892308  0.22392255195040187  0.502174156096963  1.0000
  H   H12       1.0  0.22510826041477117  0.9051326359623817  0.5105805291251072  1.0000
  H   H13       1.0  0.27436904474378565  0.7758396640769977  0.5026093798891935  1.0000
  H   H14       1.0  0.2288769972936535  0.5088631088337366  0.2865146517369297  1.0000
  H   H15       1.0  0.28020940821630796  0.49530820606123893  0.3534468829938504  1.0000
  H   H16       1.0  0.7689418452078768  0.5221103928211691  0.1786854242986706  1.0000
  H   H17       1.0  0.7188016494084124  0.5059537962422311  0.11167038807449359  1.0000
  H   H18       1.0  0.11572719874356348  0.37419067425591385  0.0761830023580004  1.0000
  H   H19       1.0  0.25726467864225094  0.4117731763878397  0.056982460290932097  1.0000
  H   H20       1.0  0.8905058844796088  0.6236492952961754  0.856790392101658  1.0000
  H   H21       1.0  0.7497183487519478  0.5893835248448624  0.8762944353455495  1.0000
  H   H22       1.0  0.22738016969024236  0.09689407163697442  0.9566917398033326  1.0000
  H   H23       1.0  0.27846923682013613  0.2259615678909057  0.9614976296181722  1.0000
  H   H24       1.0  0.773203833653845  0.904276712444549  0.9529282252218465  1.0000
  H   H25       1.0  0.7232516253998256  0.77576537774803  0.9617739811546713  1.0000
  H   H26       1.0  0.2745923507811341  0.6553540377664006  0.7029788088498777  1.0000
  C   C1        1.0  0.4970316389189193  0.7046604337743858  0.4965802385633466  1.0000
  C   C2        1.0  0.487937864091549  0.5079293281490252  0.610512066354616  1.0000
  C   C3        1.0  0.5010774584024488  0.29446832727322914  0.5022261374601769  1.0000
  C   C4        1.0  0.5007121714775876  0.4867767864541931  0.3880954116431496  1.0000
  C   C5        1.0  0.5014471044791192  0.7062618333879628  0.9704629904066024  1.0000
  C   C6        1.0  0.5100141126712572  0.5102292396300925  0.8553992984435225  1.0000
  C   C7        1.0  0.4991224886399479  0.2957007308495393  0.9620432432590746  1.0000
  C   C8        1.0  0.4992571234851936  0.4873260333293743  0.0769281452308945  1.0000
  C   C9        1.0  0.8688740252658106  0.4517401592398754  0.4614467921152041  1.0000
  C   C10       1.0  0.12356173777380519  0.5506867897681645  0.5314034802703915  1.0000
  C   C11       1.0  0.0032464677612367003  0.5330048337641742  0.5196518834658974  1.0000
  C   C12       1.0  0.9896605773394141  0.46676414881255124  0.4738581766278358  1.0000
  C   C13       1.0  0.5964976105748931  0.11262209063826843  0.498258082929418  1.0000
  C   C14       1.0  0.4010133170493404  0.8865855879006759  0.49757481266713205  1.0000
  C   C15       1.0  0.49929625214403467  0.18017307363437854  0.4998934475079437  1.0000
  C   C16       1.0  0.4981310437827062  0.8189731693139208  0.496260675270932  1.0000
  C   C17       1.0  0.4381375768946397  0.9939298048349984  0.4983939413618543  1.0000
  C   C18       1.0  0.5594512673501839  0.005303484152022999  0.4975804239787038  1.0000
  C   C19       1.0  0.5070091626885399  0.5074568947111475  0.7932189722318411  1.0000
  C   C20       1.0  0.4910073135393772  0.5050236531132272  0.672787492196278  1.0000
  C   C21       1.0  0.6053237449829963  0.5063794014976254  0.7584067351393601  1.0000
  C   C22       1.0  0.3903559103600855  0.5050780250885721  0.7080125196142432  1.0000
  C   C23       1.0  0.5967266022736554  0.504461289259858  0.7004528990052918  1.0000
  C   C24       1.0  0.3991554590096271  0.5060106881425385  0.7660885328638257  1.0000
  C   C25       1.0  0.7376702232998438  0.5082635422216057  0.75639218996794  1.0000
  C   C26       1.0  0.7276407719650421  0.5051616104270167  0.6910053257699431  1.0000
  C   C27       1.0  0.40367600375813584  0.4824489407836198  0.2934038759449891  1.0000
  C   C28       1.0  0.5963848308921555  0.48682929181497075  0.17154461585374753  1.0000
  C   C29       1.0  0.5013609427035347  0.4835146902920117  0.3277166826235884  1.0000
  C   C30       1.0  0.4988129883339383  0.4835765374810706  0.1371943000953308  1.0000
  C   C31       1.0  0.5606197663043558  0.4842622115158051  0.2285623281966167  1.0000
  C   C32       1.0  0.4395762262728126  0.48160107604667973  0.2363688175866301  1.0000
  C   C33       1.0  0.1294722523593208  0.4562865085981827  0.0036147929926358  1.0000
  C   C34       1.0  0.8755993387749966  0.5474150089305213  0.930420476577659  1.0000
  C   C35       1.0  0.9959366295978641  0.5326794121094309  0.9433999875558571  1.0000
  C   C36       1.0  0.008914712260811097  0.4709475641285934  0.9905854103098902  1.0000
  C   C37       1.0  0.40322940968221826  0.11449725479973691  0.9669166681673644  1.0000
  C   C38       1.0  0.598001265477606  0.8875854401348562  0.9680572357721431  1.0000
  C   C39       1.0  0.5005358159636374  0.18149842693240006  0.9647230642137785  1.0000
  C   C40       1.0  0.5007164696734847  0.8206148637134519  0.9704757458290133  1.0000
  C   C41       1.0  0.5612495446794411  0.9950580754890269  0.9671737691311364  1.0000
  C   C42       1.0  0.4399766300021071  0.007091898947948001  0.9684493462742693  1.0000
  C   C43       1.0  0.2677161914741858  0.5060145036324144  0.686889215905424  1.0000
  S   S1        1.0  0.8701464153177979  0.5723773592079766  0.5456943489804331  1.0000
  S   S2        1.0  0.12391182022781773  0.42829364528599717  0.4479704180781354  1.0000
  S   S3        1.0  0.36596257204641347  0.1133622974392239  0.49960291221835007  1.0000
  S   S4        1.0  0.6315852889744774  0.8858387243610436  0.49524357221850585  1.0000
  S   S5        1.0  0.6338257315263006  0.4845892532140965  0.2905453926207286  1.0000
  S   S6        1.0  0.36643968733388727  0.47886454851317245  0.17436827953785183  1.0000
  S   S7        1.0  0.1298103515300539  0.568929351501673  0.9169881780270474  1.0000
  S   S8        1.0  0.8747071682732822  0.43389798365475946  0.0164800605775426  1.0000
  S   S9        1.0  0.6337233347443884  0.1140956352154561  0.9652855661754814  1.0000
  S   S10       1.0  0.3675395759047362  0.8881783032695125  0.9720972377899528  1.0000
  N   N1        1.0  0.7983376552251966  0.5029553463386306  0.4976962579652735  1.0000
  N   N2        1.0  0.1949320663032665  0.4984363135959883  0.4961885871462783  1.0000
  N   N3        1.0  0.2006397162228737  0.5041912096804994  0.9667790965556406  1.0000
  N   N4        1.0  0.8040627339790163  0.49870652632949947  0.9665986067711216  1.0000
  N   N5        1.0  0.8255719220026805  0.39255750300923614  0.4196760809425014  1.0000
  N   N6        1.0  0.1648529633025291  0.6159658956678555  0.5714142645877232  1.0000
  N   N7        1.0  0.7100885480532495  0.1451451071977843  0.49557186807126635  1.0000
  N   N8        1.0  0.2873887586519857  0.8544541408563617  0.496550110457278  1.0000
  N   N9        1.0  0.29020292717047613  0.47947497362975616  0.3119964524730392  1.0000
  N   N10       1.0  0.7099421559475656  0.48923108685659145  0.1529618735316518  1.0000
  N   N11       1.0  0.17164733346582037  0.40010306574168186  0.0463557957125786  1.0000
  N   N12       1.0  0.833703546757846  0.6058958775663541  0.8880376042284867  1.0000
  N   N13       1.0  0.2896994985792957  0.14768586349369167  0.9693710219152223  1.0000
  N   N14       1.0  0.7116242513894234  0.8546644227520517  0.9682345341131864  1.0000
  O   O1        1.0  0.5955716294672371  0.6569108180424551  0.4964655889077889  1.0000
  O   O2        1.0  0.39671649256450076  0.6587062214485754  0.4971630778760598  1.0000
  O   O3        1.0  0.3888424927338859  0.5166962755908885  0.5875907785893659  1.0000
  O   O4        1.0  0.586166200507428  0.5015713067370982  0.5854937455517515  1.0000
  O   O5        1.0  0.4029036954134141  0.3430105659316638  0.5042248592848466  1.0000
  O   O6        1.0  0.6017268724936428  0.3395243396060296  0.5022332218808145  1.0000
  O   O7        1.0  0.599153390280243  0.48468678922558445  0.4127887111224737  1.0000
  O   O8        1.0  0.4008351022099105  0.49239480032028393  0.4129717799130503  1.0000
  O   O9        1.0  0.4029378903406595  0.6589988149929624  0.9732076563491319  1.0000
  O   O10       1.0  0.601632652692558  0.6599270996834432  0.9673553588740162  1.0000
  O   O11       1.0  0.6103825374087534  0.5115297586996945  0.8778199166357368  1.0000
  O   O12       1.0  0.4125183052404324  0.5104988771546743  0.8811920525206601  1.0000
  O   O13       1.0  0.597526113661324  0.34363005020465215  0.9616739615935188  1.0000
  O   O14       1.0  0.3987829128832345  0.34128547543379983  0.9601276234040697  1.0000
  O   O15       1.0  0.4008241498809041  0.48171349142698017  0.05223585194522679  1.0000
  O   O16       1.0  0.5985285237510709  0.4968895195569801  0.051879069267784  1.0000
  O   O17       1.0  0.21633142902120983  0.6051908343473329  0.6898679764418959  1.0000
  O   O18       1.0  0.21014619880318713  0.43092306206788333  0.6727405470198635  1.0000
