data_image0
_chemical_formula_structural       Zn4P4H28C16N8O12
_chemical_formula_sum              "Zn4 P4 H28 C16 N8 O12"
_cell_length_a       5.146782966967421
_cell_length_b       8.409955147108647
_cell_length_c       17.130982897421784
_cell_angle_alpha    90.0005417980683
_cell_angle_beta     93.73766661643128
_cell_angle_gamma    89.99976681866166

_space_group_name_H-M_alt    "P 1"
_space_group_IT_number       1

loop_
  _space_group_symop_operation_xyz
  'x, y, z'

loop_
  _atom_site_type_symbol
  _atom_site_label
  _atom_site_symmetry_multiplicity
  _atom_site_fract_x
  _atom_site_fract_y
  _atom_site_fract_z
  _atom_site_occupancy
  Zn  Zn1       1.0  0.8169191804267372  0.644645247310244  0.5707854445049634  1.0000
  Zn  Zn2       1.0  0.18307697119958283  0.14464677712560814  0.9292127055666839  1.0000
  Zn  Zn3       1.0  0.18307939830092582  0.3553529860758289  0.4292125872410537  1.0000
  Zn  Zn4       1.0  0.816933290123828  0.8553574015834116  0.07078555221039552  1.0000
  P   P1        1.0  0.2965018868999324  0.7172053886637714  0.47432299840974684  1.0000
  P   P2        1.0  0.7034901960952881  0.21720982748527723  0.025675848299386  1.0000
  P   P3        1.0  0.7034928022704606  0.2827928447430423  0.5256767093005549  1.0000
  P   P4        1.0  0.29651811502785824  0.7827943512145692  0.9743212042724635  1.0000
  H   H1        1.0  0.2571562496559637  0.002492892464800901  0.4688989825561761  1.0000
  H   H2        1.0  0.7428331996751326  0.5024955387857089  0.031100561447949805  1.0000
  H   H3        1.0  0.7428364939578034  0.9975065300165722  0.5311012712550748  1.0000
  H   H4        1.0  0.2571692732464755  0.4975062617973195  0.9688975456453619  1.0000
  H   H5        1.0  0.9757770458510465  0.9047615759912659  0.4250599450603687  1.0000
  H   H6        1.0  0.024215885660865404  0.4047626561840403  0.0749392104289157  1.0000
  H   H7        1.0  0.024221540614846004  0.09523903555668771  0.5749410055301638  1.0000
  H   H8        1.0  0.9757865841418084  0.5952462787897231  0.925057729145017  1.0000
  H   H9        1.0  0.2689072914962694  0.9172305003941403  0.374121622486932  1.0000
  H   H10       1.0  0.7310855670676589  0.41723678989963997  0.12587758984791006  1.0000
  H   H11       1.0  0.7310893463288296  0.08276654394927623  0.6258787066580638  1.0000
  H   H12       1.0  0.26891106298791106  0.5827685778847496  0.874119820476956  1.0000
  H   H13       1.0  0.38197066654558404  0.8513052362672439  0.6554330251594251  1.0000
  H   H14       1.0  0.6180340334706999  0.3513136061958733  0.844574427986899  1.0000
  H   H15       1.0  0.6180415558804668  0.1486787283512996  0.3445705241515569  1.0000
  H   H16       1.0  0.38197233980622514  0.6487036522762822  0.15542608955209397  1.0000
  H   H17       1.0  0.4915531706244281  0.9639873135404358  0.8086754661071893  1.0000
  H   H18       1.0  0.5084411301112441  0.46400490688501606  0.6913305610166419  1.0000
  H   H19       1.0  0.5084493085420121  0.03599784012715191  0.19132497601946596  1.0000
  H   H20       1.0  0.49154381729641733  0.536012351581185  0.3086666233178121  1.0000
  H   H21       1.0  0.11956250323638072  0.6840224744356435  0.7400093366137881  1.0000
  H   H22       1.0  0.8804373107185626  0.18402502352643066  0.7599884845139684  1.0000
  H   H23       1.0  0.8804477612268259  0.3159674354807365  0.259990088666413  1.0000
  H   H24       1.0  0.11957101126870381  0.815972020810598  0.24001265441636832  1.0000
  H   H25       1.0  0.9539078053934773  0.8582208059252708  0.847452663285452  1.0000
  H   H26       1.0  0.046092950663236806  0.358232830864459  0.6525512434444494  1.0000
  H   H27       1.0  0.04609857106498082  0.14176791495044946  0.1525490217241483  1.0000
  H   H28       1.0  0.9538939531790903  0.641771347896423  0.34744948113669943  1.0000
  C   C1        1.0  0.18919356384384403  0.9031216770572711  0.4315030752976625  1.0000
  C   C2        1.0  0.810799378801157  0.4031254865163661  0.0684966564909573  1.0000
  C   C3        1.0  0.8108050226255232  0.0968777454237042  0.5684978752901627  1.0000
  C   C4        1.0  0.1892030956625348  0.5968786922062179  0.9315020343755974  1.0000
  C   C5        1.0  0.5504823137768541  0.8351210295777064  0.6959787671834476  1.0000
  C   C6        1.0  0.4494990986249476  0.33513378768379454  0.804021738723783  1.0000
  C   C7        1.0  0.4495143256320588  0.1648641241014559  0.3040221457022766  1.0000
  C   C8        1.0  0.5504858379464111  0.6648810926093489  0.195971359230505  1.0000
  C   C9        1.0  0.6035980137175941  0.891758129807748  0.7707069078991111  1.0000
  C   C10       1.0  0.3963947794811632  0.3917600740195439  0.729305173742972  1.0000
  C   C11       1.0  0.39640837511229426  0.1082377255145417  0.2292994472693124  1.0000
  C   C12       1.0  0.6035921367673681  0.6082393485180759  0.270700220969907  1.0000
  C   C13       1.0  0.9324723632302325  0.7435663685771701  0.7369272239316443  1.0000
  C   C14       1.0  0.06752516460814921  0.2435780785144317  0.7630743335569646  1.0000
  C   C15       1.0  0.0675262263685141  0.25642235231211424  0.2630748941674383  1.0000
  C   C16       1.0  0.9324734233859147  0.7564296674410115  0.2369272008176466  1.0000
  N   N1        1.0  0.7579125243738362  0.7423210390851337  0.6755148842453663  1.0000
  N   N2        1.0  0.24207722388675285  0.2423335017560291  0.8244871006581889  1.0000
  N   N3        1.0  0.24208996409726072  0.2576605474150071  0.324489060480083  1.0000
  N   N4        1.0  0.7579252613888913  0.7576813786084954  0.1755156766074961  1.0000
  N   N5        1.0  0.8447721116287995  0.8323154245920819  0.7951858705868773  1.0000
  N   N6        1.0  0.15523268705680243  0.33232818556582083  0.7048168258708216  1.0000
  N   N7        1.0  0.15524009684895654  0.16767091811018284  0.2048124248191314  1.0000
  N   N8        1.0  0.8447659024828199  0.6676807494621856  0.2951852922743257  1.0000
  O   O1        1.0  0.5964103629556378  0.7209007233357596  0.48241343459159935  1.0000
  O   O2        1.0  0.40358364708496464  0.2209021659870132  0.017586050391543  1.0000
  O   O3        1.0  0.4035843262077991  0.2790998882050246  0.5175862731241239  1.0000
  O   O4        1.0  0.5964246671397292  0.7791008236570105  0.9824121697132355  1.0000
  O   O5        1.0  0.18259585136332393  0.6968649276204604  0.5547998987696942  1.0000
  O   O6        1.0  0.8173961037189772  0.19686522814870952  0.9451995815142878  1.0000
  O   O7        1.0  0.8174007864617681  0.3031321167229564  0.4452004303753013  1.0000
  O   O8        1.0  0.18260636609760184  0.8031389505571198  0.0547973580487948  1.0000
  O   O9        1.0  0.19225714741418903  0.5886489667884263  0.41463729884192446  1.0000
  O   O10       1.0  0.8077376361768318  0.0886542954644156  0.0853615833430865  1.0000
  O   O11       1.0  0.8077317004461622  0.4113504556913626  0.5853622958623319  1.0000
  O   O12       1.0  0.19227262359753894  0.9113498832390193  0.9146360906661641  1.0000
