data_image0
_chemical_formula_structural       Cu4H40C48I4N24
_chemical_formula_sum              "Cu4 H40 C48 I4 N24"
_cell_length_a       9.391939479013894
_cell_length_b       9.95890751800661
_cell_length_c       14.284952249177726
_cell_angle_alpha    90.00012411161264
_cell_angle_beta     90.31132076453723
_cell_angle_gamma    89.999987730734

_space_group_name_H-M_alt    "P 1"
_space_group_IT_number       1

loop_
  _space_group_symop_operation_xyz
  'x, y, z'

loop_
  _atom_site_type_symbol
  _atom_site_label
  _atom_site_symmetry_multiplicity
  _atom_site_fract_x
  _atom_site_fract_y
  _atom_site_fract_z
  _atom_site_occupancy
  Cu  Cu1       1.0  0.4324192825419502  0.11533635268005332  0.9844125932931508  1.0000
  Cu  Cu2       1.0  0.5675861250689423  0.6153402992780815  0.5155816979591208  1.0000
  Cu  Cu3       1.0  0.5675777514892246  0.884667300930538  0.015585208275730601  1.0000
  Cu  Cu4       1.0  0.43241942456377563  0.3846713873405464  0.48441542115191544  1.0000
  H   H1        1.0  0.8731687754467998  0.16764119231842053  0.25591644797924573  1.0000
  H   H2        1.0  0.12682209091251204  0.6676378370878454  0.24408872251412825  1.0000
  H   H3        1.0  0.1268250789758625  0.8323614571723328  0.7440855472617048  1.0000
  H   H4        1.0  0.8731728355949855  0.33236581653212494  0.7559153750577964  1.0000
  H   H5        1.0  0.7118975684323914  0.21325658245895346  0.21070483252947986  1.0000
  H   H6        1.0  0.2880964645586559  0.713257353817916  0.2892962170290687  1.0000
  H   H7        1.0  0.2881005279117019  0.7867450628981348  0.789292271191073  1.0000
  H   H8        1.0  0.7118963470964843  0.2867422833035322  0.7107120764100188  1.0000
  H   H9        1.0  0.4981670137787901  0.3354998575877133  0.8494380996364727  1.0000
  H   H10       1.0  0.5018426048829454  0.835504209012818  0.6505607517270634  1.0000
  H   H11       1.0  0.5018332145205447  0.664496767139241  0.15055970851930311  1.0000
  H   H12       1.0  0.4981672111027676  0.16450145285138268  0.3494384763018418  1.0000
  H   H13       1.0  0.668923499181851  0.5263069084598371  0.8420223329352865  1.0000
  H   H14       1.0  0.3310798091300384  0.026312060286038306  0.6579732120519779  1.0000
  H   H15       1.0  0.3310767315605716  0.4736897162681402  0.15797617526470736  1.0000
  H   H16       1.0  0.6689172322305339  0.9736905892014251  0.3420266896487832  1.0000
  H   H17       1.0  0.8309687118679393  0.5694574156228854  0.9805774414012308  1.0000
  H   H18       1.0  0.1690303324762397  0.06945515495443291  0.5194202637272554  1.0000
  H   H19       1.0  0.16903045411904571  0.4305372008527543  0.01942106459966911  1.0000
  H   H20       1.0  0.8309550112316231  0.9305354450255198  0.4805838140567858  1.0000
  H   H21       1.0  0.5980937172116401  0.2569128590757331  0.12455978434559971  1.0000
  H   H22       1.0  0.4019066772367452  0.7569098506146761  0.3754371477404632  1.0000
  H   H23       1.0  0.4018979930417856  0.7430847697779871  0.8754380062309937  1.0000
  H   H24       1.0  0.5981020642201926  0.24310083187651096  0.6245592779180386  1.0000
  H   H25       1.0  0.8123328499952082  0.33641296818121463  0.4248077869717194  1.0000
  H   H26       1.0  0.1876675511532895  0.836419150649938  0.07519767241707599  1.0000
  H   H27       1.0  0.1876695004871678  0.6635776317852946  0.5751879254415614  1.0000
  H   H28       1.0  0.8123369654851019  0.16358349884626486  0.9248085450642096  1.0000
  H   H29       1.0  0.9249766623676126  0.29467568168694674  0.582498647433745  1.0000
  H   H30       1.0  0.07502766367401388  0.79467685853421  0.9175057281985348  1.0000
  H   H31       1.0  0.0750267553132886  0.7053169265329232  0.41749776722286214  1.0000
  H   H32       1.0  0.9249779177206676  0.20532177445710437  0.08250049147704172  1.0000
  H   H33       1.0  0.18728635238657182  0.32324415588043826  0.6017631508482567  1.0000
  H   H34       1.0  0.812717955757215  0.8232351323230136  0.8982384701520445  1.0000
  H   H35       1.0  0.8127170726221564  0.6767584936045454  0.39823536394903414  1.0000
  H   H36       1.0  0.1872876158659835  0.17675747590697452  0.10176494934182762  1.0000
  H   H37       1.0  0.2346818975909457  0.42489244332663406  0.3227253247029794  1.0000
  H   H38       1.0  0.7653152743503072  0.9248827786288634  0.17727746898626862  1.0000
  H   H39       1.0  0.765318333150617  0.5751102061585629  0.677273183501818  1.0000
  H   H40       1.0  0.2346871078916095  0.07511183785579334  0.8227273440051662  1.0000
  C   C1        1.0  0.5639333364879633  0.36174378403008955  0.9098563267594317  1.0000
  C   C2        1.0  0.43606774933352443  0.8617449551141835  0.5901404487354328  1.0000
  C   C3        1.0  0.4360647574131918  0.6382568571997711  0.09014007691609292  1.0000
  C   C4        1.0  0.5639335461636179  0.13825869849715386  0.4098580616676629  1.0000
  C   C5        1.0  0.6615229616586974  0.46704648648410096  0.9059352904360909  1.0000
  C   C6        1.0  0.3384812884742132  0.9670476826442712  0.5940616595587755  1.0000
  C   C7        1.0  0.3384783313962245  0.5329511423689797  0.09406251991797633  1.0000
  C   C8        1.0  0.6615178848410325  0.032953962717869004  0.4059389465804061  1.0000
  C   C9        1.0  0.7493530650111708  0.4920011366289572  0.9822388395160573  1.0000
  C   C10       1.0  0.2506501108246156  0.9919981048271611  0.5177574480244544  1.0000
  C   C11       1.0  0.2506503551122492  0.5079954880967537  0.017758275187972603  1.0000
  C   C12       1.0  0.7493405517752549  0.007995507528995903  0.48224524066102264  1.0000
  C   C13       1.0  0.7324940366411283  0.4148979617452043  0.06426290194867332  1.0000
  C   C14       1.0  0.26750525055228996  0.9148941446212151  0.435734979894221  1.0000
  C   C15       1.0  0.2675040621463367  0.5851016753604982  0.9357349018144987  1.0000
  C   C16       1.0  0.7324907284960746  0.0851054924887364  0.5642656196508682  1.0000
  C   C17       1.0  0.6264446168956539  0.31649360003667953  0.06350142289218753  1.0000
  C   C18       1.0  0.3735546934043795  0.8164937868883513  0.4364949019575094  1.0000
  C   C19       1.0  0.3735534794491572  0.6835030246893868  0.9364956808243647  1.0000
  C   C20       1.0  0.6264487291606926  0.1835128791004266  0.5635029127987607  1.0000
  C   C21       1.0  0.8279595676414289  0.44087079895705045  0.14304144788130913  1.0000
  C   C22       1.0  0.17203546779894907  0.9408677683168211  0.35696066685184763  1.0000
  C   C23       1.0  0.172036396748851  0.5591258257681346  0.8569549513960127  1.0000
  C   C24       1.0  0.8279594562656031  0.05913488117591473  0.6430427306750561  1.0000
  C   C25       1.0  0.9572593182303848  0.42773801157889585  0.2714686665811143  1.0000
  C   C26       1.0  0.042737848013608505  0.9277396430859145  0.22853273156600554  1.0000
  C   C27       1.0  0.04273878055722241  0.5722606214006021  0.728529137181262  1.0000
  C   C28       1.0  0.9572666490800971  0.07226300640207482  0.7714678855614567  1.0000
  C   C29       1.0  0.015133441659912702  0.38578682102883743  0.3619083968328312  1.0000
  C   C30       1.0  0.9848626742058926  0.8857850439216154  0.13809363226619817  1.0000
  C   C31       1.0  0.9848657169971063  0.6142128160747479  0.638088009039386  1.0000
  C   C32       1.0  0.015139703149280601  0.11421358906581254  0.8619097806399836  1.0000
  C   C33       1.0  0.9268947426221318  0.3449611023710518  0.4355798221982995  1.0000
  C   C34       1.0  0.0731067159650678  0.8449612444466016  0.06442425292491552  1.0000
  C   C35       1.0  0.07310867750156551  0.6550335141022575  0.5644172925041319  1.0000
  C   C36       1.0  0.9268977957881576  0.1550343761641244  0.9355805644623134  1.0000
  C   C37       1.0  0.9894620534744052  0.32123573131860184  0.5223933850289557  1.0000
  C   C38       1.0  0.010543324881574301  0.8212340809550723  0.977609635060695  1.0000
  C   C39       1.0  0.010543496160600801  0.6787598892807623  0.47760373406926965  1.0000
  C   C40       1.0  0.9894643786957291  0.17876153965440988  0.0223944888747951  1.0000
  C   C41       1.0  0.135599395464105  0.3367063798428236  0.5337771878762753  1.0000
  C   C42       1.0  0.8644027817818057  0.8366965442641999  0.9662251502384296  1.0000
  C   C43       1.0  0.8644050918575418  0.6632942613886643  0.4662206290726872  1.0000
  C   C44       1.0  0.1355995980174569  0.16329505984082  0.03377896270637851  1.0000
  C   C45       1.0  0.16174301181354173  0.39584918372737854  0.3784273928823367  1.0000
  C   C46       1.0  0.8382552331448991  0.8958433620956329  0.12157535669734902  1.0000
  C   C47       1.0  0.8382582787980013  0.6041504533770877  0.6215697174291037  1.0000
  C   C48       1.0  0.1617471417677621  0.10415125438594695  0.8784273561613958  1.0000
  I   I1        1.0  0.4584809258272671  0.017379618483445807  0.15968363548865486  1.0000
  I   I2        1.0  0.5415120834714529  0.5173784958808697  0.3403128992753608  1.0000
  I   I3        1.0  0.5415193073573831  0.9826230310027813  0.8403155727603675  1.0000
  I   I4        1.0  0.4584849481157748  0.48263118248591763  0.6596842022540985  1.0000
  N   N1        1.0  0.5475519208028886  0.28638422704302263  0.9872705929965309  1.0000
  N   N2        1.0  0.4524491888991663  0.786387177164791  0.5127267623814902  1.0000
  N   N3        1.0  0.4524440484731329  0.7136154100628219  0.012727206371650403  1.0000
  N   N4        1.0  0.5475542385515129  0.2136235053308512  0.487272452466435  1.0000
  N   N5        1.0  0.9139215744563812  0.5478624529882341  0.14627951730528113  1.0000
  N   N6        1.0  0.08607890877762261  0.04786319210381862  0.3537254819789766  1.0000
  N   N7        1.0  0.0860765170024038  0.4521331676095741  0.8537161863220109  1.0000
  N   N8        1.0  0.9139170873719139  0.9521394573919226  0.6462800178781054  1.0000
  N   N9        1.0  0.9948905614863576  0.538601506842028  0.22505681803621516  1.0000
  N   N10       1.0  0.0051120514506593  0.03860102216741981  0.2749474708310515  1.0000
  N   N11       1.0  0.005109654597120501  0.4613981302584025  0.7749374899008219  1.0000
  N   N12       1.0  0.9948881988354472  0.9614026314521953  0.725056637728365  1.0000
  N   N13       1.0  0.8530456320054183  0.362766963875032  0.22161935497587146  1.0000
  N   N14       1.0  0.14694835845430282  0.8627657146304561  0.27838193297868946  1.0000
  N   N15       1.0  0.1469492725148811  0.6372326732308837  0.7783784421948143  1.0000
  N   N16       1.0  0.8530497574344765  0.13723593073483906  0.7216207710956797  1.0000
  N   N17       1.0  0.7945210595720624  0.24243554092926436  0.2522294931671851  1.0000
  N   N18       1.0  0.2054697757379671  0.7424321855573128  0.24777299641053224  1.0000
  N   N19       1.0  0.2054717227657648  0.7575661044322788  0.7477703997427911  1.0000
  N   N20       1.0  0.7945262179684819  0.2575704639374053  0.7522318034023173  1.0000
  N   N21       1.0  0.2217395737559471  0.3725786782589184  0.4626721069391664  1.0000
  N   N22       1.0  0.7782618720898  0.8725706097654967  0.03733061212588501  1.0000
  N   N23       1.0  0.7782638488097008  0.6274239712250422  0.5373257078138921  1.0000
  N   N24       1.0  0.22174263477753436  0.12742300259076705  0.9626728051712876  1.0000
