data_image0
_chemical_formula_structural       K8H40C40N16O40
_chemical_formula_sum              "K8 H40 C40 N16 O40"
_cell_length_a       6.4670342280010455
_cell_length_b       12.519586457002228
_cell_length_c       18.42625102500075
_cell_angle_alpha    90.00002649139311
_cell_angle_beta     90.00001893326596
_cell_angle_gamma    89.99993727307938

_space_group_name_H-M_alt    "P 1"
_space_group_IT_number       1

loop_
  _space_group_symop_operation_xyz
  'x, y, z'

loop_
  _atom_site_type_symbol
  _atom_site_label
  _atom_site_symmetry_multiplicity
  _atom_site_fract_x
  _atom_site_fract_y
  _atom_site_fract_z
  _atom_site_occupancy
  K   K1        1.0  0.857942850995009  0.8573956794677361  0.5519127776877326  1.0000
  K   K2        1.0  0.6420561208823373  0.3573943651346312  0.4480869006995294  1.0000
  K   K3        1.0  0.3579402613052097  0.14260557216125141  0.9480876369257133  1.0000
  K   K4        1.0  0.14205518311361937  0.6426050692032064  0.051913001951561503  1.0000
  K   K5        1.0  0.14205744976165846  0.14260386476637885  0.4480873809445853  1.0000
  K   K6        1.0  0.35794108726719287  0.6426043803517417  0.5519127152284968  1.0000
  K   K7        1.0  0.6420584931469974  0.8573947708219124  0.05191306441064111  1.0000
  K   K8        1.0  0.857946663945455  0.3573960725275143  0.9480876993850915  1.0000
  H   H1        1.0  0.5711361433864468  0.6208375796604814  0.4132220052767793  1.0000
  H   H2        1.0  0.9288556010283244  0.12083939365042803  0.5867786844170129  1.0000
  H   H3        1.0  0.07114043890352659  0.37916109581879465  0.0867789746075118  1.0000
  H   H4        1.0  0.4288591403721113  0.8791610193413181  0.9132211956668002  1.0000
  H   H5        1.0  0.42885642585201106  0.37916116582756854  0.586778696058964  1.0000
  H   H6        1.0  0.0711385145128887  0.8791601505854276  0.41322147421495004  1.0000
  H   H7        1.0  0.9288583155492702  0.6208384484157535  0.9132211840247211  1.0000
  H   H8        1.0  0.571141160385146  0.12083772614418112  0.0867784202614033  1.0000
  H   H9        1.0  0.5144158477200024  0.8502732319106345  0.2458418152478289  1.0000
  H   H10       1.0  0.9855846856348549  0.3502751282228971  0.7541589463169133  1.0000
  H   H11       1.0  0.0144161517608268  0.149727072970947  0.2541602435063055  1.0000
  H   H12       1.0  0.485585462700314  0.6497252528605415  0.7458403976019243  1.0000
  H   H13       1.0  0.48558599934162316  0.14972551357480063  0.7541588860884475  1.0000
  H   H14       1.0  0.014417161424560699  0.6497252147590233  0.24584066961163134  1.0000
  H   H15       1.0  0.9855856952976579  0.8502748675083891  0.7458410005344689  1.0000
  H   H16       1.0  0.514416384360544  0.3502734926243394  0.254158675622378  1.0000
  H   H17       1.0  0.515722788734159  0.5318130140651931  0.19297914034088856  1.0000
  H   H18       1.0  0.9842784231986315  0.0318141484400982  0.80702152146651  1.0000
  H   H19       1.0  0.0157240105753047  0.4681880888290593  0.30702183315608533  1.0000
  H   H20       1.0  0.48427692530593447  0.9681870321273466  0.6929783650057432  1.0000
  H   H21       1.0  0.4842790583263578  0.4681865301684881  0.8070210182915221  1.0000
  H   H22       1.0  0.015723423860443096  0.9681869932906297  0.19297917987014301  1.0000
  H   H23       1.0  0.9842778364826613  0.5318138516499006  0.6929783254767018  1.0000
  H   H24       1.0  0.5157233754496174  0.03181331085501431  0.3070212509227161  1.0000
  H   H25       1.0  0.31712912930328224  0.9859416151246452  0.5638386868887582  1.0000
  H   H26       1.0  0.1828702224442225  0.4859410684443475  0.4361615168343321  1.0000
  H   H27       1.0  0.8171307873579037  0.014058860711379904  0.9361611803162122  1.0000
  H   H28       1.0  0.6828689161029473  0.5140583429365365  0.06383839052139  1.0000
  H   H29       1.0  0.6828696251486689  0.014058727858334003  0.4361614717436026  1.0000
  H   H30       1.0  0.8171285320085743  0.5140584757902077  0.563838641797908  1.0000
  H   H31       1.0  0.1828695133976481  0.9859414822709811  0.0638384356122472  1.0000
  H   H32       1.0  0.3171298383487482  0.48594200004625804  0.9361612254069701  1.0000
  H   H33       1.0  0.3543394434490708  0.9036920614657404  0.5013235178349973  1.0000
  H   H34       1.0  0.1456585372521388  0.40369157837915987  0.49867611741945694  1.0000
  H   H35       1.0  0.8543394391604338  0.09630839344075075  0.9986763536591143  1.0000
  H   H36       1.0  0.645658542737884  0.5963086526803779  0.0013232429430730004  1.0000
  H   H37       1.0  0.645657764698754  0.09630828151748723  0.49867609809327723  1.0000
  H   H38       1.0  0.854338670895693  0.5963087646040678  0.5013234985088247  1.0000
  H   H39       1.0  0.14565931529210727  0.9036911507936198  0.0013232622691248003  1.0000
  H   H40       1.0  0.3543402117138116  0.40369169030241653  0.9986763729852943  1.0000
  C   C1        1.0  0.5383712713731937  0.8355755047530595  0.3906162449136161  1.0000
  C   C2        1.0  0.9616277469956529  0.3355773157385684  0.6093839693429857  1.0000
  C   C3        1.0  0.0383714069567489  0.1644239879055434  0.10938527389773609  1.0000
  C   C4        1.0  0.46162708357856264  0.6644238775689715  0.89061537181437  1.0000
  C   C5        1.0  0.4616259367765919  0.1644232407334983  0.6093839137184036  1.0000
  C   C6        1.0  0.03837100745604259  0.6644230272442256  0.39061564658538134  1.0000
  C   C7        1.0  0.9616273474954582  0.8355763550776203  0.8906154274386184  1.0000
  C   C8        1.0  0.5383716708739854  0.3355756666653989  0.10938424411386899  1.0000
  C   C9        1.0  0.5437124599546194  0.5573674022868998  0.30329024490129103  1.0000
  C   C10       1.0  0.9562825123119294  0.05736767837665721  0.6967098822064985  1.0000
  C   C11       1.0  0.04371517805861911  0.4426320873662988  0.19671018911790136  1.0000
  C   C12       1.0  0.4562858122757163  0.9426327191881115  0.8032900010388034  1.0000
  C   C13       1.0  0.4562862944976657  0.4426321419472785  0.6967088283229546  1.0000
  C   C14       1.0  0.04371314953314709  0.9426318658587648  0.30329027642555684  1.0000
  C   C15       1.0  0.9562851226977855  0.557367456867631  0.803289426810423  1.0000
  C   C16       1.0  0.5437144884800914  0.05736762379443411  0.1967101575936425  1.0000
  C   C17       1.0  0.550661485401747  0.6411880785044488  0.3564871891932385  1.0000
  C   C18       1.0  0.9493302156517273  0.1411883221997101  0.643513506875074  1.0000
  C   C19       1.0  0.0506658780249936  0.35881060849154517  0.14351433103492892  1.0000
  C   C20       1.0  0.4493352909149592  0.8588128780233152  0.856485832865076  1.0000
  C   C21       1.0  0.4493341764438483  0.3588114657313427  0.6435140548468042  1.0000
  C   C22       1.0  0.05066235358537339  0.8588112220364011  0.3564861090528098  1.0000
  C   C23       1.0  0.9493313301239467  0.6411889357434433  0.8564858275972116  1.0000
  C   C24       1.0  0.5506665561433479  0.14118826370685164  0.14351324035960292  1.0000
  C   C25       1.0  0.5337788189872583  0.7451931088067595  0.33527670436696877  1.0000
  C   C26       1.0  0.966220391968953  0.24519495497555968  0.6647234815774825  1.0000
  C   C27       1.0  0.0337803607130169  0.25480239269264626  0.16472535661846172  1.0000
  C   C28       1.0  0.4662194835444069  0.7548054370005419  0.8352764028131219  1.0000
  C   C29       1.0  0.4662199354661352  0.2548056366791799  0.6647229115611496  1.0000
  C   C30       1.0  0.033778362482742394  0.7548053880072345  0.3352761343508846  1.0000
  C   C31       1.0  0.9662199400433025  0.7451979502902688  0.8352758874219719  1.0000
  C   C32       1.0  0.5337808172131061  0.2451933084851419  0.16472375581907533  1.0000
  C   C33       1.0  0.4937589228226642  0.6947992400529018  0.20941604042662484  1.0000
  C   C34       1.0  0.0062456882016804  0.19480063209384474  0.7905824439851019  1.0000
  C   C35       1.0  0.9937598226108407  0.30519999645967744  0.2905855308774151  1.0000
  C   C36       1.0  0.5062454457009763  0.805200018607998  0.7094173873841428  1.0000
  C   C37       1.0  0.506246016844557  0.3052003041791735  0.7905819473899954  1.0000
  C   C38       1.0  0.9937607977679547  0.8052005096348297  0.20941608653584615  1.0000
  C   C39       1.0  0.006245117057844099  0.6948003465224843  0.7094173412752625  1.0000
  C   C40       1.0  0.4937579476639229  0.1947995256256192  0.2905838566563404  1.0000
  N   N1        1.0  0.5110310811565312  0.7712059307534748  0.2634737126846076  1.0000
  N   N2        1.0  0.9889711669790769  0.27120781312829934  0.736526481408504  1.0000
  N   N3        1.0  0.0110342926264337  0.22879357728253788  0.23652780297540948  1.0000
  N   N4        1.0  0.4889717922700001  0.728792566050359  0.7634728629006845  1.0000
  N   N5        1.0  0.4889723122087091  0.22879281473134236  0.7365264459477674  1.0000
  N   N6        1.0  0.011032226384202197  0.7287925298531874  0.2634731345201261  1.0000
  N   N7        1.0  0.9889721933442316  0.7712075644468827  0.7634728983615136  1.0000
  N   N8        1.0  0.5110331473985852  0.271206179433655  0.23652621032379534  1.0000
  N   N9        1.0  0.5170510194282514  0.5909595494927516  0.23244404131943958  1.0000
  N   N10       1.0  0.9829531590822143  0.09096065768089553  0.767556096311715  1.0000
  N   N11       1.0  0.0170507836133282  0.40903995515795094  0.2675569323303081  1.0000
  N   N12       1.0  0.48295027829967546  0.9090405236323632  0.732443790007693  1.0000
  N   N13       1.0  0.4829523739361292  0.4090399947404962  0.7675561173130634  1.0000
  N   N14       1.0  0.017050234280731  0.9090404840493921  0.2324446050250302  1.0000
  N   N15       1.0  0.9829526097504697  0.5909603878239055  0.7324437690063095  1.0000
  N   N16       1.0  0.5170500224558765  0.09095981934999745  0.2675558259207591  1.0000
  O   O1        1.0  0.5198064068472874  0.8088893474809568  0.4565010470701056  1.0000
  O   O2        1.0  0.9801895757783754  0.30888950556480677  0.5434986161226689  1.0000
  O   O3        1.0  0.019807969460124798  0.19111095436782932  0.043499926897489216  1.0000
  O   O4        1.0  0.480190464210132  0.6911108785530545  0.9565001844702865  1.0000
  O   O5        1.0  0.48018616238921646  0.1911109955037631  0.5434991115618999  1.0000
  O   O6        1.0  0.019807632370301993  0.6911100386699903  0.45650099980548486  1.0000
  O   O7        1.0  0.9801907849918264  0.8088893886151497  0.9565002317348716  1.0000
  O   O8        1.0  0.5198082902413076  0.3088894644295551  0.04349888875408681  1.0000
  O   O9        1.0  0.4589855870090672  0.7174405508302615  0.1451229853727725  1.0000
  O   O10       1.0  0.0410267072893689  0.21744356468403944  0.8548771342439991  1.0000
  O   O11       1.0  0.9589881422459926  0.28256030273777816  0.35487803921929384  1.0000
  O   O12       1.0  0.5410233595234145  0.7825578652033445  0.6451221584304252  1.0000
  O   O13       1.0  0.5410255378760737  0.28255739590377266  0.8548766305559283  1.0000
  O   O14       1.0  0.9589859638947829  0.7825591745403103  0.1451230243895409  1.0000
  O   O15       1.0  0.0410229826337059  0.7174432352356134  0.6451226621182757  1.0000
  O   O16       1.0  0.4589815801460163  0.21744008153224573  0.35487691479393396  1.0000
  O   O17       1.0  0.5621455815810492  0.9296448909205709  0.3664567073786387  1.0000
  O   O18       1.0  0.9378516900399844  0.42964673176663143  0.633542993640994  1.0000
  O   O19       1.0  0.062145940493543605  0.07035458836524101  0.13354427146920503  1.0000
  O   O20       1.0  0.4378527504863144  0.5703536761655172  0.8664563447756637  1.0000
  O   O21       1.0  0.4378516265693335  0.07035305581737111  0.6335429085492663  1.0000
  O   O22       1.0  0.06214551810784739  0.5703536112165964  0.36645662228728076  1.0000
  O   O23       1.0  0.9378528139578108  0.9296465533663538  0.8664564298672703  1.0000
  O   O24       1.0  0.5621475502709358  0.42964506931998875  0.13354327115253994  1.0000
  O   O25       1.0  0.5587627460406566  0.45963813632838685  0.31697125541150234  1.0000
  O   O26       1.0  0.9412360079771601  0.9596378957942946  0.6830295404112263  1.0000
  O   O27       1.0  0.0587606040307591  0.5403621436093361  0.18302972304638135  1.0000
  O   O28       1.0  0.4412366045517189  0.04036251023456571  0.8169703410995128  1.0000
  O   O29       1.0  0.44123600841129457  0.5403622066545921  0.6830289032208583  1.0000
  O   O30       1.0  0.0587596538675825  0.040362447189927805  0.3169717036289442  1.0000
  O   O31       1.0  0.9412381504217819  0.45963740062503433  0.8169698928818577  1.0000
  O   O32       1.0  0.5587621499002323  0.9596378327484135  0.18302981753284803  1.0000
  O   O33       1.0  0.24631925591395998  0.949670455027274  0.5230951748818883  1.0000
  O   O34       1.0  0.25368017311927815  0.4496706950715892  0.4769044747754379  1.0000
  O   O35       1.0  0.7463193289736265  0.05032926188980721  0.9769046841605873  1.0000
  O   O36       1.0  0.7536787508976275  0.5503294752286723  0.023095440742686407  1.0000
  O   O37       1.0  0.7536794985385808  0.0503290892070893  0.4769044410463508  1.0000
  O   O38       1.0  0.7463185813324172  0.5503296479112053  0.523095141152929  1.0000
  O   O39       1.0  0.2536794254769603  0.9496718798412263  0.023094389063906807  1.0000
  O   O40       1.0  0.24632000355432376  0.4496708677543069  0.9769047178896741  1.0000
