data_image0
_chemical_formula_structural       AlH33C45N6O6
_chemical_formula_sum              "Al1 H33 C45 N6 O6"
_cell_length_a       3.9288252861805613
_cell_length_b       23.54084234194092
_cell_length_c       23.534331595974386
_cell_angle_alpha    60.0501421772028
_cell_angle_beta     87.24187795430849
_cell_angle_gamma    87.27061438168823

_space_group_name_H-M_alt    "P 1"
_space_group_IT_number       1

loop_
  _space_group_symop_operation_xyz
  'x, y, z'

loop_
  _atom_site_type_symbol
  _atom_site_label
  _atom_site_symmetry_multiplicity
  _atom_site_fract_x
  _atom_site_fract_y
  _atom_site_fract_z
  _atom_site_occupancy
  Al  Al1       1.0  0.9797282100511137  0.49993197245608906  0.4999103799514443  1.0000
  H   H1        1.0  0.49669717042822  0.31929508553518815  0.6797274852032656  1.0000
  H   H2        1.0  0.5072241122387311  0.25535740857151973  0.8004329868156289  1.0000
  H   H3        1.0  0.837549878863008  0.16497124582348724  0.015948730125259714  1.0000
  H   H4        1.0  0.47571827862908106  0.8048551463444225  0.257965182885492  1.0000
  H   H5        1.0  0.23539267863989713  0.8946880510023973  0.23028899420039273  1.0000
  H   H6        1.0  0.22908949593378475  0.014372531928287902  0.16724974242211488  1.0000
  H   H7        1.0  0.50980251079784  0.10573622506972667  0.10547145685815447  1.0000
  H   H8        1.0  0.5378014541731986  0.678941404424769  0.4997783951979925  1.0000
  H   H9        1.0  0.5398802289283962  0.7994702148774023  0.44335555980651964  1.0000
  H   H10       1.0  0.8203629599789721  0.016038410178104798  0.3156787333220236  1.0000
  H   H11       1.0  0.5532201079579764  0.25774545950092426  0.43608405074109396  1.0000
  H   H12       1.0  0.2608334068641581  0.23326425419853788  0.3773163875775509  1.0000
  H   H13       1.0  0.239366213052115  0.16982777061867438  0.32083903382711293  1.0000
  H   H14       1.0  0.5288299662458653  0.10569829317149267  0.2880664292332042  1.0000
  H   H15       1.0  0.575133468976176  0.5000969707208752  0.31909621358723667  1.0000
  H   H16       1.0  0.5778298994994059  0.4431694705495345  0.255041828405318  1.0000
  H   H17       1.0  0.8653032033574347  0.3124445039055104  0.1634990177717199  1.0000
  H   H18       1.0  0.5037334082527279  0.43616966729440076  0.805528734155132  1.0000
  H   H19       1.0  0.20369257905563387  0.3759771076555793  0.8951715760361977  1.0000
  H   H20       1.0  0.2024869430914221  0.3192388770432116  0.015604841567650896  1.0000
  H   H21       1.0  0.5313913369074824  0.2880495948814497  0.10550708418061562  1.0000
  H   H22       1.0  0.489318258285145  0.33159529215471645  0.5387350558835633  1.0000
  H   H23       1.0  0.5981988781847747  0.26264367615409157  0.5355478082210039  1.0000
  H   H24       1.0  0.4580927303114349  0.5388237787491617  0.629669424588833  1.0000
  H   H25       1.0  0.5676580423218525  0.535116684708967  0.6999775219614718  1.0000
  H   H26       1.0  0.3775031371991488  0.6302075566736887  0.33245713194973797  1.0000
  H   H27       1.0  0.48524693964301946  0.700419613534244  0.26200150680731565  1.0000
  H   H28       1.0  0.0261956785122521  0.4019607561255753  0.24312836186977896  1.0000
  H   H29       1.0  0.12773546269924904  0.38662891485044076  0.18208650206160823  1.0000
  H   H30       1.0  0.969838562804426  0.24511426190736063  0.8437604056699824  1.0000
  H   H31       1.0  0.08049980921555289  0.18390682420028528  0.9177740569764551  1.0000
  H   H32       1.0  0.9740477731367319  0.8457592069349005  0.40519574804821423  1.0000
  H   H33       1.0  0.057439339887345335  0.9205337398042914  0.39177062058691076  1.0000
  C   C1        1.0  0.4676519772648361  0.4486171340324031  0.6016183039347426  1.0000
  C   C2        1.0  0.5107475363245156  0.449717793779115  0.44832905573667137  1.0000
  C   C3        1.0  0.46861974047935456  0.6013949166695695  0.4497892896137542  1.0000
  C   C4        1.0  0.49235665084653124  0.34456264039151546  0.7079909025115753  1.0000
  C   C5        1.0  0.5039084772594505  0.30866694619113116  0.7758993475914265  1.0000
  C   C6        1.0  0.700931654094745  0.24329773600168633  0.9207966748997904  1.0000
  C   C7        1.0  0.6902322006814925  0.21082613662660782  0.9895869400060987  1.0000
  C   C8        1.0  0.43810056119213653  0.7098926447245046  0.3435732930743781  1.0000
  C   C9        1.0  0.47935138134081945  0.7780523947173562  0.31144687427623546  1.0000
  C   C10       1.0  0.37663571267781026  0.9210133699762151  0.24824921242404216  1.0000
  C   C11       1.0  0.3716997584570477  0.9889699280756685  0.2122658700383935  1.0000
  C   C12       1.0  0.46947689881385907  0.41306847387617274  0.6743325312699965  1.0000
  C   C13       1.0  0.5104242391771691  0.34109337172652227  0.8127022335996159  1.0000
  C   C14       1.0  0.5233301544641265  0.3046019150079927  0.8851186327449622  1.0000
  C   C15       1.0  0.519196983304738  0.23719830465248037  0.024896846794547355  1.0000
  C   C16       1.0  0.5184252916451866  0.20103141850968592  0.09731823739225828  1.0000
  C   C17       1.0  0.5149711730179688  0.13233922118147487  0.13231223641811596  1.0000
  C   C18       1.0  0.5167238434841719  0.7073805360470969  0.4466032242010484  1.0000
  C   C19       1.0  0.5275865415803339  0.7751782011630792  0.4145394272864208  1.0000
  C   C20       1.0  0.6992309185277674  0.9208101939809338  0.3331716615768767  1.0000
  C   C21       1.0  0.6833893023035241  0.9896090755010076  0.29718464481327794  1.0000
  C   C22       1.0  0.5151320732486937  0.3432457177298786  0.4464748069640548  1.0000
  C   C23       1.0  0.5492907760718353  0.31126239100984765  0.40960132923583364  1.0000
  C   C24       1.0  0.40523330254018924  0.24966163316423715  0.3312815506399502  1.0000
  C   C25       1.0  0.3924541702704189  0.21353162895699995  0.2995908046223548  1.0000
  C   C26       1.0  0.47065620639273203  0.6736886916249104  0.4126856477806056  1.0000
  C   C27       1.0  0.5197498606967412  0.8122202774428189  0.3451943500041137  1.0000
  C   C28       1.0  0.5363287578038151  0.8845526129379593  0.30906902749586623  1.0000
  C   C29       1.0  0.5236481686366827  0.024748852161017996  0.2370486730566412  1.0000
  C   C30       1.0  0.5192275332509552  0.09716866985676378  0.20100201646574328  1.0000
  C   C31       1.0  0.5261035223271975  0.13225117956420718  0.23462671550691278  1.0000
  C   C32       1.0  0.5644153516541832  0.4467420601325855  0.34429357985971615  1.0000
  C   C33       1.0  0.5743788595574414  0.41452397730163437  0.30837129870112523  1.0000
  C   C34       1.0  0.74854990617559  0.3313854289433421  0.24259645037842859  1.0000
  C   C35       1.0  0.7251562932890819  0.29539163011023817  0.21012312450545778  1.0000
  C   C36       1.0  0.4622479773084152  0.446803356267516  0.7100912509838152  1.0000
  C   C37       1.0  0.4924374015703066  0.40982236402064115  0.7784823975525016  1.0000
  C   C38       1.0  0.3525597405550369  0.33038689697796997  0.9216092085045061  1.0000
  C   C39       1.0  0.3512415274143732  0.29856942589124447  0.9896407699265664  1.0000
  C   C40       1.0  0.5306408119809516  0.41256966180502996  0.4127445161857749  1.0000
  C   C41       1.0  0.5729423740752749  0.34526948274793756  0.3408718298830493  1.0000
  C   C42       1.0  0.5787289043995612  0.30896816386479026  0.3046307250377041  1.0000
  C   C43       1.0  0.5506045111915154  0.23678119626587343  0.2373254122331047  1.0000
  C   C44       1.0  0.5330597085212146  0.20086487198707903  0.20106946028322875  1.0000
  C   C45       1.0  0.5269102500425262  0.23460863479687083  0.1323637774985044  1.0000
  N   N1        1.0  0.4710678652254003  0.3066219982615834  0.5141914706091341  1.0000
  N   N2        1.0  0.43121057835011084  0.5148357800227714  0.679380777669948  1.0000
  N   N3        1.0  0.3740390752408301  0.6800123158620079  0.3074432194888459  1.0000
  N   N4        1.0  0.9363805447957174  0.38843200999514943  0.2118848889214461  1.0000
  N   N5        1.0  0.8856549852171722  0.21333689694746738  0.8902249446863022  1.0000
  N   N6        1.0  0.8747234887992901  0.8913441332320958  0.39173334381975844  1.0000
  O   O1        1.0  0.24352392976648207  0.5723407626087462  0.43634736718649947  1.0000
  O   O2        1.0  0.22563661954376354  0.4905840254031516  0.573102254162535  1.0000
  O   O3        1.0  0.2673372689638497  0.43660540410218096  0.4910477006379494  1.0000
  O   O4        1.0  0.6928445949371137  0.5710274293835907  0.49359329138722774  1.0000
  O   O5        1.0  0.7346844851937604  0.4926764817651658  0.43491428130462834  1.0000
  O   O6        1.0  0.7096077233439002  0.43531169393421726  0.5713780465100766  1.0000
