data_image0
_chemical_formula_structural       Zn8H48C108O26
_chemical_formula_sum              "Zn8 H48 C108 O26"
_cell_length_a       24.42261246953414
_cell_length_b       24.42261343759384
_cell_length_c       24.422626213820017
_cell_angle_alpha    59.99990697626344
_cell_angle_beta     59.99991232653757
_cell_angle_gamma    59.9998936020538

_space_group_name_H-M_alt    "P 1"
_space_group_IT_number       1

loop_
  _space_group_symop_operation_xyz
  'x, y, z'

loop_
  _atom_site_type_symbol
  _atom_site_label
  _atom_site_symmetry_multiplicity
  _atom_site_fract_x
  _atom_site_fract_y
  _atom_site_fract_z
  _atom_site_occupancy
  Zn  Zn1       1.0  0.34839712461568695  0.2172004242056929  0.2172002980050536  1.0000
  Zn  Zn2       1.0  0.21720022691552296  0.3483976576381734  0.21720045785055214  1.0000
  Zn  Zn3       1.0  0.21720052995513586  0.21720047765536074  0.34839730118036266  1.0000
  Zn  Zn4       1.0  0.2172023686172935  0.21720232952145577  0.2172021069340389  1.0000
  Zn  Zn5       1.0  0.7827996888683445  0.6516028970628014  0.7827993718000954  1.0000
  Zn  Zn6       1.0  0.6516030334655624  0.7827995538781702  0.782799364485939  1.0000
  Zn  Zn7       1.0  0.782799558885863  0.7827994311882022  0.651603001270452  1.0000
  Zn  Zn8       1.0  0.782797789463949  0.7827976485624074  0.7827975555569465  1.0000
  H   H1        1.0  0.31387240239175895  0.48951805860372116  0.0983046818843505  1.0000
  H   H2        1.0  0.3246059735127175  0.603791906271489  0.03580117671125299  1.0000
  H   H3        1.0  0.48951809942762736  0.31387235967669364  0.09830469167653184  1.0000
  H   H4        1.0  0.6037919452071988  0.3246059315710425  0.03580119227575546  1.0000
  H   H5        1.0  0.09830502711381685  0.0983049877235302  0.3138719178508893  1.0000
  H   H6        1.0  0.03580123529355466  0.0358011997828029  0.3246058654308612  1.0000
  H   H7        1.0  0.0983046983882829  0.09830464132021889  0.48951773111939195  1.0000
  H   H8        1.0  0.035800836907895976  0.03580077329867488  0.6037912609134465  1.0000
  H   H9        1.0  0.09830487999792582  0.4895183034996009  0.3138723959352347  1.0000
  H   H10       1.0  0.03580085077628336  0.6037917089803881  0.32460640975396154  1.0000
  H   H11       1.0  0.09830508230205476  0.31387279711351107  0.4895176550158595  1.0000
  H   H12       1.0  0.0358016274247106  0.3246056764954303  0.6037915940616472  1.0000
  H   H13       1.0  0.4895176403763628  0.09830494766036676  0.09830510209940264  1.0000
  H   H14       1.0  0.6037914949073908  0.03580054967672201  0.035801499087405486  1.0000
  H   H15       1.0  0.3138720708101487  0.0983050830446075  0.09830484375981288  1.0000
  H   H16       1.0  0.3246059485727314  0.035801806531161176  0.0358006323881241  1.0000
  H   H17       1.0  0.09830498298300222  0.48951760926587434  0.0983050802894567  1.0000
  H   H18       1.0  0.03580074887430124  0.603791636145054  0.035801634581822825  1.0000
  H   H19       1.0  0.09830511045265665  0.3138720457230875  0.09830483174204122  1.0000
  H   H20       1.0  0.03580141653149831  0.3246063416819283  0.03580061628738921  1.0000
  H   H21       1.0  0.31387204855679585  0.0983050214177723  0.48951797267411484  1.0000
  H   H22       1.0  0.32460591716857584  0.03580171796177461  0.6037917773220371  1.0000
  H   H23       1.0  0.4895181891459116  0.09830465581972446  0.31387225058554685  1.0000
  H   H24       1.0  0.6037913545119977  0.035801199129174684  0.32460644141919914  1.0000
  H   H25       1.0  0.5104820586536148  0.6861276184071697  0.9016949708144609  1.0000
  H   H26       1.0  0.3962083107936819  0.6753941444323672  0.9641992773347425  1.0000
  H   H27       1.0  0.6861277556894834  0.510481919480142  0.9016949806066349  1.0000
  H   H28       1.0  0.6753941153282809  0.3962080025720665  0.9641991257395687  1.0000
  H   H29       1.0  0.9016953673675516  0.9016952267604879  0.6861272718399576  1.0000
  H   H30       1.0  0.9641989227876877  0.9641987783010604  0.6753937970601313  1.0000
  H   H31       1.0  0.9016950561329511  0.9016949332036358  0.5104822370120631  1.0000
  H   H32       1.0  0.9641989868535888  0.9641988704654876  0.39620806725817903  1.0000
  H   H33       1.0  0.5104817325352045  0.9016950858639843  0.6861278847055913  1.0000
  H   H34       1.0  0.39620832487174334  0.9641991191716457  0.675393861031594  1.0000
  H   H35       1.0  0.68612746366707  0.901695129723194  0.510482162616995  1.0000
  H   H36       1.0  0.6753939293750475  0.9641987674988993  0.39620869228843236  1.0000
  H   H37       1.0  0.9016951058579964  0.5104822995776885  0.9016952221613578  1.0000
  H   H38       1.0  0.964199576366823  0.39620850909866323  0.9641981950688461  1.0000
  H   H39       1.0  0.9016948112284596  0.6861276959606212  0.901695303549097  1.0000
  H   H40       1.0  0.964198499252376  0.6753942130190392  0.9641992133632583  1.0000
  H   H41       1.0  0.5104820390073858  0.9016953706404535  0.9016952003513907  1.0000
  H   H42       1.0  0.39620866317385167  0.9641994284071345  0.9641981634035872  1.0000
  H   H43       1.0  0.6861278508709673  0.9016946586391013  0.9016952915313252  1.0000
  H   H44       1.0  0.6753937308110096  0.964198511769659  0.9641996700626689  1.0000
  H   H45       1.0  0.9016945970816864  0.6861275211873092  0.5104826474349337  1.0000
  H   H46       1.0  0.9641988708735452  0.6753938228908677  0.39620870838919586  1.0000
  H   H47       1.0  0.9016947993858155  0.5104820148012194  0.6861279065155655  1.0000
  H   H48       1.0  0.9641992380647154  0.3962081998631674  0.6753938926968601  1.0000
  C   C1        1.0  0.368404775018547  0.46792495747719437  0.08183550661991028  1.0000
  C   C2        1.0  0.4079672254087966  0.509500300601239  0.04126691127255805  1.0000
  C   C3        1.0  0.3791737563641389  0.5813080230476331  0.019759611241028194  1.0000
  C   C4        1.0  0.4679249983602958  0.3684047330639188  0.0818355121681194  1.0000
  C   C5        1.0  0.5094995275924886  0.4079671902043457  0.0412672225734313  1.0000
  C   C6        1.0  0.5813080620566212  0.37917371517879417  0.019759622509930474  1.0000
  C   C7        1.0  0.08183573317542435  0.08183568960364336  0.3684042002967374  1.0000
  C   C8        1.0  0.041266158788936  0.04126611445466471  0.40796718114279434  1.0000
  C   C9        1.0  0.01975961581449332  0.01975957608480879  0.3791729250288469  1.0000
  C   C10       1.0  0.08183538940674856  0.0818353358188162  0.467924472085123  1.0000
  C   C11       1.0  0.04126605839314836  0.041266003840114356  0.5095004058624467  1.0000
  C   C12       1.0  0.019759461725755035  0.019759401652329676  0.5813075323900776  1.0000
  C   C13       1.0  0.08183547601324648  0.4679249474363372  0.3684042278753664  1.0000
  C   C14       1.0  0.04126632238799015  0.5095002855551557  0.40796721741403996  1.0000
  C   C15       1.0  0.01975936630388727  0.5813078200801912  0.3791735945378747  1.0000
  C   C16       1.0  0.08183589855674009  0.36840432112025207  0.467924406150324  1.0000
  C   C17       1.0  0.0412664260742802  0.40796726730361127  0.5095001059659835  1.0000
  C   C18       1.0  0.019759729024059494  0.37917304478143166  0.5813079553284694  1.0000
  C   C19       1.0  0.4679245584505407  0.08183581700278343  0.08183493814308919  1.0000
  C   C20       1.0  0.5095001055118614  0.041266872341452696  0.041265631269311605  1.0000
  C   C21       1.0  0.5813078006555656  0.019759259032433363  0.019759505212029186  1.0000
  C   C22       1.0  0.36840446146084105  0.08183512892463797  0.08183561752206006  1.0000
  C   C23       1.0  0.40796730410711746  0.041265552883643905  0.041266707841657514  1.0000
  C   C24       1.0  0.3791729564573671  0.01975954854935218  0.01975972017258699  1.0000
  C   C25       1.0  0.08183584913003719  0.46792453048027477  0.08183491661879569  1.0000
  C   C26       1.0  0.04126690086778232  0.5095000820269533  0.04126560516549919  1.0000
  C   C27       1.0  0.01975928789237004  0.5813077778417649  0.019759473905921313  1.0000
  C   C28       1.0  0.08183580242494762  0.3684042638462656  0.0818351287458157  1.0000
  C   C29       1.0  0.0412662226923571  0.40796711104691497  0.04126621459806047  1.0000
  C   C30       1.0  0.01975980470128032  0.3791731769754847  0.019759227335292482  1.0000
  C   C31       1.0  0.36840438453550195  0.08183583205603642  0.4679244221264015  1.0000
  C   C32       1.0  0.40796692497465153  0.04126676445500979  0.5095001264093851  1.0000
  C   C33       1.0  0.37917311718027236  0.019759652755453792  0.5813079753656255  1.0000
  C   C34       1.0  0.46792460068824937  0.08183501148432983  0.36840455504017205  1.0000
  C   C35       1.0  0.5095003459465772  0.04126625695514007  0.407967243517902  1.0000
  C   C36       1.0  0.5813078790670829  0.019759301270859526  0.3791736258439755  1.0000
  C   C37       1.0  0.5320752576405922  0.631595342939491  0.9181649574423786  1.0000
  C   C38       1.0  0.49049984615088954  0.5920328224560192  0.9587341926373298  1.0000
  C   C39       1.0  0.4186919516468919  0.6208269374417268  0.9802410142602227  1.0000
  C   C40       1.0  0.6315954809823339  0.5320751185262154  0.9181649629905877  1.0000
  C   C41       1.0  0.5920329613518475  0.49049970616187005  0.9587341982977621  1.0000
  C   C42       1.0  0.6208266667966243  0.4186922201156306  0.9802410255291533  1.0000
  C   C43       1.0  0.9181644249058178  0.9181642884802199  0.6315954621942551  1.0000
  C   C44       1.0  0.9587340051895552  0.9587330506119328  0.5920327869886891  1.0000
  C   C45       1.0  0.9802403751068667  0.9802402348392008  0.6208265703024622  1.0000
  C   C46       1.0  0.9181643651144852  0.9181642387050457  0.5320754960463319  1.0000
  C   C47       1.0  0.9587341055853426  0.9587331612264904  0.49049956226903646  1.0000
  C   C48       1.0  0.9802405291956047  0.9802404092716799  0.4186919629412316  1.0000
  C   C49       1.0  0.532074917432858  0.9181643266393706  0.6315958858914287  1.0000
  C   C50       1.0  0.4904995757345459  0.9587334847285689  0.5920328917732364  1.0000
  C   C51       1.0  0.4186922097739155  0.9802406075727033  0.6208266766068391  1.0000
  C   C52       1.0  0.631595531248365  0.9181647226449385  0.5320754075242462  1.0000
  C   C53       1.0  0.5920327485118477  0.9587343668630763  0.49049987040091714  1.0000
  C   C54       1.0  0.6208269657634843  0.9802410691053677  0.41869202144470546  1.0000
  C   C55       1.0  0.9181640725510859  0.532075211203434  0.9181652186723352  1.0000
  C   C56       1.0  0.9587332572134598  0.4904998960569099  0.9587340573254863  1.0000
  C   C57       1.0  0.9802406337887533  0.41869196384194374  0.9802406613852098  1.0000
  C   C58       1.0  0.9181650015136711  0.6315955411804878  0.9181640609450528  1.0000
  C   C59       1.0  0.9587341717890114  0.5920331034371028  0.9587329750927864  1.0000
  C   C60       1.0  0.9802403533799618  0.6208268011083785  0.9802404351557001  1.0000
  C   C61       1.0  0.5320751901734438  0.918164570538337  0.9181647243478753  1.0000
  C   C62       1.0  0.4905000525693804  0.9587331057424037  0.958734031221674  1.0000
  C   C63       1.0  0.4186921210255578  0.9802404826512756  0.9802406300791091  1.0000
  C   C64       1.0  0.631595696620401  0.9181648491592252  0.9181640449689255  1.0000
  C   C65       1.0  0.5920328539741246  0.9587344252002196  0.9587329546493351  1.0000
  C   C66       1.0  0.6208265557664987  0.9802406025916142  0.980240415118523  1.0000
  C   C67       1.0  0.918164836141635  0.6315954146662006  0.5320754235003662  1.0000
  C   C68       1.0  0.9587344757839842  0.5920326356426954  0.49049989084439005  1.0000
  C   C69       1.0  0.9802411728341976  0.6208268581648753  0.41869204148190425  1.0000
  C   C70       1.0  0.9181640362106196  0.532075203704629  0.6315959074157433  1.0000
  C   C71       1.0  0.9587335992931258  0.4904994561285531  0.5920329178770983  1.0000
  C   C72       1.0  0.9802407225371111  0.4186920887633719  0.6208267079129399  1.0000
  C   C73       1.0  0.3980625926104508  0.3980625507635763  0.10193778670861063  1.0000
  C   C74       1.0  0.35479745821944414  0.35479741545137944  0.1452029038663767  1.0000
  C   C75       1.0  0.4794323859568479  0.4794323458424044  0.02056877976283299  1.0000
  C   C76       1.0  0.10193761896993445  0.10193757081805191  0.3980625316764801  1.0000
  C   C77       1.0  0.14520234980093252  0.14520230257024738  0.3547977201591763  1.0000
  C   C78       1.0  0.02056799868066867  0.020567129881818934  0.4794320114224248  1.0000
  C   C79       1.0  0.10193762115735437  0.39806278113069027  0.39806243860522267  1.0000
  C   C80       1.0  0.14520238318851839  0.35479776453966855  0.35479756668148343  1.0000
  C   C81       1.0  0.020567645966309667  0.4794324030254415  0.47943232140693226  1.0000
  C   C82       1.0  0.3980622502060171  0.10193781914850315  0.1019372398200105  1.0000
  C   C83       1.0  0.35479748817485296  0.14520283573952494  0.14520211174375666  1.0000
  C   C84       1.0  0.47943239845419316  0.020567551396339794  0.02056782981847497  1.0000
  C   C85       1.0  0.10193744138305752  0.3980626311598101  0.10193722331117529  1.0000
  C   C86       1.0  0.14520246186263816  0.3547978643084305  0.145202100058917  1.0000
  C   C87       1.0  0.020568221632238686  0.47943220595912084  0.020567331436822704  1.0000
  C   C88       1.0  0.3980626722776819  0.10193739250227195  0.39806228795441007  1.0000
  C   C89       1.0  0.35479748463822597  0.14520199219379742  0.3547972440469849  1.0000
  C   C90       1.0  0.47943205918839027  0.020567984862815136  0.47943234698843906  1.0000
  C   C91       1.0  0.6019377326306736  0.6019375944801337  0.8980620429420583  1.0000
  C   C92       1.0  0.6452026306215544  0.6452024933921761  0.8547973985844379  1.0000
  C   C93       1.0  0.5205677315635526  0.5205675916804109  0.9794329697673162  1.0000
  C   C94       1.0  0.8980623027111891  0.8980621708656501  0.6019376036146583  1.0000
  C   C95       1.0  0.8547976411204273  0.8547975083537622  0.645201775172133  1.0000
  C   C96       1.0  0.979432643995324  0.9794316949678216  0.5205673167492507  1.0000
  C   C97       1.0  0.6019372494034342  0.8980623491814369  0.6019378473367284  1.0000
  C   C98       1.0  0.6452022698830147  0.8547975823300573  0.6452027240844699  1.0000
  C   C99       1.0  0.5205676201953581  0.979432333438005  0.5205679554623545  1.0000
  C   C100      1.0  0.8980627166981845  0.6019373469240534  0.8980624391798174  1.0000
  C   C101      1.0  0.8547976962186039  0.6452021137754329  0.8547975624320754  1.0000
  C   C102      1.0  0.9794325130661434  0.520567529827332  0.9794324982138674  1.0000
  C   C103      1.0  0.6019374984179748  0.8980625683926177  0.8980624226709539  1.0000
  C   C104      1.0  0.6452022604491319  0.854797551801596  0.8547975507472144  1.0000
  C   C105      1.0  0.5205676903868124  0.9794323574472227  0.9794324726323395  1.0000
  C   C106      1.0  0.8980620582263941  0.6019375371701299  0.6019378638455705  1.0000
  C   C107      1.0  0.8547977056524869  0.6452021443038944  0.6452027357693311  1.0000
  C   C108      1.0  0.979432442874689  0.5205675058181211  0.5205679810438825  1.0000
  O   O1        1.0  0.2500006418899546  0.25000059689052273  0.25000034069167043  1.0000
  O   O2        1.0  0.7499995161912877  0.7499993811933408  0.749999321799315  1.0000
  O   O3        1.0  0.3846975365664633  0.29141166574287064  0.16194567789936812  1.0000
  O   O4        1.0  0.2914117093696119  0.3846974939441239  0.161945672698721  1.0000
  O   O5        1.0  0.16194485664843938  0.16194480507981274  0.3846987033653092  1.0000
  O   O6        1.0  0.1619457785357596  0.16194573635584658  0.2914121683668967  1.0000
  O   O7        1.0  0.16194516917853014  0.29141222113334186  0.384697422806525  1.0000
  O   O8        1.0  0.16194436910716092  0.38469807336301176  0.29141189306903925  1.0000
  O   O9        1.0  0.29141196556393817  0.16194564153177274  0.1619456136771689  1.0000
  O   O10       1.0  0.38469847527723294  0.16194550093040752  0.1619439544976018  1.0000
  O   O11       1.0  0.16194567651530176  0.29141193197435905  0.16194560645947578  1.0000
  O   O12       1.0  0.16194530371711827  0.38469820208860733  0.16194441487935768  1.0000
  O   O13       1.0  0.3846976275992659  0.16194300239332182  0.29141170964891927  1.0000
  O   O14       1.0  0.2914118676844168  0.16194552123349837  0.38469743002423934  1.0000
  O   O15       1.0  0.7085883102311427  0.6153023456591383  0.8380552697119228  1.0000
  O   O16       1.0  0.615302315874409  0.7085880067005375  0.8380550973515922  1.0000
  O   O17       1.0  0.8380550650326837  0.8380549366038956  0.615301431925829  1.0000
  O   O18       1.0  0.8380541431453564  0.8380540053278619  0.7085879669242418  1.0000
  O   O19       1.0  0.7085878116993244  0.8380547970673217  0.615302872426554  1.0000
  O   O20       1.0  0.6153021328192168  0.8380557591132741  0.7085885641230265  1.0000
  O   O21       1.0  0.8380544815659405  0.7085880461095043  0.83805405603151  1.0000
  O   O22       1.0  0.8380550274212551  0.615301130137844  0.838055720411802  1.0000
  O   O23       1.0  0.708588192517304  0.8380543365520904  0.8380540488138166  1.0000
  O   O24       1.0  0.6153012733467518  0.8380548866107131  0.8380557079933698  1.0000
  O   O25       1.0  0.8380558868937199  0.6153020026404051  0.7085885765414589  1.0000
  O   O26       1.0  0.838054510205218  0.7085880971674711  0.6153028796442683  1.0000
