data_image0
_chemical_formula_structural       Fe2H28C32N4O12
_chemical_formula_sum              "Fe2 H28 C32 N4 O12"
_cell_length_a       7.849175771766829
_cell_length_b       11.615331169133567
_cell_length_c       12.275370613023808
_cell_angle_alpha    118.37894152523155
_cell_angle_beta     100.1819352365263
_cell_angle_gamma    89.9038888199032

_space_group_name_H-M_alt    "P 1"
_space_group_IT_number       1

loop_
  _space_group_symop_operation_xyz
  'x, y, z'

loop_
  _atom_site_type_symbol
  _atom_site_label
  _atom_site_symmetry_multiplicity
  _atom_site_fract_x
  _atom_site_fract_y
  _atom_site_fract_z
  _atom_site_occupancy
  Fe  Fe1       1.0  0.999997719099781  0.9999996151663667  0.4999994296665876  1.0000
  Fe  Fe2       1.0  0.5000006654180069  0.5000014106876663  0.5000015322705879  1.0000
  H   H1        1.0  0.8345739869667667  0.9030731152830072  0.6118941037997773  1.0000
  H   H2        1.0  0.6658542365314444  0.29074516156424585  0.38851460033441754  1.0000
  H   H3        1.0  0.16542295155625206  0.09692569117685683  0.3881034722533557  1.0000
  H   H4        1.0  0.33414801258869187  0.7092546726452014  0.6114856436860167  1.0000
  H   H5        1.0  0.021894420062857065  0.846699229199338  0.6073716041138867  1.0000
  H   H6        1.0  0.4780955074649995  0.23870766430797377  0.392518627825723  1.0000
  H   H7        1.0  0.9781039349608989  0.15330056126426683  0.3926265562846042  1.0000
  H   H8        1.0  0.5219080414259877  0.7612921911607273  0.6074825854244424  1.0000
  H   H9        1.0  0.7716581797289734  0.9463612996745143  0.26217756092390243  1.0000
  H   H10       1.0  0.7259767223728344  0.6864085964852578  0.7400728072367927  1.0000
  H   H11       1.0  0.22834017007859583  0.0536384707571429  0.737819775407317  1.0000
  H   H12       1.0  0.27402592388257574  0.3135943062451859  0.2599336987359422  1.0000
  H   H13       1.0  0.5836815485172834  0.7589684731352123  0.08278886531907406  1.0000
  H   H14       1.0  0.9131215977759838  0.6784237038912624  0.9195893025509111  1.0000
  H   H15       1.0  0.4163180801964116  0.2410312384279081  0.9172061439727982  1.0000
  H   H16       1.0  0.0868768094095813  0.3215762868918405  0.08041709852029305  1.0000
  H   H17       1.0  0.7987148254200633  0.5153641422767022  0.24187972860440257  1.0000
  H   H18       1.0  0.7045404830934812  0.2733387980600029  0.7560821815890436  1.0000
  H   H19       1.0  0.20127952399361254  0.48463466172853514  0.7581175571238035  1.0000
  H   H20       1.0  0.2954602223636654  0.7266590493373074  0.24391621483587042  1.0000
  H   H21       1.0  0.9851380617614821  0.712733384242668  0.4113397971830467  1.0000
  H   H22       1.0  0.5174658425178292  0.30163320141611655  0.5874391413843513  1.0000
  H   H23       1.0  0.014857465476978908  0.28726445824539587  0.5886580185920068  1.0000
  H   H24       1.0  0.48253899049546334  0.6983666152159957  0.4125605688937456  1.0000
  H   H25       1.0  0.5756127195833473  0.4138330272010153  0.05779079653636644  1.0000
  H   H26       1.0  0.9263887108451385  0.35517152267923546  0.9394668779261792  1.0000
  H   H27       1.0  0.4243830306825202  0.5861667007121198  0.9422046013353764  1.0000
  H   H28       1.0  0.0736091876914458  0.6448244568703317  0.060534470144375595  1.0000
  C   C1        1.0  0.772145738601388  0.8490705624736354  0.25412998303927764  1.0000
  C   C2        1.0  0.7264458418920868  0.5966993710545198  0.7472723961882864  1.0000
  C   C3        1.0  0.22785131665150968  0.15092920673071572  0.7458672081294749  1.0000
  C   C4        1.0  0.27355538786258654  0.4033025476721762  0.2527335254390836  1.0000
  C   C5        1.0  0.667382794159195  0.7430511429455537  0.15433548250340592  1.0000
  C   C6        1.0  0.8308565738452174  0.5904606804390086  0.8471305141378735  1.0000
  C   C7        1.0  0.3326154284861289  0.2569476246777214  0.8456605905776513  1.0000
  C   C8        1.0  0.16914300073278093  0.4095383087630255  0.15287476884563497  1.0000
  C   C9        1.0  0.6688027533448063  0.6179286681432787  0.14682498733823493  1.0000
  C   C10       1.0  0.8313163955559303  0.47216012508368993  0.8533901033374393  1.0000
  C   C11       1.0  0.33119288019117477  0.3820700970253696  0.8531707954178886  1.0000
  C   C12       1.0  0.16868329575194  0.5278398268628237  0.14661479476168895  1.0000
  C   C13       1.0  0.787366848059058  0.609251812130026  0.2425772071950689  1.0000
  C   C14       1.0  0.714345141485836  0.36717681847775213  0.7565653286807432  1.0000
  C   C15       1.0  0.21262879069310262  0.39074697307057005  0.7574193996283329  1.0000
  C   C16       1.0  0.285655818295801  0.6328230345363296  0.24343559424448816  1.0000
  C   C17       1.0  0.8907695706411755  0.7190641293632896  0.3386701573786156  1.0000
  C   C18       1.0  0.6107126201464153  0.3810441768428063  0.6608381587378461  1.0000
  C   C19       1.0  0.10922349465018749  0.280934713478537  0.6613286313216592  1.0000
  C   C20       1.0  0.389289756135959  0.6189566601750158  0.33916334853275043  1.0000
  C   C21       1.0  0.6232977593826021  0.03507526010778151  0.500770636826303  1.0000
  C   C22       1.0  0.8767193086394724  0.5344889855581061  0.4993582792690746  1.0000
  C   C23       1.0  0.3767021445203156  0.9649265371999081  0.49923019523497925  1.0000
  C   C24       1.0  0.1232844841436389  0.46551283546346417  0.5006438123468726  1.0000
  C   C25       1.0  0.5572088466277235  0.9455323709242126  0.541482557533236  1.0000
  C   C26       1.0  0.942887494916043  0.40396951231704054  0.45853573240871986  1.0000
  C   C27       1.0  0.4427922350999863  0.05446846486630361  0.4585188045748937  1.0000
  C   C28       1.0  0.05711771436780573  0.5960332927082777  0.5414669435525853  1.0000
  C   C29       1.0  0.559463087361685  0.5027182842308876  0.048827212431653916  1.0000
  C   C30       1.0  0.9411945929335486  0.453969560875265  0.9504811696794562  1.0000
  C   C31       1.0  0.440532535741937  0.4972804408738655  0.9511669221899269  1.0000
  C   C32       1.0  0.05880331603540162  0.5460264587381973  0.04952182652564121  1.0000
  N   N1        1.0  0.8815190156849155  0.8402443537198185  0.3487458939896728  1.0000
  N   N2        1.0  0.6185089382382002  0.49272777136201285  0.6517288275262842  1.0000
  N   N3        1.0  0.1184766334996112  0.15975447154468014  0.6512523609682646  1.0000
  N   N4        1.0  0.3814935652064263  0.5072740684641986  0.3482739429944744  1.0000
  O   O1        1.0  0.9617161077777396  0.9269039500988683  0.6210122867898349  1.0000
  O   O2        1.0  0.5385787746082401  0.3054675863121688  0.3795505628456797  1.0000
  O   O3        1.0  0.03828083074527908  0.0730948563609886  0.37898528926329794  1.0000
  O   O4        1.0  0.46142489622880584  0.694533251932967  0.6204510895873839  1.0000
  O   O5        1.0  0.7691020813330596  0.08080352938284821  0.5000189226002831  1.0000
  O   O6        1.0  0.7307722198684488  0.5809378923138909  0.5000198670694331  1.0000
  O   O7        1.0  0.23089886801621873  0.9191962835673309  0.49998035219041265  1.0000
  O   O8        1.0  0.26923298419922054  0.41906489267947933  0.4999819848246006  1.0000
  O   O9        1.0  0.6268601510973822  0.8800125924987512  0.5921343264053505  1.0000
  O   O10       1.0  0.8732935901654242  0.28772990834036694  0.4080021043500892  1.0000
  O   O11       1.0  0.37313821435873956  0.11998723802875588  0.4078654821276828  1.0000
  O   O12       1.0  0.1267116139022448  0.7122728766530033  0.5919997475439446  1.0000
