data_image0
_chemical_formula_structural       Hg4H32C40I8N16
_chemical_formula_sum              "Hg4 H32 C40 I8 N16"
_cell_length_a       8.535398744035257
_cell_length_b       11.728849458064227
_cell_length_c       13.679139975051532
_cell_angle_alpha    90.00026253057538
_cell_angle_beta     90.00017415303674
_cell_angle_gamma    90.00027632624698

_space_group_name_H-M_alt    "P 1"
_space_group_IT_number       1

loop_
  _space_group_symop_operation_xyz
  'x, y, z'

loop_
  _atom_site_type_symbol
  _atom_site_label
  _atom_site_symmetry_multiplicity
  _atom_site_fract_x
  _atom_site_fract_y
  _atom_site_fract_z
  _atom_site_occupancy
  Hg  Hg1       1.0  0.11820548275721166  0.5528748621446552  0.7500001009567542  1.0000
  Hg  Hg2       1.0  0.6182033390723802  0.9471215764136358  0.7500006219806324  1.0000
  Hg  Hg3       1.0  0.3817989898150032  0.052877801278789584  0.24999937399966404  1.0000
  Hg  Hg4       1.0  0.8817968461256028  0.4471236629472627  0.24999916398176236  1.0000
  H   H1        1.0  0.0818018801845426  0.32700059946807153  0.6078422948273925  1.0000
  H   H2        1.0  0.5818061332593203  0.1729872288250363  0.6078461284748188  1.0000
  H   H3        1.0  0.08180607886072269  0.3270056245168789  0.8921554904886408  1.0000
  H   H4        1.0  0.4181955117423257  0.8270088290336444  0.1078450580916126  1.0000
  H   H5        1.0  0.9181945907299107  0.6729945152193081  0.3921569700988172  1.0000
  H   H6        1.0  0.41818916604896816  0.8270044754621749  0.3921516743633759  1.0000
  H   H7        1.0  0.9181939068574962  0.6729963109729267  0.1078466986147504  1.0000
  H   H8        1.0  0.5818115035153326  0.17299140126756637  0.8921556689349617  1.0000
  H   H9        1.0  0.9045572039315175  0.2278632783674581  0.48811094816824874  1.0000
  H   H10       1.0  0.40455727605588265  0.27212845894642607  0.488118596253763  1.0000
  H   H11       1.0  0.9045642595647647  0.2278645597407376  0.011885102699984901  1.0000
  H   H12       1.0  0.5954379972070782  0.7278653744054535  0.9881167487078814  1.0000
  H   H13       1.0  0.09543926698222552  0.7721326889145529  0.5118868546794175  1.0000
  H   H14       1.0  0.5954345084823487  0.7278623927438587  0.5118821307398278  1.0000
  H   H15       1.0  0.09544275572098829  0.7721399335688798  0.9881214726558201  1.0000
  H   H16       1.0  0.4045655032850489  0.272139118876396  0.0118817852033359  1.0000
  H   H17       1.0  0.6518990282665414  0.32458403935967073  0.4397832953692387  1.0000
  H   H18       1.0  0.15189729217740924  0.17541251430517238  0.4397912956981926  1.0000
  H   H19       1.0  0.6519063163969888  0.32458472720698234  0.06021484228117661  1.0000
  H   H20       1.0  0.8480942338189833  0.824584470358189  0.9397851948046707  1.0000
  H   H21       1.0  0.348098614260742  0.6754170435215696  0.5602167006098995  1.0000
  H   H22       1.0  0.8480921492053566  0.8245834529840151  0.5602138175438327  1.0000
  H   H23       1.0  0.34809601252339206  0.6754214712855741  0.9397895399531395  1.0000
  H   H24       1.0  0.151912781441105  0.17541917032740878  0.060211877028024205  1.0000
  H   H25       1.0  0.7739146216033602  0.5987429606634863  0.6365938369125035  1.0000
  H   H26       1.0  0.273913200430023  0.9012491571751156  0.6365946802926319  1.0000
  H   H27       1.0  0.7739151671855423  0.5987461263868709  0.8634056105884939  1.0000
  H   H28       1.0  0.7260885828744675  0.09874790738854947  0.1365920799331235  1.0000
  H   H29       1.0  0.22608653568978807  0.4012555644283251  0.3634061590650007  1.0000
  H   H30       1.0  0.7260844420611149  0.09874254711623108  0.3634031225478084  1.0000
  H   H31       1.0  0.22608481850491557  0.40125325128573763  0.1365885370686684  1.0000
  H   H32       1.0  0.2739160892028067  0.9012514703158487  0.8634108402098662  1.0000
  C   C1        1.0  0.970077967444105  0.36453179228402616  0.5856919747432485  1.0000
  C   C2        1.0  0.47007831157925734  0.13546411002712228  0.5856954323779109  1.0000
  C   C3        1.0  0.9700846158576084  0.3645352308787792  0.9143054700649389  1.0000
  C   C4        1.0  0.5299185405116802  0.8645369446736949  0.0856947234923879  1.0000
  C   C5        1.0  0.0299185034770062  0.6354658801970388  0.4143065591478603  1.0000
  C   C6        1.0  0.5299158161505845  0.8645310046541607  0.41430310150594357  1.0000
  C   C7        1.0  0.029925914190115994  0.635469262423335  0.0856959880134696  1.0000
  C   C8        1.0  0.47008144520478357  0.13546499081414953  0.9143067345708858  1.0000
  C   C9        1.0  0.8710898682543089  0.3100512444014925  0.519105715589106  1.0000
  C   C10       1.0  0.37108119826280017  0.1899448037733008  0.5191093865870613  1.0000
  C   C11       1.0  0.8710933222268693  0.31005418733906237  0.9808927878516088  1.0000
  C   C12       1.0  0.6289071323502424  0.8100558939634936  0.019106461289396706  1.0000
  C   C13       1.0  0.128907774263844  0.6899481332787403  0.4808928183064723  1.0000
  C   C14       1.0  0.6289094146934744  0.810049458307148  0.4808906093719686  1.0000
  C   C15       1.0  0.12891603624907327  0.689956274150802  0.0191086702373653  1.0000
  C   C16       1.0  0.37109285337426456  0.18995115710583113  0.9808913415833447  1.0000
  C   C17       1.0  0.7307989343523644  0.36206370271064253  0.49367572146528726  1.0000
  C   C18       1.0  0.2308004663309902  0.1379325660459756  0.4936813818883508  1.0000
  C   C19       1.0  0.7308047916344901  0.36206665945461214  0.006322714475985  1.0000
  C   C20       1.0  0.769197176884667  0.8620664127119468  0.9936760073280483  1.0000
  C   C21       1.0  0.2691975365810251  0.6379382327611933  0.5063220813940603  1.0000
  C   C22       1.0  0.7691913182163714  0.8620599908453311  0.5063208071887999  1.0000
  C   C23       1.0  0.26919870889449266  0.637946359822507  0.9936794746524813  1.0000
  C   C24       1.0  0.23080398042846176  0.1379397857608993  0.006321795544145902  1.0000
  C   C25       1.0  0.692462569847791  0.4666537219605757  0.5377320217358346  1.0000
  C   C26       1.0  0.19245989858662674  0.0333349741042142  0.5377358104356844  1.0000
  C   C27       1.0  0.6924682773991081  0.4666574176526979  0.9622667520469012  1.0000
  C   C28       1.0  0.8075378943524569  0.9666615605064948  0.03773311043688921  1.0000
  C   C29       1.0  0.3075374158455091  0.5333422453335287  0.4622679742355374  1.0000
  C   C30       1.0  0.8075318859463251  0.9666558775801942  0.4622627234375686  1.0000
  C   C31       1.0  0.3075410810498198  0.5333453704482948  0.037733974986935  1.0000
  C   C32       1.0  0.19247029251802417  0.03334463798857001  0.9622683476426064  1.0000
  C   C33       1.0  0.8000805918963463  0.5167195241692468  0.6022114229315322  1.0000
  C   C34       1.0  0.3000797106290918  0.9832733544219604  0.6022147806766754  1.0000
  C   C35       1.0  0.800082474486615  0.5167254320032058  0.8977884846161359  1.0000
  C   C36       1.0  0.6999160493381138  0.0167277888269055  0.10221253987020161  1.0000
  C   C37       1.0  0.19992290858141357  0.48327900092865406  0.3977893040883346  1.0000
  C   C38       1.0  0.6999214466416035  0.016718349881479397  0.3977852152874704  1.0000
  C   C39       1.0  0.1999280555649676  0.4832807664940402  0.1022122424255016  1.0000
  C   C40       1.0  0.30007690684556815  0.9832784096432121  0.8977896492347881  1.0000
  I   I1        1.0  0.34992466424409224  0.39662038851308506  0.7499985553610033  1.0000
  I   I2        1.0  0.849924944317827  0.1033785278077133  0.7499984611616597  1.0000
  I   I3        1.0  0.1500773845726968  0.8966234076744755  0.24999934170331536  1.0000
  I   I4        1.0  0.6500764930511451  0.6033798417718969  0.2499999785396128  1.0000
  I   I5        1.0  0.0121057029262062  0.7690467731653996  0.7500004224088742  1.0000
  I   I6        1.0  0.512105651123683  0.730950995688559  0.7500000968056355  1.0000
  I   I7        1.0  0.48789550617436095  0.2690500871949695  0.24999843709665734  1.0000
  I   I8        1.0  0.9878966259611769  0.23095260452702596  0.24999957357142225  1.0000
  N   N1        1.0  0.9357659993067597  0.4662638963030188  0.625266266363056  1.0000
  N   N2        1.0  0.4357656737959488  0.03372527612086171  0.6252700565928324  1.0000
  N   N3        1.0  0.9357677709690007  0.46626541755381357  0.8747329730639637  1.0000
  N   N4        1.0  0.5642301970547262  0.9662683173256355  0.1252654257940335  1.0000
  N   N5        1.0  0.06423164320858629  0.5337346287786602  0.3747322675308525  1.0000
  N   N6        1.0  0.5642331402890903  0.9662655755798892  0.3747299393673913  1.0000
  N   N7        1.0  0.0642275283526033  0.533731402320754  0.1252633677040222  1.0000
  N   N8        1.0  0.4357733034290233  0.03372935518352448  0.8747389564247072  1.0000
  N   N9        1.0  0.5536455501595227  0.5284540364564094  0.520610319050796  1.0000
  N   N10       1.0  0.053639905295433686  0.9715435020945337  0.5206107066821418  1.0000
  N   N11       1.0  0.5536478253137815  0.5284586765299151  0.9793906233406632  1.0000
  N   N12       1.0  0.9463531189133291  0.02845805630229849  0.020609716055005802  1.0000
  N   N13       1.0  0.44635326395918895  0.47154704642689876  0.47938967692946494  1.0000
  N   N14       1.0  0.9463553940290125  0.028449907401522992  0.47939148240005386  1.0000
  N   N15       1.0  0.4463556752018788  0.4715492271598476  0.02061302785800481  1.0000
  N   N16       1.0  0.05364452362165649  0.9715464369692056  0.9793888178505841  1.0000
