data_image0
_chemical_formula_structural       Zn4H36C48Br8N20
_chemical_formula_sum              "Zn4 H36 C48 Br8 N20"
_cell_length_a       5.4931593140280714
_cell_length_b       11.828707106319627
_cell_length_c       22.12437815066408
_cell_angle_alpha    88.81219811996031
_cell_angle_beta     89.99983147568503
_cell_angle_gamma    89.99950757244925

_space_group_name_H-M_alt    "P 1"
_space_group_IT_number       1

loop_
  _space_group_symop_operation_xyz
  'x, y, z'

loop_
  _atom_site_type_symbol
  _atom_site_label
  _atom_site_symmetry_multiplicity
  _atom_site_fract_x
  _atom_site_fract_y
  _atom_site_fract_z
  _atom_site_occupancy
  Zn  Zn1       1.0  0.09849753542154362  0.7057443304932673  0.625910561376571  1.0000
  Zn  Zn2       1.0  0.5984892052294415  0.29425500547544203  0.874087499971665  1.0000
  Zn  Zn3       1.0  0.9014670265292678  0.29428812162331036  0.3740846814167539  1.0000
  Zn  Zn4       1.0  0.40146989596176047  0.7057197263929709  0.12591842287753954  1.0000
  H   H1        1.0  0.9562617449371305  0.979427483074119  0.36847824564639337  1.0000
  H   H2        1.0  0.4562423620803245  0.0205802836213778  0.1315212264231107  1.0000
  H   H3        1.0  0.0436882534681828  0.020599808070827  0.6315210906878403  1.0000
  H   H4        1.0  0.5437149186748016  0.9793996873180361  0.8684769863422372  1.0000
  H   H5        1.0  0.9817873875582281  0.8971118559736767  0.54308357922757  1.0000
  H   H6        1.0  0.4817909918295982  0.1028830119447761  0.9569130328308258  1.0000
  H   H7        1.0  0.0182063012218734  0.10294506756626728  0.45691380342984883  1.0000
  H   H8        1.0  0.5182099800474305  0.8970623216307629  0.04308399404704489  1.0000
  H   H9        1.0  0.664771385325146  0.9482343324359802  0.46663314539489403  1.0000
  H   H10       1.0  0.16477857525753592  0.051760783187837896  0.03336512036075589  1.0000
  H   H11       1.0  0.3352332261688602  0.0518200740280363  0.5333633455873182  1.0000
  H   H12       1.0  0.8352515237191228  0.9481844625103619  0.9666359751264079  1.0000
  H   H13       1.0  0.4186965622221735  0.601853448892591  0.4771647780234999  1.0000
  H   H14       1.0  0.9186777378882739  0.3981341930256121  0.022832092089814196  1.0000
  H   H15       1.0  0.5813317153882666  0.3981912894339176  0.5228096114660656  1.0000
  H   H16       1.0  0.0813560017174595  0.6018156378530719  0.9771915818796013  1.0000
  H   H17       1.0  0.7412028334716324  0.5658041231118603  0.5556968382714655  1.0000
  H   H18       1.0  0.24117704992708866  0.4341922806121445  0.9443002905622532  1.0000
  H   H19       1.0  0.25879085549632214  0.4342428200228881  0.4442929090779017  1.0000
  H   H20       1.0  0.7588312035024884  0.5657603211091313  0.05571252131223049  1.0000
  H   H21       1.0  0.09948290554135751  0.6274032661391898  0.27719392667763987  1.0000
  H   H22       1.0  0.5994500530664839  0.37260900858663604  0.2228015622763165  1.0000
  H   H23       1.0  0.9005162447866439  0.3726306915503059  0.7228098970973702  1.0000
  H   H24       1.0  0.4005418161973041  0.6273701753327999  0.7771939422293312  1.0000
  H   H25       1.0  0.8314763877758298  0.59156269954957  0.1886772139529853  1.0000
  H   H26       1.0  0.3314573133237461  0.4084403277801769  0.3113236749608602  1.0000
  H   H27       1.0  0.16850819923107713  0.4084440354087491  0.8113344279181046  1.0000
  H   H28       1.0  0.6685163514200171  0.5915482740684298  0.6886663590329574  1.0000
  H   H29       1.0  0.39456939783782025  0.8672092495623004  0.22663607947592365  1.0000
  H   H30       1.0  0.8945867483540014  0.1327900656445067  0.27337158901433867  1.0000
  H   H31       1.0  0.6054151893227839  0.132806545744458  0.7733474926268257  1.0000
  H   H32       1.0  0.10541786382478341  0.867190360374707  0.7266447023165127  1.0000
  H   H33       1.0  0.6422360394602863  0.9155513873401088  0.3163351821180739  1.0000
  H   H34       1.0  0.1422451388762553  0.08445554338227625  0.18366710054139188  1.0000
  H   H35       1.0  0.3577594700822928  0.0844967331393036  0.6836391907592796  1.0000
  H   H36       1.0  0.8577703962315012  0.9154968045829294  0.8163574651042819  1.0000
  C   C1        1.0  0.8527295671248538  0.8345173427440713  0.5274312072734799  1.0000
  C   C2        1.0  0.3527223100150749  0.16547877549668044  0.9725640813651137  1.0000
  C   C3        1.0  0.1472877875075724  0.16553710273917233  0.4725634754342563  1.0000
  C   C4        1.0  0.6472932253597179  0.8344689970421795  0.02743745372962539  1.0000
  C   C5        1.0  0.6779850279475852  0.8620222096174855  0.4845874192935965  1.0000
  C   C6        1.0  0.17796868174618652  0.13796954404605802  0.015408146891495297  1.0000
  C   C7        1.0  0.322061453952017  0.1380282033806637  0.515398242817845  1.0000
  C   C8        1.0  0.8220869033368317  0.861977109643881  0.9846060502602892  1.0000
  C   C9        1.0  0.5165326499677647  0.7783311990230005  0.46550571318562095  1.0000
  C   C10       1.0  0.0165176268058715  0.22166013983041918  0.034491711635091286  1.0000
  C   C11       1.0  0.48348470466118704  0.2217249765506253  0.5344871529410111  1.0000
  C   C12       1.0  0.9835179334866881  0.7782798375131538  0.965518450139896  1.0000
  C   C13       1.0  0.5414920171994809  0.669054016815025  0.490345022994134  1.0000
  C   C14       1.0  0.04147670992888661  0.33093051448581423  0.009651071712376296  1.0000
  C   C15       1.0  0.458498030798502  0.330997085640476  0.509647868061762  1.0000
  C   C16       1.0  0.9584969553205981  0.6690019312865586  0.9903555109142059  1.0000
  C   C17       1.0  0.7193658130373635  0.6486608290896996  0.5338997028706343  1.0000
  C   C18       1.0  0.2193561340217585  0.3513305845080906  0.9660965529997366  1.0000
  C   C19       1.0  0.2806406190660767  0.35138353840981307  0.4660918652122417  1.0000
  C   C20       1.0  0.7806466581401496  0.6486195782366194  0.03391175065658559  1.0000
  C   C21       1.0  0.32348713418056724  0.8086832856880194  0.4225946006572696  1.0000
  C   C22       1.0  0.8234776145286916  0.19131213561740176  0.07740723206615738  1.0000
  C   C23       1.0  0.6765411432344166  0.19136706877996804  0.577393773865758  1.0000
  C   C24       1.0  0.17657797055547772  0.8086319131775211  0.9226101420254406  1.0000
  C   C25       1.0  0.05535068947467182  0.8041842651602595  0.35378762766663385  1.0000
  C   C26       1.0  0.5553507120521601  0.19581876881773033  0.14621108408722705  1.0000
  C   C27       1.0  0.9446247950650885  0.19586101622667934  0.6462007717893029  1.0000
  C   C28       1.0  0.444657541349507  0.8041355044372765  0.8538026236151309  1.0000
  C   C29       1.0  0.8962682978884614  0.7755273128102971  0.3037621909324598  1.0000
  C   C30       1.0  0.3962629552803493  0.22447300892327604  0.1962377877618237  1.0000
  C   C31       1.0  0.1037090071967555  0.22451125316073473  0.6962239814162101  1.0000
  C   C32       1.0  0.60373983674954  0.7754837911591609  0.8037763595468022  1.0000
  C   C33       1.0  0.9446462596865289  0.6822741228191024  0.26760536040077193  1.0000
  C   C34       1.0  0.4446344175193815  0.3177311703608154  0.23239277125028213  1.0000
  C   C35       1.0  0.05533832717684111  0.3177531292377651  0.7323957842011591  1.0000
  C   C36       1.0  0.5553683744768918  0.6822403257304329  0.767606387187136  1.0000
  C   C37       1.0  0.7947386852625514  0.6619979338528879  0.2183932145137887  1.0000
  C   C38       1.0  0.2947327372570356  0.3380035483335675  0.2816058849485969  1.0000
  C   C39       1.0  0.20524590182408534  0.33800986133944383  0.7816084777035002  1.0000
  C   C40       1.0  0.7052573114560873  0.6619849461373519  0.7183891217926683  1.0000
  C   C41       1.0  0.5533892189503291  0.8169430707300335  0.2396223082255488  1.0000
  C   C42       1.0  0.0533945827169546  0.1830599006311147  0.26037956856607275  1.0000
  C   C43       1.0  0.4466026499885345  0.1830735798518788  0.760360807653768  1.0000
  C   C44       1.0  0.946608209000715  0.8169239660526343  0.7396339937391615  1.0000
  C   C45       1.0  0.6935555127244514  0.8431298923060881  0.2893356352634625  1.0000
  C   C46       1.0  0.19356241212882  0.15687605333538812  0.21066618479434848  1.0000
  C   C47       1.0  0.3064254332906558  0.15691224119426292  0.710641931172695  1.0000
  C   C48       1.0  0.8064476616176321  0.8430797157807605  0.7893565559625484  1.0000
  Br  Br1       1.0  0.35736117302734277  0.8723334023453121  0.6270673681428248  1.0000
  Br  Br2       1.0  0.8573786196896408  0.1276705073091478  0.8729188404153445  1.0000
  Br  Br3       1.0  0.6426452591643469  0.1276894463782838  0.3729419344540401  1.0000
  Br  Br4       1.0  0.1426587609288035  0.8723048197713085  0.12705950626473586  1.0000
  Br  Br5       1.0  0.24549709798342437  0.5189684153382786  0.6263874839151311  1.0000
  Br  Br6       1.0  0.7454133952933831  0.4810275855978929  0.8736277264243238  1.0000
  Br  Br7       1.0  0.7545275389424971  0.4810524823463922  0.3735947070520424  1.0000
  Br  Br8       1.0  0.2545384238135782  0.5189559883767673  0.12639939793308486  1.0000
  N   N1        1.0  0.8721001044496078  0.7301849831049125  0.5525513367449619  1.0000
  N   N2        1.0  0.37210724792283406  0.26981444134143834  0.9474448338669884  1.0000
  N   N3        1.0  0.1278717391533064  0.26986019093346414  0.44744203546128586  1.0000
  N   N4        1.0  0.6278846215112709  0.7301451588407275  0.05255709514013057  1.0000
  N   N5        1.0  0.6034601302873881  0.7287496426269726  0.20410011539155443  1.0000
  N   N6        1.0  0.10346458628768573  0.27125814885501853  0.2959066948939436  1.0000
  N   N7        1.0  0.3965189954856286  0.2712582111299541  0.7958988644175374  1.0000
  N   N8        1.0  0.8965163599557329  0.7287436788612496  0.7040972867442574  1.0000
  N   N9        1.0  0.2189401230601362  0.7381541300687997  0.38200483251982564  1.0000
  N   N10       1.0  0.7189391186851141  0.26184594991462967  0.11799113246730995  1.0000
  N   N11       1.0  0.781079052142239  0.26189974314984005  0.6179771964333225  1.0000
  N   N12       1.0  0.28110918455567463  0.7381031720487314  0.8820262166999766  1.0000
  N   N13       1.0  0.0652124075082554  0.9099727208094849  0.3772140908860491  1.0000
  N   N14       1.0  0.5652044242979386  0.0900378747047554  0.12278548479474685  1.0000
  N   N15       1.0  0.9347448724875778  0.09007757520514302  0.6227769960561103  1.0000
  N   N16       1.0  0.4347710610649785  0.9099215888690751  0.8772227731689949  1.0000
  N   N17       1.0  0.23356133406833376  0.9146639267822964  0.42091267191173626  1.0000
  N   N18       1.0  0.7335269640582923  0.08533007491088541  0.07908874279299737  1.0000
  N   N19       1.0  0.7664596616276925  0.085380499252679  0.5790761837600795  1.0000
  N   N20       1.0  0.2664849303005283  0.9146182698952284  0.9209254460565784  1.0000
