data_image0
_chemical_formula_structural       AlH24C45Br3O6
_chemical_formula_sum              "Al1 H24 C45 Br3 O6"
_cell_length_a       3.982080857784573
_cell_length_b       23.59780901895704
_cell_length_c       23.54882650332192
_cell_angle_alpha    60.058376849640254
_cell_angle_beta     87.81279488506323
_cell_angle_gamma    87.70672781693814

_space_group_name_H-M_alt    "P 1"
_space_group_IT_number       1

loop_
  _space_group_symop_operation_xyz
  'x, y, z'

loop_
  _atom_site_type_symbol
  _atom_site_label
  _atom_site_symmetry_multiplicity
  _atom_site_fract_x
  _atom_site_fract_y
  _atom_site_fract_z
  _atom_site_occupancy
  Al  Al1       1.0  0.002205688250917635  0.5000661184681261  0.49953831141473887  1.0000
  H   H1        1.0  0.494523282459376  0.32197707990535207  0.6765686774381976  1.0000
  H   H2        1.0  0.48985581693674635  0.2570680948598181  0.7969480029983202  1.0000
  H   H3        1.0  0.8150422336601083  0.16179748216610784  0.017598735630926413  1.0000
  H   H4        1.0  0.4528205583341818  0.6864291039125233  0.31468178978754235  1.0000
  H   H5        1.0  0.5089745909213479  0.8060305725495737  0.2588235741452466  1.0000
  H   H6        1.0  0.2551794900225986  0.8929282736521458  0.2321400810836423  1.0000
  H   H7        1.0  0.24857143885801491  0.011888797084942799  0.16740378498550973  1.0000
  H   H8        1.0  0.5077064349560203  0.10587676137136978  0.10556873429010954  1.0000
  H   H9        1.0  0.5199743674733527  0.6762906687772982  0.501310248918749  1.0000
  H   H10       1.0  0.5093737558293158  0.7962316494090157  0.4466303112688978  1.0000
  H   H11       1.0  0.7991991813966806  0.0172212508783929  0.3184216975929175  1.0000
  H   H12       1.0  0.5319278758242875  0.315308881849134  0.49866315507266995  1.0000
  H   H13       1.0  0.5899797962722318  0.25891310153148334  0.4341719574576858  1.0000
  H   H14       1.0  0.2913254800389992  0.23407094398199033  0.37737564435658316  1.0000
  H   H15       1.0  0.26824893289388296  0.1692247374331899  0.32291732123517397  1.0000
  H   H16       1.0  0.5346197970762389  0.1056880729744307  0.2880821720853959  1.0000
  H   H17       1.0  0.5471468626379947  0.5012425851995204  0.32039336032159593  1.0000
  H   H18       1.0  0.5437703498052288  0.44534561982516147  0.2558163690428899  1.0000
  H   H19       1.0  0.8486828855917566  0.31458376210401434  0.16111362530323  1.0000
  H   H20       1.0  0.4837219587814658  0.4993157795018774  0.6862272890344487  1.0000
  H   H21       1.0  0.5341600967886606  0.43428268057513714  0.8064660607436451  1.0000
  H   H22       1.0  0.23525328921346772  0.3760855066870262  0.8929294929359985  1.0000
  H   H23       1.0  0.2264583690632804  0.3211119702587125  0.01280558209209913  1.0000
  H   H24       1.0  0.5355153351579603  0.2876549221403408  0.1057656541565564  1.0000
  C   C1        1.0  0.4909212347908892  0.4519278074138597  0.6004156549127374  1.0000
  C   C2        1.0  0.5247199068667427  0.44779484887968113  0.450937248494519  1.0000
  C   C3        1.0  0.4899025583464864  0.600612302890937  0.44726819123420825  1.0000
  C   C4        1.0  0.49801573908297314  0.34643350786802773  0.7054213427448062  1.0000
  C   C5        1.0  0.5022155618980906  0.3098751422207754  0.7733621571506789  1.0000
  C   C6        1.0  0.6822616485668149  0.23988982273083068  0.9227168400718285  1.0000
  C   C7        1.0  0.680686429380188  0.20853454594714546  0.9908371214059601  1.0000
  C   C8        1.0  0.4734687697482657  0.7107521792208897  0.34338976731846327  1.0000
  C   C9        1.0  0.49968966982256563  0.7784394382777505  0.31224647455837856  1.0000
  C   C10       1.0  0.38445432034466637  0.9199391082035573  0.25078148825965496  1.0000
  C   C11       1.0  0.3797079251112053  0.9877270061436505  0.21379831511210073  1.0000
  C   C12       1.0  0.4898830077517433  0.41478828716310545  0.6734637286605506  1.0000
  C   C13       1.0  0.5192120232709387  0.3400486445883785  0.8116988155628634  1.0000
  C   C14       1.0  0.5295170147455509  0.3022481354619657  0.8842142088154578  1.0000
  C   C15       1.0  0.5212304469312699  0.23661404559799587  0.02518946011308293  1.0000
  C   C16       1.0  0.5202925470641233  0.2008576333797194  0.09752883834323003  1.0000
  C   C17       1.0  0.5153761686102954  0.13228656956702164  0.13247496387779023  1.0000
  C   C18       1.0  0.5108226109888108  0.7052296199241183  0.44803836141208137  1.0000
  C   C19       1.0  0.5128114786777331  0.7730131457434978  0.41684864566140334  1.0000
  C   C20       1.0  0.6729498165128903  0.9226860255440597  0.33602971825305183  1.0000
  C   C21       1.0  0.6726939229869374  0.9906376332793344  0.2990678091491858  1.0000
  C   C22       1.0  0.5423090096064345  0.3436665344232281  0.44526276249573027  1.0000
  C   C23       1.0  0.5700799603566584  0.3121913107269662  0.40857013123041963  1.0000
  C   C24       1.0  0.42341446156390106  0.2511689190168127  0.330456236028752  1.0000
  C   C25       1.0  0.40998931704840663  0.21423064089162108  0.2996724541513701  1.0000
  C   C26       1.0  0.4882146871262379  0.6733873593058347  0.411753127674608  1.0000
  C   C27       1.0  0.5179470804832319  0.81152196546396  0.34805684104178897  1.0000
  C   C28       1.0  0.5308619519005263  0.8839154421448325  0.3132615566660066  1.0000
  C   C29       1.0  0.5244878010287267  0.02495223776366369  0.23754962747865704  1.0000
  C   C30       1.0  0.5218782852225488  0.09719289002137538  0.20106907388486667  1.0000
  C   C31       1.0  0.5310743290930874  0.13219861316216708  0.23470658492249197  1.0000
  C   C32       1.0  0.5510564110283694  0.44797840947158096  0.3451220765597612  1.0000
  C   C33       1.0  0.5565384456534659  0.4162497348005018  0.3087914396434642  1.0000
  C   C34       1.0  0.7294888474825784  0.333472010445277  0.23954369178849086  1.0000
  C   C35       1.0  0.7203042929649329  0.29659728733808066  0.2084281152273492  1.0000
  C   C36       1.0  0.4908388992173371  0.44602397148096157  0.7107108176226904  1.0000
  C   C37       1.0  0.5147025510281936  0.40900119545865016  0.7786275688958427  1.0000
  C   C38       1.0  0.3709155225597415  0.3294870001339163  0.9201992157090545  1.0000
  C   C39       1.0  0.36528381786474995  0.29840997512827266  0.9881872133355574  1.0000
  C   C40       1.0  0.5394217963166741  0.41205813324192764  0.4136211400004513  1.0000
  C   C41       1.0  0.5742687184258203  0.34760068647081244  0.33946407626737607  1.0000
  C   C42       1.0  0.5822661425038264  0.3121961368270547  0.3022470475024122  1.0000
  C   C43       1.0  0.5574475099754538  0.23672033304784887  0.2371597189858363  1.0000
  C   C44       1.0  0.5386462611276173  0.2005942431609782  0.20120521507249123  1.0000
  C   C45       1.0  0.5309809924965947  0.23435707004022532  0.1324987758178082  1.0000
  Br  Br1       1.0  0.9597278544386046  0.41413671429423715  0.18927873128850342  1.0000
  Br  Br2       1.0  0.916155173002892  0.1907950582826672  0.888091660265154  1.0000
  Br  Br3       1.0  0.8876602711213196  0.8894112960944867  0.41865817554909773  1.0000
  O   O1        1.0  0.26382967236839505  0.5717827847382466  0.43476243296243683  1.0000
  O   O2        1.0  0.25175943245418614  0.4930304312352474  0.5715599394633771  1.0000
  O   O3        1.0  0.2843541019372822  0.4355938418622287  0.4925812798572409  1.0000
  O   O4        1.0  0.7203930295686192  0.5718352060157129  0.48926719419617376  1.0000
  O   O5        1.0  0.7531625195258654  0.4893123771832323  0.43761050836227616  1.0000
  O   O6        1.0  0.733851536977163  0.4386207711863576  0.57169778817962  1.0000
