data_image0
_chemical_formula_structural       Al4H24C72N16O60
_chemical_formula_sum              "Al4 H24 C72 N16 O60"
_cell_length_a       6.70273384919574
_cell_length_b       21.20161038873196
_cell_length_c       25.080457494831716
_cell_angle_alpha    97.11377846318642
_cell_angle_beta     93.7796820316352
_cell_angle_gamma    95.36338424344262

_space_group_name_H-M_alt    "P 1"
_space_group_IT_number       1

loop_
  _space_group_symop_operation_xyz
  'x, y, z'

loop_
  _atom_site_type_symbol
  _atom_site_label
  _atom_site_symmetry_multiplicity
  _atom_site_fract_x
  _atom_site_fract_y
  _atom_site_fract_z
  _atom_site_occupancy
  Al  Al1       1.0  0.25908924028220776  0.7516149781756097  0.7495723215630788  1.0000
  Al  Al2       1.0  0.7597663319854534  0.2517260749804535  0.24518181786545773  1.0000
  Al  Al3       1.0  0.7619406948818793  0.7539961016469546  0.7542388703516211  1.0000
  Al  Al4       1.0  0.2587986226057239  0.2470823550612593  0.2487897173848594  1.0000
  H   H1        1.0  0.4518227310990993  0.5894464085108239  0.4588861133736658  1.0000
  H   H2        1.0  0.5762022431414309  0.4136787629790604  0.5409870954332093  1.0000
  H   H3        1.0  0.2442700636893278  0.8662655458315882  0.06561069208216712  1.0000
  H   H4        1.0  0.48214960292920506  0.13406225172290223  0.9292996192082726  1.0000
  H   H5        1.0  0.7021297716474278  0.9625075276827887  0.5817644005319523  1.0000
  H   H6        1.0  0.3122396019569181  0.08998254903549  0.45356900968585023  1.0000
  H   H7        1.0  0.1521072974657685  0.533174936590349  0.9105469758657068  1.0000
  H   H8        1.0  0.7200517324113421  0.4046263102003492  0.0263511637503129  1.0000
  H   H9        1.0  0.7055305320093128  0.8870786870699162  0.6502485548321957  1.0000
  H   H10       1.0  0.3124827517155566  0.15893236832457797  0.3795995004084958  1.0000
  H   H11       1.0  0.17143107688805512  0.6107840186858696  0.843472417126769  1.0000
  H   H12       1.0  0.7560693246013415  0.3320115096060333  0.09682511167743969  1.0000
  H   H13       1.0  0.17545152767080904  0.6626496420244692  0.6327270580831623  1.0000
  H   H14       1.0  0.8545490220841431  0.3420394593604215  0.3619311733562469  1.0000
  H   H15       1.0  0.6708531965502259  0.8381922213599041  0.8939005587356804  1.0000
  H   H16       1.0  0.7033910379983938  0.14695697068469118  0.1419825263244334  1.0000
  H   H17       1.0  0.3344333661270298  0.8317373250582419  0.65445775146776  1.0000
  H   H18       1.0  0.6545267714149787  0.15554058580108432  0.3269601537662937  1.0000
  H   H19       1.0  0.8310250613788667  0.6784374194533883  0.8506616454579046  1.0000
  H   H20       1.0  0.05640112306765129  0.4037139587648113  0.15056062411058244  1.0000
  H   H21       1.0  0.5126939359700629  0.7507837495955698  0.6808543308062055  1.0000
  H   H22       1.0  0.5370283081506387  0.3058555364865683  0.3039971208231549  1.0000
  H   H23       1.0  0.05217232431840557  0.79170366915654  0.8186401386598307  1.0000
  H   H24       1.0  0.012783727618476303  0.26209763624228805  0.18150054392917533  1.0000
  C   C1        1.0  0.4946461642878361  0.6816750460188602  0.8198325160755716  1.0000
  C   C2        1.0  0.5031305510770494  0.3053997423197572  0.1705837452667751  1.0000
  C   C3        1.0  0.00905967314195522  0.8212234573694559  0.6800758898033906  1.0000
  C   C4        1.0  0.9962546080322243  0.18822977575277383  0.32098407736044277  1.0000
  C   C5        1.0  0.551649657625994  0.8558524913339697  0.8061458181958941  1.0000
  C   C6        1.0  0.4567250571043218  0.1422416120953685  0.2011286596690809  1.0000
  C   C7        1.0  0.9550609769560412  0.6505968193576451  0.6961833695853985  1.0000
  C   C8        1.0  0.07160889458354092  0.3553597739534169  0.29948819979426844  1.0000
  C   C9        1.0  0.10518675332335187  0.4170038139378249  0.3362258271295744  1.0000
  C   C10       1.0  0.9278189415633024  0.588320341252654  0.6608758390576027  1.0000
  C   C11       1.0  0.43202746472379505  0.07885505944984318  0.16776190768123203  1.0000
  C   C12       1.0  0.5536587295712607  0.9197497923768408  0.8400071146857969  1.0000
  C   C13       1.0  0.2844427362497369  0.5220613048920768  0.3644489850609034  1.0000
  C   C14       1.0  0.7465026430467674  0.4834347177424688  0.6350244835071662  1.0000
  C   C15       1.0  0.3025658773222233  0.9669108759484644  0.14836627316490342  1.0000
  C   C16       1.0  0.5025680149133649  0.03207307550072612  0.8515374596717464  1.0000
  C   C17       1.0  0.24051470536940658  0.4684673749276484  0.3265593492322054  1.0000
  C   C18       1.0  0.8013292200295297  0.5363210658008271  0.6728465665755933  1.0000
  C   C19       1.0  0.31322454953911466  0.025429969714537006  0.18070561723897072  1.0000
  C   C20       1.0  0.5164147700583541  0.975680515362754  0.8181534359946667  1.0000
  C   C21       1.0  0.009448419170027486  0.4211411533194749  0.3847834189317609  1.0000
  C   C22       1.0  0.01848621589562067  0.5836500318069254  0.611759719480169  1.0000
  C   C23       1.0  0.5237459599870106  0.07344988925872539  0.11868748842751131  1.0000
  C   C24       1.0  0.5600248702142493  0.9195075621352159  0.8956770210549507  1.0000
  C   C25       1.0  0.054508866633909685  0.47505443884023885  0.4253850347553866  1.0000
  C   C26       1.0  0.9721111177695292  0.5286036279122611  0.5725330301611252  1.0000
  C   C27       1.0  0.45232183108865337  0.0219834539732702  0.07760608731250332  1.0000
  C   C28       1.0  0.5024627605539678  0.9725319806668298  0.9293585955693403  1.0000
  C   C29       1.0  0.20901262513192617  0.5224193410596383  0.41638347007529564  1.0000
  C   C30       1.0  0.8155906020347033  0.4819343134787104  0.582262183331153  1.0000
  C   C31       1.0  0.3630350537901777  0.9649111600832327  0.09456645793029142  1.0000
  C   C32       1.0  0.4987758821739591  0.031648504946559804  0.9078054694556029  1.0000
  C   C33       1.0  0.9646146794975577  0.4806569378540002  0.47658445067064303  1.0000
  C   C34       1.0  0.06336339718602348  0.5215149985658627  0.521776331512072  1.0000
  C   C35       1.0  0.47060218719752106  0.026393756308728204  0.021308004029542405  1.0000
  C   C36       1.0  0.45233081620050813  0.969496640235427  0.9841730577987847  1.0000
  C   C37       1.0  0.2521722421016647  0.5547446264604757  0.5127509984095725  1.0000
  C   C38       1.0  0.7773886452119712  0.4470153578106419  0.4862348548920537  1.0000
  C   C39       1.0  0.3660999276309553  0.9127363305252133  0.003091612085320599  1.0000
  C   C40       1.0  0.4846861027801879  0.08554925233080012  0.998222308764099  1.0000
  C   C41       1.0  0.3114594826222401  0.5607611323423214  0.4624061825954514  1.0000
  C   C42       1.0  0.716746380937508  0.44191455471044355  0.5367347393113633  1.0000
  C   C43       1.0  0.3197648313778671  0.9101787351111521  0.0551972949963968  1.0000
  C   C44       1.0  0.4899033270839155  0.0882122947747419  0.9441828906129217  1.0000
  C   C45       1.0  0.832615745439881  0.937317034699049  0.5896269496608683  1.0000
  C   C46       1.0  0.17423209305241014  0.09739282140274952  0.43121741114497786  1.0000
  C   C47       1.0  0.2942915805253179  0.5587141137676355  0.903632195972193  1.0000
  C   C48       1.0  0.6056240689409762  0.3984971120000155  0.0546144865901184  1.0000
  C   C49       1.0  0.836382566872345  0.8956338497539277  0.6277553347307717  1.0000
  C   C50       1.0  0.17224974944824817  0.13601922931782442  0.3908391556829187  1.0000
  C   C51       1.0  0.3064965910948771  0.6016625466064837  0.8665842646286777  1.0000
  C   C52       1.0  0.623763540206184  0.3578673786962838  0.09356369666787859  1.0000
  C   C53       1.0  0.008226576748164353  0.8647403934067764  0.6391416504264243  1.0000
  C   C54       1.0  0.99151861653111  0.14635268694123482  0.3630021090009238  1.0000
  C   C55       1.0  0.49088072635586855  0.6350477780455607  0.8581607269712066  1.0000
  C   C56       1.0  0.4747461179929076  0.34801138871639375  0.12891844026349022  1.0000
  C   C57       1.0  0.18104428086288493  0.8762903949839825  0.6103334016277984  1.0000
  C   C58       1.0  0.8062492421173317  0.11655061324031381  0.3768210876803905  1.0000
  C   C59       1.0  0.6703001199555771  0.623574451411379  0.8874530164842938  1.0000
  C   C60       1.0  0.29942621981643214  0.38059998108584375  0.125488185863297  1.0000
  C   C61       1.0  0.17059698685688565  0.9164867761571713  0.5701996049269127  1.0000
  C   C62       1.0  0.8131957876660749  0.07709146465696648  0.4175348060977413  1.0000
  C   C63       1.0  0.654210507984665  0.5799620204936318  0.9251526191724294  1.0000
  C   C64       1.0  0.2903021613866201  0.42662333337325015  0.08865580005382871  1.0000
  C   C65       1.0  0.0006543999179840047  0.9484479948749114  0.5596660192365875  1.0000
  C   C66       1.0  0.9932727169482761  0.06668138901672901  0.44522688224407153  1.0000
  C   C67       1.0  0.46890657093689475  0.5476508183643531  0.9342435994094843  1.0000
  C   C68       1.0  0.440220926051353  0.43443894415467804  0.05174478095250381  1.0000
  C   C69       1.0  0.9968181403698607  0.9901405939331627  0.520053181548697  1.0000
  C   C70       1.0  0.9939884238567629  0.02601349470378271  0.48568319039331  1.0000
  C   C71       1.0  0.4549679454620589  0.5071717368174973  0.9746372739313999  1.0000
  C   C72       1.0  0.433571399756417  0.47551060875989043  0.011702746377430602  1.0000
  N   N1        1.0  0.7195232530657378  0.5422383263979071  0.7267531354674333  1.0000
  N   N2        1.0  0.33193728107248427  0.4638590431551465  0.2737616394103313  1.0000
  N   N3        1.0  0.48584983448154156  0.972052335032991  0.7592027496665493  1.0000
  N   N4        1.0  0.21318636528615542  0.03353476745667901  0.23207911196558234  1.0000
  N   N5        1.0  0.41396310143079523  0.5774870664804509  0.35262365498740417  1.0000
  N   N6        1.0  0.6179282427533579  0.4296994141899333  0.6506352879827447  1.0000
  N   N7        1.0  0.23308629745940826  0.9081402007826609  0.1698595122116728  1.0000
  N   N8        1.0  0.5005375066967233  0.09396452418045706  0.8300940395769703  1.0000
  N   N9        1.0  0.4103348009675969  0.5744716628542221  0.5570413087312147  1.0000
  N   N10       1.0  0.6183817968329208  0.4268146940623652  0.44230348193679  1.0000
  N   N11       1.0  0.2753665407453951  0.8564034376762637  0.9649018352115704  1.0000
  N   N12       1.0  0.4466309099550116  0.1471975197515079  0.029086539824838605  1.0000
  N   N13       1.0  0.3481453098641154  0.9276599745516874  0.5403406809380017  1.0000
  N   N14       1.0  0.6247268742848534  0.049469770854813105  0.4352940500819501  1.0000
  N   N15       1.0  0.8372409685351485  0.5671915846261584  0.9555268667876861  1.0000
  N   N16       1.0  0.12942201530022857  0.46732156277677467  0.08988291997474822  1.0000
  O   O1        1.0  0.718122552648495  0.8336516129740447  0.7980733676737374  1.0000
  O   O2        1.0  0.30931755672708766  0.160896863153603  0.22512148378959304  1.0000
  O   O3        1.0  0.1317044155149674  0.6810841799800614  0.6994194790577666  1.0000
  O   O4        1.0  0.891934099923013  0.3261674030199018  0.2950095964376303  1.0000
  O   O5        1.0  0.3297960977046799  0.6945797400487236  0.7977066570777539  1.0000
  O   O6        1.0  0.6831872539509405  0.30171505461702003  0.19016595442887765  1.0000
  O   O7        1.0  0.8433851270829535  0.7996962492107613  0.6967295580909437  1.0000
  O   O8        1.0  0.16346810707894824  0.2159922728070356  0.3104273835659725  1.0000
  O   O9        1.0  0.3764641487695926  0.8273789189657562  0.7948395967015855  1.0000
  O   O10       1.0  0.6273225920516269  0.1755087085895042  0.20031044348703386  1.0000
  O   O11       1.0  0.8048244202939329  0.6710846651094116  0.7176196254147413  1.0000
  O   O12       1.0  0.221288682082033  0.33424333205336854  0.2782883640347507  1.0000
  O   O13       1.0  0.1828710603350885  0.805497000252032  0.6970936596290899  1.0000
  O   O14       1.0  0.8259043649782073  0.19653119486250864  0.29642714242677215  1.0000
  O   O15       1.0  0.6685731479988704  0.7096506594377772  0.8110857159838005  1.0000
  O   O16       1.0  0.3468219006018955  0.2743470496343932  0.18427524803027504  1.0000
  O   O17       1.0  0.5042466279183273  0.7450227649762196  0.7184372902709554  1.0000
  O   O18       1.0  0.5248208368710151  0.2653214915886579  0.28061705943886744  1.0000
  O   O19       1.0  0.024235329082479443  0.7623730434780496  0.7854230106179614  1.0000
  O   O20       1.0  0.998495966131152  0.23955236896810556  0.2129072150856643  1.0000
  O   O21       1.0  0.136292421834014  0.6331842940176459  0.598797891921521  1.0000
  O   O22       1.0  0.8879028375827007  0.37160261307043635  0.3961166202694386  1.0000
  O   O23       1.0  0.6133622189117885  0.8688824840104914  0.919379684430723  1.0000
  O   O24       1.0  0.6711452551505985  0.11554672705068472  0.10819536414204832  1.0000
  O   O25       1.0  0.8451660535768043  0.550851583415735  0.7659094123623831  1.0000
  O   O26       1.0  0.5357238871224155  0.5405858288922616  0.7278344456393314  1.0000
  O   O27       1.0  0.4900912571341323  0.43905184612458475  0.2708413379723781  1.0000
  O   O28       1.0  0.23309891666538357  0.48300003845454154  0.23690933702464892  1.0000
  O   O29       1.0  0.39471417590968366  0.013292795558207587  0.7405300252171544  1.0000
  O   O30       1.0  0.5500051926295059  0.9259755188600138  0.7323773506257754  1.0000
  O   O31       1.0  0.03660397069716479  0.0451480650856979  0.2276077253111239  1.0000
  O   O32       1.0  0.31808508040248273  0.031571199788246  0.2738000473200586  1.0000
  O   O33       1.0  0.406797743063251  0.6289708720888356  0.3816886445622814  1.0000
  O   O34       1.0  0.5192718421218956  0.5699187790926742  0.3140530628269715  1.0000
  O   O35       1.0  0.4796307541789417  0.40278478705766935  0.6181709917648633  1.0000
  O   O36       1.0  0.6601128428387142  0.4150858597605094  0.695976292922211  1.0000
  O   O37       1.0  0.11695415470559567  0.912567356595147  0.20619894541498954  1.0000
  O   O38       1.0  0.29929333390766283  0.8581012154999997  0.15082340564294583  1.0000
  O   O39       1.0  0.653869705705972  0.11298910333374586  0.809795199361915  1.0000
  O   O40       1.0  0.3494679253776738  0.12237468385171722  0.8366038691927713  1.0000
  O   O41       1.0  0.5420263559234897  0.6178418133259811  0.5520837702091015  1.0000
  O   O42       1.0  0.4067456277373224  0.5426339662193342  0.5952941398550777  1.0000
  O   O43       1.0  0.6142649291485895  0.46079591413758436  0.4054182761706286  1.0000
  O   O44       1.0  0.4934914068001888  0.3812344476606171  0.4461816946635794  1.0000
  O   O45       1.0  0.18203481279270764  0.8680637620791033  0.9231941970008607  1.0000
  O   O46       1.0  0.28776717520896977  0.8029680483448944  0.9782724054221391  1.0000
  O   O47       1.0  0.3040310134709827  0.14561144173885757  0.05815477621641921  1.0000
  O   O48       1.0  0.550892077005699  0.1958127276607513  0.021264207492279804  1.0000
  O   O49       1.0  0.35405616781983446  0.8510558083507648  0.6205623085763677  1.0000
  O   O50       1.0  0.6260014334516768  0.12614487291164525  0.3543177659139546  1.0000
  O   O51       1.0  0.8524369714605413  0.6515130403153649  0.8800869844442971  1.0000
  O   O52       1.0  0.1515868644132894  0.36974217285598604  0.15721901163568933  1.0000
  O   O53       1.0  0.427636268592444  0.9834848041307752  0.5451427267440041  1.0000
  O   O54       1.0  0.4069966949804282  0.8811603493453717  0.5134117420635748  1.0000
  O   O55       1.0  0.5209900153345757  0.006947700585655506  0.4048991418314145  1.0000
  O   O56       1.0  0.5842897860804471  0.07256616964765072  0.48081349620107977  1.0000
  O   O57       1.0  0.8732502273296205  0.5103923494027498  0.9523638411715895  1.0000
  O   O58       1.0  0.9430296551992257  0.6130730126246037  0.9813578037207975  1.0000
  O   O59       1.0  0.9924807254984318  0.45785558243977686  0.1219689901173524  1.0000
  O   O60       1.0  0.12688380656627626  0.5100342579552047  0.06098950687928811  1.0000
