data_image0
_chemical_formula_structural       Zn2H40C26S4N8O18
_chemical_formula_sum              "Zn2 H40 C26 S4 N8 O18"
_cell_length_a       7.715476380487654
_cell_length_b       8.834510157693595
_cell_length_c       14.300156511096207
_cell_angle_alpha    90.00037990199142
_cell_angle_beta     90.00013300013141
_cell_angle_gamma    97.45851034796

_space_group_name_H-M_alt    "P 1"
_space_group_IT_number       1

loop_
  _space_group_symop_operation_xyz
  'x, y, z'

loop_
  _atom_site_type_symbol
  _atom_site_label
  _atom_site_symmetry_multiplicity
  _atom_site_fract_x
  _atom_site_fract_y
  _atom_site_fract_z
  _atom_site_occupancy
  Zn  Zn1       1.0  0.29059566781644725  0.3847539868316403  0.749999759538376  1.0000
  Zn  Zn2       1.0  0.7094043864372495  0.6152488935416753  0.2500003787877247  1.0000
  H   H1        1.0  0.37365947651829146  0.18813643460395474  0.09704921361148418  1.0000
  H   H2        1.0  0.6263419356884724  0.8118624246807117  0.5970514755204448  1.0000
  H   H3        1.0  0.626339909208376  0.8118618794442867  0.9029509247048324  1.0000
  H   H4        1.0  0.37366021002651456  0.18813703544039131  0.40294936209303955  1.0000
  H   H5        1.0  0.45698493560654196  0.3863392897166875  0.0910819064949919  1.0000
  H   H6        1.0  0.5430120914028862  0.6136652005019344  0.591081151063193  1.0000
  H   H7        1.0  0.5430138222157836  0.6136635884048546  0.9089168332441844  1.0000
  H   H8        1.0  0.45698700068913917  0.3863399607940893  0.4089196865600185  1.0000
  H   H9        1.0  0.0304596671407324  0.13354465102562332  0.1254024172747137  1.0000
  H   H10       1.0  0.9695430413180618  0.8664533919230167  0.625404644222037  1.0000
  H   H11       1.0  0.9695424785701404  0.8664548090875145  0.8745970217526773  1.0000
  H   H12       1.0  0.030461362985867903  0.13354378951918022  0.37459549409517473  1.0000
  H   H13       1.0  0.1058523871406294  0.1234005650855607  0.0090715502594279  1.0000
  H   H14       1.0  0.8941538598477551  0.8765984424955704  0.5090716241407093  1.0000
  H   H15       1.0  0.8941500928337619  0.8766011781901141  0.9909278887728588  1.0000
  H   H16       1.0  0.1058497494221271  0.12340216144264105  0.4909278148899645  1.0000
  H   H17       1.0  0.014165347093609183  0.4394844943568614  0.16289982630243569  1.0000
  H   H18       1.0  0.9858336928713882  0.5605139690064717  0.6628973235303164  1.0000
  H   H19       1.0  0.9858356693238336  0.5605161050977187  0.8371003120196077  1.0000
  H   H20       1.0  0.014165859978802986  0.4394854866071043  0.3371000176162582  1.0000
  H   H21       1.0  0.2303187608254547  0.5355593175144193  0.1550408074162917  1.0000
  H   H22       1.0  0.7696779742731935  0.4644413349975025  0.6550390319252059  1.0000
  H   H23       1.0  0.7696809591647237  0.46444127969635934  0.8449593309049204  1.0000
  H   H24       1.0  0.23032028215180136  0.5355581183762581  0.34495900851357675  1.0000
  H   H25       1.0  0.13843924785548717  0.22302122658770432  0.24999920838772738  1.0000
  H   H26       1.0  0.861561601426068  0.7769782312776456  0.7499995313457788  1.0000
  H   H27       1.0  0.34544579014229987  0.3367908327197994  0.2499995744401531  1.0000
  H   H28       1.0  0.6545522991550498  0.6632074790806544  0.7499998645822785  1.0000
  H   H29       1.0  0.1631634689657844  0.41228093066285953  0.019372765722358992  1.0000
  H   H30       1.0  0.8368300415363805  0.5877193134064811  0.5193715817972944  1.0000
  H   H31       1.0  0.8368323617405764  0.5877196598125208  0.9806266733032913  1.0000
  H   H32       1.0  0.1631644927386091  0.41228127481713267  0.4806264586414315  1.0000
  H   H33       1.0  0.5349299593911496  0.24220689597648715  0.6927575933377453  1.0000
  H   H34       1.0  0.46506795997277106  0.757791905304096  0.19275848330134687  1.0000
  H   H35       1.0  0.4650684641717788  0.7577936989904899  0.30724254498262127  1.0000
  H   H36       1.0  0.5349301293287  0.24220640650433017  0.8072423543071777  1.0000
  H   H37       1.0  0.6538638568771517  0.1474234843788977  0.97689282712021  1.0000
  H   H38       1.0  0.3461355684718371  0.8525774122057898  0.4768932536845298  1.0000
  H   H39       1.0  0.3461345666857766  0.8525771105880792  0.023107311200163797  1.0000
  H   H40       1.0  0.6538654479435452  0.14742318724481152  0.5231061853444743  1.0000
  C   C1        1.0  0.36182730188447476  0.29590279170149353  0.061065205362332585  1.0000
  C   C2        1.0  0.6381719740970908  0.7041002194739718  0.5610649428103968  1.0000
  C   C3        1.0  0.638172418105711  0.704097805509285  0.9389349329588794  1.0000
  C   C4        1.0  0.3618279130248537  0.295901519318079  0.43893519551325966  1.0000
  C   C5        1.0  0.3942695296208356  0.28592750920311266  0.9554099627453354  1.0000
  C   C6        1.0  0.6057385099517346  0.7140708751860885  0.4554094554552605  1.0000
  C   C7        1.0  0.6057387233380354  0.7140605485641699  0.0445901755556477  1.0000
  C   C8        1.0  0.3942631343659214  0.2859251601872259  0.5445906828578372  1.0000
  C   C9        1.0  0.0507363048544676  0.1975818845552553  0.0595725128130695  1.0000
  C   C10       1.0  0.9492647195396345  0.802415406209164  0.5595744512162708  1.0000
  C   C11       1.0  0.9492632480018983  0.8024175710702792  0.9404269262126448  1.0000
  C   C12       1.0  0.05073596261222949  0.1975829100788999  0.4404249878078375  1.0000
  C   C13       1.0  0.87894933740926  0.2377265938217761  0.022318988939439097  1.0000
  C   C14       1.0  0.12105259691505668  0.7622691332114613  0.5223210982443263  1.0000
  C   C15       1.0  0.12105117761495879  0.7622705808929879  0.9776818486683111  1.0000
  C   C16       1.0  0.8789492145322982  0.23772804373914627  0.4776783407781693  1.0000
  C   C17       1.0  0.152707689038948  0.4232554342649664  0.16289498690446888  1.0000
  C   C18       1.0  0.8472903887376051  0.5767453099692973  0.6628937714157956  1.0000
  C   C19       1.0  0.8472920309512375  0.5767451629458122  0.837105151416736  1.0000
  C   C20       1.0  0.15270786768738986  0.4232541434044634  0.3371042690229871  1.0000
  C   C21       1.0  0.2036415418531021  0.3412657873398572  0.24999949260090654  1.0000
  C   C22       1.0  0.7963568817077658  0.6587348076231337  0.7499999464264206  1.0000
  C   C23       1.0  0.29733883021224733  0.7371498348374387  0.7500004861712242  1.0000
  C   C24       1.0  0.7026615583008534  0.2628553286904419  0.2499982535736791  1.0000
  C   C25       1.0  0.9394628468062012  0.1703451668295628  0.7499997365152777  1.0000
  C   C26       1.0  0.060537835351837495  0.8296531494704524  0.2500018003879703  1.0000
  S   S1        1.0  0.7700880836926772  0.04281508098301861  0.7500035621687928  1.0000
  S   S2        1.0  0.22991857921459774  0.9571798218081539  0.2500007719034727  1.0000
  S   S3        1.0  0.2709861048439278  0.9143377421476727  0.7499994338533327  1.0000
  S   S4        1.0  0.7290141165353533  0.0856662797949568  0.24999860659607978  1.0000
  N   N1        1.0  0.18051859314024202  0.3369266608259807  0.074182512033417  1.0000
  N   N2        1.0  0.8194789622596802  0.6630730727954985  0.5741823140324911  1.0000
  N   N3        1.0  0.8194798304226866  0.6630739341409893  0.9258176262869569  1.0000
  N   N4        1.0  0.1805192941653146  0.33692638057826235  0.4258157264062986  1.0000
  N   N5        1.0  0.06183746960390829  0.26671368179960814  0.7500042658231719  1.0000
  N   N6        1.0  0.9381690261777748  0.7332800794222437  0.2500021661257819  1.0000
  N   N7        1.0  0.3190272275955692  0.605963900455734  0.7500009304925965  1.0000
  N   N8        1.0  0.6809767159419523  0.3940389866529728  0.2499999071290588  1.0000
  O   O1        1.0  0.5239271322784234  0.30496266246579756  0.7499997457450078  1.0000
  O   O2        1.0  0.4760727548435213  0.6950390763262463  0.2500003925786487  1.0000
  O   O3        1.0  0.3053486512682255  0.3647849681097028  0.9052078195609139  1.0000
  O   O4        1.0  0.6946424469051139  0.6352230872101218  0.4052105996179093  1.0000
  O   O5        1.0  0.6946410315550865  0.6352178942892763  0.09478812300022099  1.0000
  O   O6        1.0  0.3053472359387897  0.36477977522869054  0.5947923358736843  1.0000
  O   O7        1.0  0.5066189318154103  0.20409827744325074  0.9261157821514701  1.0000
  O   O8        1.0  0.49337212233270117  0.7959088744626045  0.4261154661046618  1.0000
  O   O9        1.0  0.4933707510223115  0.7959045849836102  0.07388505546099108  1.0000
  O   O10       1.0  0.5066203204912867  0.20409513403313181  0.5738853715119134  1.0000
  O   O11       1.0  0.8510988588360034  0.3701846045968651  0.0098893086769678  1.0000
  O   O12       1.0  0.14890576228350477  0.6298121269065787  0.5098916100303867  1.0000
  O   O13       1.0  0.1489010282921086  0.6298171342071299  0.9901129275258213  1.0000
  O   O14       1.0  0.8510975127166917  0.3701861938571512  0.4901057311162518  1.0000
  O   O15       1.0  0.7684056870266714  0.11440117376930908  0.004490888305369398  1.0000
  O   O16       1.0  0.2315938837203149  0.8855966288276707  0.5044908478968111  1.0000
  O   O17       1.0  0.23159662581802112  0.8855994279290798  0.9955092500175126  1.0000
  O   O18       1.0  0.7684067984336024  0.1144016874643796  0.495509290420344  1.0000
