data_image0
_chemical_formula_structural       Cd2H44C56N8O8
_chemical_formula_sum              "Cd2 H44 C56 N8 O8"
_cell_length_a       10.481440655312136
_cell_length_b       10.468194638078892
_cell_length_c       10.932990678891866
_cell_angle_alpha    92.17856926611208
_cell_angle_beta     99.458634051354
_cell_angle_gamma    93.19765160224212

_space_group_name_H-M_alt    "P 1"
_space_group_IT_number       1

loop_
  _space_group_symop_operation_xyz
  'x, y, z'

loop_
  _atom_site_type_symbol
  _atom_site_label
  _atom_site_symmetry_multiplicity
  _atom_site_fract_x
  _atom_site_fract_y
  _atom_site_fract_z
  _atom_site_occupancy
  Cd  Cd1       1.0  0.6596558919246149  0.6217223047069427  0.5451643887876543  1.0000
  Cd  Cd2       1.0  0.34034589757336414  0.37827732507601314  0.4548340254202046  1.0000
  H   H1        1.0  0.8651517481902578  0.41406138991679603  0.6687226076099009  1.0000
  H   H2        1.0  0.1348482167212879  0.5859401484901667  0.3312764946297122  1.0000
  H   H3        1.0  0.719723452512099  0.41005858448914273  0.008499629536409266  1.0000
  H   H4        1.0  0.2802763926881084  0.589941038030979  0.9915002984652261  1.0000
  H   H5        1.0  0.8966176176558207  0.18243864974136412  0.7319911286884917  1.0000
  H   H6        1.0  0.10338331940459969  0.8175628922970118  0.26800721665422594  1.0000
  H   H7        1.0  0.0669114408580072  0.042533276033516615  0.8158427465997207  1.0000
  H   H8        1.0  0.9330874369226124  0.9574663430266531  0.18415702439822468  1.0000
  H   H9        1.0  0.12704126499853166  0.26214443854027547  0.1651813131795734  1.0000
  H   H10       1.0  0.872957493070764  0.7378532646330598  0.8348192835804013  1.0000
  H   H11       1.0  0.9569809084454519  0.40131427693551563  0.08096128330605266  1.0000
  H   H12       1.0  0.04301990890364491  0.5986853492160196  0.9190378877986944  1.0000
  H   H13       1.0  0.23795001697356352  0.9633374733189443  0.8717069316903192  1.0000
  H   H14       1.0  0.7620487938574527  0.0366611875406022  0.12829462303951533  1.0000
  H   H15       1.0  0.40628654695198924  0.8253933785256183  0.9605157576119935  1.0000
  H   H16       1.0  0.5937132360279023  0.17460528596534894  0.03948504022094568  1.0000
  H   H17       1.0  0.39721282930359086  0.9953871569068016  0.3254222534477123  1.0000
  H   H18       1.0  0.6027830217776541  0.0046105357152229  0.6745787862017707  1.0000
  H   H19       1.0  0.22556289177874325  0.1251778089022437  0.24031518185190492  1.0000
  H   H20       1.0  0.7744338164693474  0.8748179716358351  0.7596850127621337  1.0000
  H   H21       1.0  0.45021372373850727  0.8014768564522188  0.3840264535423188  1.0000
  H   H22       1.0  0.5497858867683404  0.19851893446570296  0.61597421208279  1.0000
  H   H23       1.0  0.623222844359006  0.7840073855345225  0.06066347323643837  1.0000
  H   H24       1.0  0.3767742710554955  0.21599510017880874  0.9393361159619572  1.0000
  H   H25       1.0  0.5344635826095471  0.5921213310481123  0.951111077226294  1.0000
  H   H26       1.0  0.4655382501915497  0.4078792560781109  0.04889012275258149  1.0000
  H   H27       1.0  0.4593233278751683  0.5571304611167847  0.7935125787627725  1.0000
  H   H28       1.0  0.5406775949973621  0.44287108040717266  0.20648850828168716  1.0000
  H   H29       1.0  0.5685022049740596  0.6930817615232884  0.8308604540421172  1.0000
  H   H30       1.0  0.43149866513675056  0.306918822314458  0.1691396750324827  1.0000
  H   H31       1.0  0.7570332575778309  0.5087199547006093  0.2567525364085697  1.0000
  H   H32       1.0  0.2429696718127801  0.4912825521153366  0.7432461670108025  1.0000
  H   H33       1.0  0.8652697018324321  0.6412852419977711  0.30643444897289374  1.0000
  H   H34       1.0  0.13473339530192874  0.35872013821975907  0.6935653005548943  1.0000
  H   H35       1.0  0.8100715285878479  0.6101162940949437  0.14397087715667573  1.0000
  H   H36       1.0  0.18992968646905692  0.3898900368889003  0.8560295163335851  1.0000
  H   H37       1.0  0.14454515656401412  0.6056474622526552  0.5627069940482201  1.0000
  H   H38       1.0  0.855453850386539  0.3943540730372988  0.4372901233865392  1.0000
  H   H39       1.0  0.3934843123065122  0.9517803797339327  0.6132349177628811  1.0000
  H   H40       1.0  0.60651746300357  0.04821924953460412  0.3867662381467127  1.0000
  H   H41       1.0  0.20290741792523193  0.0808969691247725  0.6280959463237892  1.0000
  H   H42       1.0  0.7970952578548209  0.9191017054030938  0.37190715032138394  1.0000
  H   H43       1.0  0.9832062578760772  0.9666992396731474  0.6176416386406346  1.0000
  H   H44       1.0  0.0167956229574386  0.03330230496781889  0.382361433208672  1.0000
  C   C1        1.0  0.8034148814298377  0.43275834242066225  0.7369959073717283  1.0000
  C   C2        1.0  0.19658405857110495  0.5672422346686619  0.26300299379491326  1.0000
  C   C3        1.0  0.6582800212087747  0.5144796774001109  0.834738124920456  1.0000
  C   C4        1.0  0.34172090166375574  0.4855218641238468  0.16526296212400376  1.0000
  C   C5        1.0  0.7279546454477385  0.43572288210587123  0.9150145628541252  1.0000
  C   C6        1.0  0.2720452572434837  0.5642776982719296  0.0849854092167917  1.0000
  C   C7        1.0  0.9166798831121028  0.30155571872984416  0.9006888796246103  1.0000
  C   C8        1.0  0.08332002430842073  0.6984448618194252  0.0993101785457284  1.0000
  C   C9        1.0  0.9491167137036172  0.20097980288343104  0.8262481004457525  1.0000
  C   C10       1.0  0.0508840989161783  0.7990198230966358  0.1737519845595727  1.0000
  C   C11       1.0  0.04585702130636091  0.1223056313951787  0.8744577713387328  1.0000
  C   C12       1.0  0.9541418564742659  0.8776939876649907  0.12554199965921237  1.0000
  C   C13       1.0  0.1130561858943082  0.1410827109855148  0.9968368575478549  1.0000
  C   C14       1.0  0.8869415472643851  0.8589140308701956  0.0031635381391481782  1.0000
  C   C15       1.0  0.07785716786854381  0.24290671965973595  0.0700115768348226  1.0000
  C   C16       1.0  0.9221406275104655  0.7570909802251294  0.9299879490208767  1.0000
  C   C17       1.0  0.9810241090292636  0.32202948495670825  0.02306538780148774  1.0000
  C   C18       1.0  0.01897579366196571  0.6779710954211  0.9769345842694294  1.0000
  C   C19       1.0  0.2161465574155059  0.05712812598915211  0.047669163430065  1.0000
  C   C20       1.0  0.7838541354929591  0.942869584104081  0.9523317473372899  1.0000
  C   C21       1.0  0.2703852020604387  0.9705595553459503  0.9717976807842632  1.0000
  C   C22       1.0  0.7296135607381586  0.029438147998860097  0.0282020020751332  1.0000
  C   C23       1.0  0.36696188963799165  0.891959886548655  0.02154204419106521  1.0000
  C   C24       1.0  0.6330369834133335  0.10803973234004621  0.9784586407074584  1.0000
  C   C25       1.0  0.4125058911051483  0.8985436153888103  0.1494541772245341  1.0000
  C   C26       1.0  0.5874939493657649  0.10145600695983599  0.8505466646776867  1.0000
  C   C27       1.0  0.36132846696498433  0.9851895273421718  0.22606186364797048  1.0000
  C   C28       1.0  0.6386703438660318  0.014809133517374598  0.7739396910818569  1.0000
  C   C29       1.0  0.2643919109538118  0.062151947421483604  0.1758264793962212  1.0000
  C   C30       1.0  0.7356078720260868  0.9378467170694832  0.824174318436718  1.0000
  C   C31       1.0  0.5151588443443558  0.7749980419766588  0.32144349057322325  1.0000
  C   C32       1.0  0.4848408858738225  0.224999664828097  0.6785563492898632  1.0000
  C   C33       1.0  0.6051684868607055  0.7619217654427574  0.15233323119289816  1.0000
  C   C34       1.0  0.3948304484109357  0.2380788114751056  0.8476665838743287  1.0000
  C   C35       1.0  0.6696130236021531  0.6883791453780078  0.24169014121005009  1.0000
  C   C36       1.0  0.33038693658008367  0.31162239285747273  0.7583098749301411  1.0000
  C   C37       1.0  0.549045976717295  0.5933298715573443  0.8542089215567897  1.0000
  C   C38       1.0  0.45095495088452964  0.4066716701380885  0.14579125158708445  1.0000
  C   C39       1.0  0.7815866474524285  0.6082206745900367  0.23599507319536167  1.0000
  C   C40       1.0  0.21841645441123353  0.39178470579896196  0.7640037624318409  1.0000
  C   C41       1.0  0.9177734559784838  0.7171239258883945  0.5770800226725186  1.0000
  C   C42       1.0  0.08222735191201741  0.2828756999201971  0.4229209762333852  1.0000
  C   C43       1.0  0.3995556984473438  0.6974401719519038  0.5820641882936995  1.0000
  C   C44       1.0  0.6004450614107313  0.3025584963419519  0.41793493874177295  1.0000
  C   C45       1.0  0.05178549451346733  0.7807322363056177  0.5905875796021363  1.0000
  C   C46       1.0  0.948214456210181  0.21926930158691965  0.40941426433921885  1.0000
  C   C47       1.0  0.1587813878579496  0.7092272900705864  0.5799877522501333  1.0000
  C   C48       1.0  0.8412174946519786  0.2907723291610581  0.42001110484722654  1.0000
  C   C49       1.0  0.28233343728166455  0.7714655559071417  0.5906178330993441  1.0000
  C   C50       1.0  0.717665502719278  0.22853502118218222  0.4093810680672973  1.0000
  C   C51       1.0  0.29712567171633714  0.9054032489807329  0.6077792628244579  1.0000
  C   C52       1.0  0.7028741159928558  0.09459541568170951  0.3922206211079029  1.0000
  C   C53       1.0  0.19068025235392133  0.9768193975296601  0.6172193491010276  1.0000
  C   C54       1.0  0.8093234530660354  0.023180238487299207  0.38278303471653174  1.0000
  C   C55       1.0  0.0686250935747026  0.9141137178389798  0.610631984115031  1.0000
  C   C56       1.0  0.9313766770060783  0.08588591125808881  0.3893700856951483  1.0000
  N   N1        1.0  0.7072112283348133  0.5112577612784079  0.7242813776135506  1.0000
  N   N2        1.0  0.2927886215946955  0.4887418614131818  0.27571763648750647  1.0000
  N   N3        1.0  0.8193361960360406  0.38395285357967884  0.8520399888561982  1.0000
  N   N4        1.0  0.1806637066551886  0.6160477267981221  0.1479599832147116  1.0000
  N   N5        1.0  0.5072763938998506  0.8167194117057339  0.20407453819823468  1.0000
  N   N6        1.0  0.4927233938093423  0.18327925295670872  0.7959253457341262  1.0000
  N   N7        1.0  0.6113812156944363  0.6982749314363943  0.3467629241444428  1.0000
  N   N8        1.0  0.3886196016546606  0.3017246947151477  0.6532362469603041  1.0000
  O   O1        1.0  0.8976439697552011  0.6017218958642018  0.5356192550101824  1.0000
  O   O2        1.0  0.10235684759389582  0.39827773028733304  0.46437991609456475  1.0000
  O   O3        1.0  0.828140851226955  0.784843268081133  0.6065158940758408  1.0000
  O   O4        1.0  0.171860018883855  0.21515731575661334  0.39348423499876617  1.0000
  O   O5        1.0  0.386784897475394  0.576598044228561  0.5650845375721758  1.0000
  O   O6        1.0  0.6132149619127105  0.42340157880597223  0.4349126487277175  1.0000
  O   O7        1.0  0.5087385754752419  0.761635702322984  0.5933858805353793  1.0000
  O   O8        1.0  0.49126218438283326  0.23836296597087173  0.40661324650009323  1.0000
