data_image0
_chemical_formula_structural       Zn4H16C46N6O24
_chemical_formula_sum              "Zn4 H16 C46 N6 O24"
_cell_length_a       15.082414911501564
_cell_length_b       14.953749200778542
_cell_length_c       19.605043332542635
_cell_angle_alpha    89.55515003477501
_cell_angle_beta     90.0198806870018
_cell_angle_gamma    88.46411693522104

_space_group_name_H-M_alt    "P 1"
_space_group_IT_number       1

loop_
  _space_group_symop_operation_xyz
  'x, y, z'

loop_
  _atom_site_type_symbol
  _atom_site_label
  _atom_site_symmetry_multiplicity
  _atom_site_fract_x
  _atom_site_fract_y
  _atom_site_fract_z
  _atom_site_occupancy
  Zn  Zn1       1.0  0.5710184987242285  0.5680879986534887  0.4298813274309552  1.0000
  Zn  Zn2       1.0  0.43305734308152216  0.5783326362717746  0.5653128792138702  1.0000
  Zn  Zn3       1.0  0.5799577226678068  0.43506170345558803  0.5596849048978783  1.0000
  Zn  Zn4       1.0  0.4255272375218909  0.4316744066753413  0.44301554368561824  1.0000
  H   H1        1.0  0.14783500396666943  0.47691487745683486  0.4121678199772417  1.0000
  H   H2        1.0  0.4036589839160669  0.3398386540450885  0.7401680418711152  1.0000
  H   H3        1.0  0.482984343028356  0.21649990782104564  0.40585334379299104  1.0000
  H   H4        1.0  0.6158388161765773  0.40473941430236215  0.9853572160839122  1.0000
  H   H5        1.0  0.4158526812679071  0.36920341682655783  0.0494550670824836  1.0000
  H   H6        1.0  0.34395085245901674  0.3668878285840264  0.8657678757196551  1.0000
  H   H7        1.0  0.4280172588672998  0.36448745365869667  0.2831068737780598  1.0000
  H   H8        1.0  0.4715028702346373  0.6669060272702653  0.0507552419240227  1.0000
  H   H9        1.0  0.8366903961264995  0.48655754985773547  0.365039859923634  1.0000
  H   H10       1.0  0.47115350583406723  0.8577502229056221  0.5932423581815058  1.0000
  H   H11       1.0  0.633879026469387  0.5578337744996062  0.7737709192851696  1.0000
  H   H12       1.0  0.3876961810197984  0.5479541949449639  0.9932534651121188  1.0000
  H   H13       1.0  0.48352788310659633  0.719497258677087  0.20094910085976642  1.0000
  H   H14       1.0  0.6445809088422435  0.5507443561160837  0.9530978879670542  1.0000
  H   H15       1.0  0.04296829881396041  0.5381158355157041  0.6847923031100223  1.0000
  H   H16       1.0  0.7841486916061343  0.47232545891063177  0.5885013916934838  1.0000
  C   C1        1.0  0.2664986129758375  0.5034797697139906  0.510901448413172  1.0000
  C   C2        1.0  0.4442538761274974  0.5171896632579231  0.020216073940126502  1.0000
  C   C3        1.0  0.5103435647139635  0.4808699731284419  0.982064632810733  1.0000
  C   C4        1.0  0.737591582879965  0.4879261350513388  0.4780104655813702  1.0000
  C   C5        1.0  0.5129515222025275  0.4835707699208242  0.7638102507058377  1.0000
  C   C6        1.0  0.1679608061092779  0.5019876325442922  0.5181794186004893  1.0000
  C   C7        1.0  0.8351996766276814  0.48783798896705816  0.4748494678110404  1.0000
  C   C8        1.0  0.9690807980588191  0.48363600268444157  0.4059586359851224  1.0000
  C   C9        1.0  0.8775576053148627  0.4870068758328613  0.4108490769882849  1.0000
  C   C10       1.0  0.8860515478871563  0.4890979916784202  0.5356366275138599  1.0000
  C   C11       1.0  0.9805349793479224  0.4974704603168404  0.5314989838295006  1.0000
  C   C12       1.0  0.4458131986927611  0.5154931999790121  0.0954878916934518  1.0000
  C   C13       1.0  0.02274322677742901  0.48937117550052267  0.4662691262106549  1.0000
  C   C14       1.0  0.11623235982187202  0.4876997041940071  0.46149449921102814  1.0000
  C   C15       1.0  0.12763253891669282  0.5179627800009569  0.5825137174861794  1.0000
  C   C16       1.0  0.5174265668212144  0.7340096892811229  0.5022485117063056  1.0000
  C   C17       1.0  0.0348502640296431  0.513420491010187  0.589782925177019  1.0000
  C   C18       1.0  0.5156382922369289  0.8336708980040226  0.4916417284029322  1.0000
  C   C19       1.0  0.4872458476629332  0.17092615500747138  0.5229756082956314  1.0000
  C   C20       1.0  0.4693477714586863  0.038829954075921984  0.5955514719351953  1.0000
  C   C21       1.0  0.4733071596745901  0.13188904130959136  0.5882868744842611  1.0000
  C   C22       1.0  0.49510634566971135  0.11667089981195028  0.4649729775056244  1.0000
  C   C23       1.0  0.43536330709660126  0.43460461764118447  0.1309745641851734  1.0000
  C   C24       1.0  0.5051981438516009  0.021447169444222394  0.47272596067033135  1.0000
  C   C25       1.0  0.4880019896706144  0.982592712127591  0.5380437645840885  1.0000
  C   C26       1.0  0.48956202481251415  0.888413518807958  0.5448061079580171  1.0000
  C   C27       1.0  0.5413132399045607  0.8717316475958152  0.4280316503078084  1.0000
  C   C28       1.0  0.4980099386971801  0.26866946144231446  0.5141226994432273  1.0000
  C   C29       1.0  0.5329703357337153  0.9651481666289214  0.41791827627270806  1.0000
  C   C30       1.0  0.5134547272329115  0.4937787686787799  0.687948489192344  1.0000
  C   C31       1.0  0.47057877645391233  0.5083323279536812  0.3127923935035781  1.0000
  C   C32       1.0  0.456226325581234  0.5127506173356264  0.23931549829984528  1.0000
  C   C33       1.0  0.4641776442341481  0.5946615861944125  0.20273027078991387  1.0000
  C   C34       1.0  0.4385566369398148  0.43269613980307736  0.20267009926528354  1.0000
  C   C35       1.0  0.45821183271775123  0.5945498744664871  0.13168165752516361  1.0000
  C   C36       1.0  0.1743666608002742  0.5371231150373106  0.6433830720791889  1.0000
  C   C37       1.0  0.0109777801304389  0.47609101025587813  0.3410946729276674  1.0000
  C   C38       1.0  0.5757220060719632  0.8194441640402982  0.3730433091793017  1.0000
  C   C39       1.0  0.4487384640662669  0.999242588926847  0.6595191709451458  1.0000
  C   C40       1.0  0.5584203395675259  0.9992898432993441  0.3528225349440035  1.0000
  C   C41       1.0  0.45617630795850067  0.18860815571892425  0.6453423394293836  1.0000
  C   C42       1.0  0.4458633137460879  0.4359293782304049  0.8694784679460099  1.0000
  C   C43       1.0  0.4468927869756385  0.43677329528941294  0.7976774088022864  1.0000
  C   C44       1.0  0.5812330507114966  0.5232827595071113  0.8002700522735822  1.0000
  C   C45       1.0  0.5808871463932873  0.5207190296960177  0.8712510192091116  1.0000
  C   C46       1.0  0.5117949452333619  0.4784727061905939  0.9070812087029196  1.0000
  N   N1        1.0  0.19939566048299887  0.553095116747336  0.6984477796947033  1.0000
  N   N2        1.0  0.046954137895575315  0.4694921155428843  0.288476281465492  1.0000
  N   N3        1.0  0.6062696533772609  0.7834498430525156  0.3254858383358794  1.0000
  N   N4        1.0  0.43192717425182553  0.9647300026086538  0.7114767372385842  1.0000
  N   N5        1.0  0.5827434504546289  0.020696756907668097  0.29869510878996414  1.0000
  N   N6        1.0  0.4391706071403688  0.23606396074899283  0.6906923632423343  1.0000
  O   O1        1.0  0.5012085152605934  0.5038772730599134  0.4997668580300711  1.0000
  O   O2        1.0  0.4493278320685691  0.5377774500507753  0.6602509460510078  1.0000
  O   O3        1.0  0.4450311546889126  0.4363346753318138  0.3450648973275535  1.0000
  O   O4        1.0  0.5805095936502056  0.4594487006636213  0.6569034817990271  1.0000
  O   O5        1.0  0.5083320351445906  0.5717825712754487  0.34377469854494797  1.0000
  O   O6        1.0  0.47566500777367793  0.6730739023060437  0.23573226968881758  1.0000
  O   O7        1.0  0.647730926314658  0.5631722148195734  0.9041044608535032  1.0000
  O   O8        1.0  0.9965487717790609  0.5263451951070761  0.6509667894489937  1.0000
  O   O9        1.0  0.8485895405200952  0.4837796874849757  0.5969739996155567  1.0000
  O   O10       1.0  0.3797012228303558  0.3915892558005254  0.7661679960308589  1.0000
  O   O11       1.0  0.49697865817711323  0.15076290129070458  0.4021501147023656  1.0000
  O   O12       1.0  0.5741365960621961  0.6899893733442041  0.4673772356686996  1.0000
  O   O13       1.0  0.5870026607433588  0.4494592350776329  0.0144915396239895  1.0000
  O   O14       1.0  0.42109165415806876  0.3560015607183828  0.0983373319659577  1.0000
  O   O15       1.0  0.3806550781798849  0.39150332820866407  0.9022866857652901  1.0000
  O   O16       1.0  0.4272587430477729  0.352583942916368  0.23329198229783543  1.0000
  O   O17       1.0  0.46707805999621854  0.6764277776710795  0.0998820476447193  1.0000
  O   O18       1.0  0.467069680062842  0.3033526262030789  0.45829329792236007  1.0000
  O   O19       1.0  0.30641471740997167  0.5588617667475758  0.548038160042637  1.0000
  O   O20       1.0  0.703486348783315  0.4611024637731446  0.5353476213993389  1.0000
  O   O21       1.0  0.30092888501440035  0.4491450281357459  0.467751279703684  1.0000
  O   O22       1.0  0.6923482477571171  0.5140573750701378  0.42657847813948996  1.0000
  O   O23       1.0  0.4621416126492051  0.7040355670190976  0.5453901741780101  1.0000
  O   O24       1.0  0.5395213322255401  0.309391159589559  0.5599699208111987  1.0000
