data_image0
_chemical_formula_structural       Er2H60C60S6O18
_chemical_formula_sum              "Er2 H60 C60 S6 O18"
_cell_length_a       11.773154346515556
_cell_length_b       11.773040037333642
_cell_length_c       11.773007884863958
_cell_angle_alpha    79.7669917006683
_cell_angle_beta     79.7672858275964
_cell_angle_gamma    79.76673399487375

_space_group_name_H-M_alt    "P 1"
_space_group_IT_number       1

loop_
  _space_group_symop_operation_xyz
  'x, y, z'

loop_
  _atom_site_type_symbol
  _atom_site_label
  _atom_site_symmetry_multiplicity
  _atom_site_fract_x
  _atom_site_fract_y
  _atom_site_fract_z
  _atom_site_occupancy
  Er  Er1       1.0  0.17373266025322917  0.17374492266109343  0.1737438444205992  1.0000
  Er  Er2       1.0  0.8262651953034422  0.8262560122129515  0.8262529759163469  1.0000
  H   H1        1.0  0.23682427381226026  0.27640577401012933  0.4427488798069348  1.0000
  H   H2        1.0  0.44275406647549426  0.23682692877670775  0.2764019992460192  1.0000
  H   H3        1.0  0.2764037291366391  0.4427542501108663  0.23682315945183063  1.0000
  H   H4        1.0  0.763176835116134  0.7235907996979095  0.5572506867141557  1.0000
  H   H5        1.0  0.5572495042202946  0.7631818719592547  0.723594942238755  1.0000
  H   H6        1.0  0.723588819172896  0.5572475570819507  0.7631778510499103  1.0000
  H   H7        1.0  0.3746233691235119  0.2928383901190231  0.5714065165347294  1.0000
  H   H8        1.0  0.5714074383976068  0.37463025247340204  0.2928293514837179  1.0000
  H   H9        1.0  0.2928305882718689  0.5714091328892651  0.3746270458626171  1.0000
  H   H10       1.0  0.625376215697969  0.7071625493218721  0.428593391557186  1.0000
  H   H11       1.0  0.42859911767884284  0.6253759301106357  0.7071666749769747  1.0000
  H   H12       1.0  0.7071650810297285  0.4285891862570639  0.6253765784451345  1.0000
  H   H13       1.0  0.32444975583567265  0.44096557069124753  0.7081048506054158  1.0000
  H   H14       1.0  0.7081020110407009  0.32445784987022114  0.44096103930763764  1.0000
  H   H15       1.0  0.4409606918499023  0.7081030904346762  0.32445760670373147  1.0000
  H   H16       1.0  0.675550957569598  0.5590336239878083  0.29189601700725387  1.0000
  H   H17       1.0  0.29190653502021047  0.6755465870104517  0.5590340940993456  1.0000
  H   H18       1.0  0.5590369674361569  0.29189348300828044  0.6755451245503039  1.0000
  H   H19       1.0  0.13888080992180107  0.5774399947824591  0.7090399663767429  1.0000
  H   H20       1.0  0.7090346537322746  0.13888954771068285  0.5774382333031411  1.0000
  H   H21       1.0  0.5774321947443822  0.7090379803542394  0.1388893428131937  1.0000
  H   H22       1.0  0.8611181774504003  0.4225591985547015  0.2909612099329165  1.0000
  H   H23       1.0  0.2909705718342224  0.8611140125604423  0.4225568007629619  1.0000
  H   H24       1.0  0.4225608846996635  0.2909603359730042  0.8611138954270531  1.0000
  H   H25       1.0  0.06383183749147038  0.381693790923599  0.869276143097089  1.0000
  H   H26       1.0  0.8692741297841166  0.06383136062949292  0.38169752283316444  1.0000
  H   H27       1.0  0.3817029712777469  0.8692754536088786  0.06383022230868823  1.0000
  H   H28       1.0  0.9361721972161516  0.6183062811712361  0.13072567296946155  1.0000
  H   H29       1.0  0.13072532023389982  0.936170449512197  0.6182997055416521  1.0000
  H   H30       1.0  0.6183033189815957  0.13072112734980124  0.9361718145733988  1.0000
  H   H31       1.0  0.9181960004575058  0.45985451913616515  0.865337017289214  1.0000
  H   H32       1.0  0.865339501727817  0.918192589032529  0.4598559725488727  1.0000
  H   H33       1.0  0.45985674583209146  0.865351147174465  0.9181926893788912  1.0000
  H   H34       1.0  0.08180544277670518  0.5401455485271073  0.134662714483845  1.0000
  H   H35       1.0  0.1346572284767973  0.08181009382830241  0.5401432847192709  1.0000
  H   H36       1.0  0.5401468909286036  0.13465154347267122  0.081807880440266  1.0000
  H   H37       1.0  0.9452244276418469  0.30178276912479873  0.8719640488356929  1.0000
  H   H38       1.0  0.8719628274138032  0.945223835709989  0.30178341144645054  1.0000
  H   H39       1.0  0.3017907530398674  0.8719581500816678  0.9452231978423953  1.0000
  H   H40       1.0  0.05477960544990169  0.698217301357559  0.12803606900487102  1.0000
  H   H41       1.0  0.1280374872366181  0.054777976715129705  0.6982153608058469  1.0000
  H   H42       1.0  0.6982142075174591  0.1280358093703384  0.05477869575808826  1.0000
  H   H43       1.0  0.7815805364452969  0.2828838360452509  0.028961047355302597  1.0000
  H   H44       1.0  0.028967175202033936  0.7815736970240014  0.28288530810200996  1.0000
  H   H45       1.0  0.282878105822121  0.0289685326028675  0.7815796139373461  1.0000
  H   H46       1.0  0.21842117154824336  0.7171144853790071  0.9710389491740159  1.0000
  H   H47       1.0  0.9710332071291531  0.2184220069247616  0.7171187907106571  1.0000
  H   H48       1.0  0.7171216798677236  0.9710254260483991  0.21842660220605836  1.0000
  H   H49       1.0  0.7483607429667171  0.4319190158660576  0.06002355526728567  1.0000
  H   H50       1.0  0.06002342677899714  0.7483572801094812  0.43192090597010246  1.0000
  H   H51       1.0  0.43190894640599004  0.06002867208309231  0.7483620103225874  1.0000
  H   H52       1.0  0.2516422923050357  0.5680819246461583  0.9399740372046708  1.0000
  H   H53       1.0  0.9399751674938842  0.2516445366174054  0.5680841187701161  1.0000
  H   H54       1.0  0.5680908360521213  0.9399652833432202  0.25164080936885824  1.0000
  H   H55       1.0  0.777001516968319  0.3118498916521304  0.1751617795139566  1.0000
  H   H56       1.0  0.17516062621373854  0.7769946194829207  0.311858591071136  1.0000
  H   H57       1.0  0.31184502185028856  0.17516501833728887  0.7770008595391218  1.0000
  H   H58       1.0  0.22299906486522758  0.6881501769526752  0.8248398048335729  1.0000
  H   H59       1.0  0.824839492973993  0.22300283231734855  0.6881469412112438  1.0000
  H   H60       1.0  0.688155623624361  0.8248289377599749  0.22300180580383272  1.0000
  C   C1        1.0  0.05348394879818127  0.32443264822721585  0.3433918479293752  1.0000
  C   C2        1.0  0.34339673815927785  0.0534815040468999  0.32442651417184015  1.0000
  C   C3        1.0  0.3244036768021203  0.343412642314135  0.053468946240677384  1.0000
  C   C4        1.0  0.9465153033333423  0.6755647988709087  0.6566095931365509  1.0000
  C   C5        1.0  0.6566067581424234  0.9465220516573822  0.6755654321392868  1.0000
  C   C6        1.0  0.6755818333795957  0.6565900310181335  0.9465314684449099  1.0000
  C   C7        1.0  0.026580058181188783  0.41419705134612184  0.4248480608300298  1.0000
  C   C8        1.0  0.42485499720334735  0.02658067270116501  0.41418999696229264  1.0000
  C   C9        1.0  0.4141849790637977  0.42485893436371913  0.026573184481485185  1.0000
  C   C10       1.0  0.9734191923344683  0.5858003941395324  0.5751516820099171  1.0000
  C   C11       1.0  0.5751509565762305  0.9734237589417063  0.585802203038213  1.0000
  C   C12       1.0  0.5858028537923304  0.5751454856079478  0.973424804176368  1.0000
  C   C13       1.0  0.10687321432834548  0.4203011325261131  0.4985375039043162  1.0000
  C   C14       1.0  0.49854096184405716  0.10687620391514233  0.4202964318302165  1.0000
  C   C15       1.0  0.42029995492717376  0.4985415719822371  0.10687045015740179  1.0000
  C   C16       1.0  0.8931267684400549  0.5796971883624809  0.5014636504349853  1.0000
  C   C17       1.0  0.5014649919355205  0.8931282277277364  0.5796957681702821  1.0000
  C   C18       1.0  0.5796934547830261  0.5014602342690537  0.8931287077698612  1.0000
  C   C19       1.0  0.21498759975517598  0.34264133347602416  0.5004755820163851  1.0000
  C   C20       1.0  0.5004785465182665  0.21499051389886156  0.342633584752285  1.0000
  C   C21       1.0  0.34263716840725067  0.5004788897829329  0.21498495102636653  1.0000
  C   C22       1.0  0.7850125145849559  0.657356113486813  0.4995248555880565  1.0000
  C   C23       1.0  0.4995271449257855  0.7850156664017546  0.6573608978309267  1.0000
  C   C24       1.0  0.6573569735556859  0.4995237918712976  0.7850156184002512  1.0000
  C   C25       1.0  0.29135017885752756  0.3510483781068389  0.5733652585426157  1.0000
  C   C26       1.0  0.573364778616245  0.291354684376131  0.35104223733747375  1.0000
  C   C27       1.0  0.35104565446316366  0.5733652050874766  0.29135288779822593  1.0000
  C   C28       1.0  0.7086523945763474  0.648949946407079  0.42663713097718414  1.0000
  C   C29       1.0  0.4266401821909297  0.7086506221340231  0.6489525319723627  1.0000
  C   C30       1.0  0.6489500140304969  0.4266331132526063  0.7086498873965397  1.0000
  C   C31       1.0  0.2635249383051742  0.4360710411184172  0.6499938879432108  1.0000
  C   C32       1.0  0.6499926788263862  0.26353210855034365  0.4360645380375914  1.0000
  C   C33       1.0  0.4360633480262451  0.6499938358716548  0.2635311497182471  1.0000
  C   C34       1.0  0.7364730528628982  0.5639290238610642  0.3500064612238205  1.0000
  C   C35       1.0  0.35001414039352585  0.7364723261821952  0.5639300549533814  1.0000
  C   C36       1.0  0.5639320557080864  0.3500062287074569  0.7364713607202519  1.0000
  C   C37       1.0  0.1604114302225597  0.5119380352660555  0.6506652095274817  1.0000
  C   C38       1.0  0.650663836411695  0.16041599783536503  0.5119381527966667  1.0000
  C   C39       1.0  0.5119371866318118  0.650664826125862  0.1604116447219894  1.0000
  C   C40       1.0  0.8395914055468411  0.48805854059011733  0.3493348974096122  1.0000
  C   C41       1.0  0.3493432459516723  0.8395866890456747  0.48805500672459345  1.0000
  C   C42       1.0  0.48805549486532135  0.34933610875367554  0.839590347270871  1.0000
  C   C43       1.0  0.07914893595475547  0.5078610935324336  0.575230621275594  1.0000
  C   C44       1.0  0.5752297035576747  0.0791547864928503  0.5078592209748151  1.0000
  C   C45       1.0  0.5078573423199089  0.5752286032342581  0.07915350882479538  1.0000
  C   C46       1.0  0.9208485901437056  0.4921363522238025  0.42477112848732185  1.0000
  C   C47       1.0  0.4247761194581015  0.9208505198820095  0.49213454487353653  1.0000
  C   C48       1.0  0.4921332151972281  0.42477494885569206  0.9208475456176687  1.0000
  C   C49       1.0  0.9706380119154331  0.37750823025943  0.898017596950595  1.0000
  C   C50       1.0  0.8980210799811843  0.9706358647855283  0.37750833824693325  1.0000
  C   C51       1.0  0.3775090628666007  0.89802451592589  0.9706382175728764  1.0000
  C   C52       1.0  0.029365290539445275  0.6224909664324728  0.10198280761659358  1.0000
  C   C53       1.0  0.10197777339548958  0.0293642000586658  0.6224910074586205  1.0000
  C   C54       1.0  0.6224926483586728  0.10197380872331512  0.02936517540840806  1.0000
  C   C55       1.0  0.7974809955238982  0.3446421942958651  0.08183454829831759  1.0000
  C   C56       1.0  0.0818365506778065  0.7974737678819963  0.3446464003247414  1.0000
  C   C57       1.0  0.34463738850497805  0.08183997260876913  0.7974798253001794  1.0000
  C   C58       1.0  0.20252057928204442  0.6553569994416578  0.9181644667398885  1.0000
  C   C59       1.0  0.9181635668940586  0.20252368230579523  0.6553574337316589  1.0000
  C   C60       1.0  0.6553639867986046  0.9181548564727182  0.20252170420315  1.0000
  S   S1        1.0  0.9492440942911813  0.35888312738437383  0.054346020222432415  1.0000
  S   S2        1.0  0.05434693035067536  0.9492451612082392  0.358880328784558  1.0000
  S   S3        1.0  0.3588698380088714  0.05435524621815092  0.9492493910836046  1.0000
  S   S4        1.0  0.05075874067028247  0.6411134476655606  0.9456532376016682  1.0000
  S   S5        1.0  0.9456541141286793  0.050757524201102903  0.6411173076281216  1.0000
  S   S6        1.0  0.6411291509791964  0.9456439487314798  0.050753483452041316  1.0000
  O   O1        1.0  0.12373722090939046  0.3482016006279808  0.248575939111511  1.0000
  O   O2        1.0  0.24858310502778375  0.12373978898071414  0.3481945959548938  1.0000
  O   O3        1.0  0.3481834267532875  0.24858304208784435  0.12373366704765941  1.0000
  O   O4        1.0  0.8762567183194603  0.6517967131452594  0.7514237483282785  1.0000
  O   O5        1.0  0.7514162126105716  0.876262894280494  0.6518025000417893  1.0000
  O   O6        1.0  0.6518220021053907  0.7514135398123545  0.8762702224088985  1.0000
  O   O7        1.0  0.007980087309078985  0.2321263536039951  0.3688106723456884  1.0000
  O   O8        1.0  0.36881952508723254  0.007972190424880001  0.2321230500122837  1.0000
  O   O9        1.0  0.23211845328785327  0.36882992363270983  0.00798311175906007  1.0000
  O   O10       1.0  0.9920206913531687  0.7678667301799961  0.6311929744883784  1.0000
  O   O11       1.0  0.6311819844617405  0.9920331142077148  0.7678731858045185  1.0000
  O   O12       1.0  0.7678703908733057  0.6311622929569938  0.992038961478876  1.0000
  O   O13       1.0  0.010072752187518587  0.23526581629364793  0.09203506495672538  1.0000
  O   O14       1.0  0.0920357573283255  0.010070255593952004  0.2352651065034905  1.0000
  O   O15       1.0  0.23525632973713334  0.0920428105764088  0.010066372949722784  1.0000
  O   O16       1.0  0.9899277568678001  0.7647290088919407  0.9079632224431364  1.0000
  O   O17       1.0  0.9079645557062223  0.9899315552186896  0.7647319675228273  1.0000
  O   O18       1.0  0.7647408639212255  0.9079624898952051  0.989929785496557  1.0000
