data_image0
_chemical_formula_structural       H72Pd12C96N48O24
_chemical_formula_sum              "H72 Pd12 C96 N48 O24"
_cell_length_a       16.369978358000328
_cell_length_b       16.36997741800032
_cell_length_c       16.369975644000007
_cell_angle_alpha    90.0000002555035
_cell_angle_beta     89.99999649644744
_cell_angle_gamma    89.99997735466133

_space_group_name_H-M_alt    "P 1"
_space_group_IT_number       1

loop_
  _space_group_symop_operation_xyz
  'x, y, z'

loop_
  _atom_site_type_symbol
  _atom_site_label
  _atom_site_symmetry_multiplicity
  _atom_site_fract_x
  _atom_site_fract_y
  _atom_site_fract_z
  _atom_site_occupancy
  H   H1        1.0  0.5738484879680853  0.7614285493679561  0.41594012653099804  1.0000
  H   H2        1.0  0.9261537841516229  0.7385744469978306  0.4159395048226528  1.0000
  H   H3        1.0  0.9261537897722008  0.7614278681418938  0.0840605749266459  1.0000
  H   H4        1.0  0.5738491134958821  0.7385732941408916  0.0840605856572054  1.0000
  H   H5        1.0  0.41593993675366653  0.5738486035732963  0.7614287329385901  1.0000
  H   H6        1.0  0.41593986783001213  0.9261533045459487  0.7385746985099073  1.0000
  H   H7        1.0  0.0840603813325913  0.9261533701815167  0.7614281330175315  1.0000
  H   H8        1.0  0.08406045165237688  0.5738486691083509  0.7385728752473497  1.0000
  H   H9        1.0  0.7614285184084223  0.41593994808754786  0.5738487239201928  1.0000
  H   H10       1.0  0.7385744762117525  0.41593995337868955  0.9261534638214854  1.0000
  H   H11       1.0  0.7614279623586667  0.0840604440058073  0.9261540732463941  1.0000
  H   H12       1.0  0.7385727199346945  0.08406044774763902  0.5738487238695666  1.0000
  H   H13       1.0  0.2614285355469761  0.07384916572796393  0.5840607267648039  1.0000
  H   H14       1.0  0.23857260186658644  0.4261520386444174  0.5840607282605887  1.0000
  H   H15       1.0  0.2614284557885753  0.42615325660632647  0.9159396575087513  1.0000
  H   H16       1.0  0.23857266135110677  0.07384917097454041  0.9159396574119612  1.0000
  H   H17       1.0  0.0738490235729827  0.9159395512177112  0.2385727432846139  1.0000
  H   H18       1.0  0.4261530927933208  0.9159394816463972  0.2614286003507686  1.0000
  H   H19       1.0  0.4261525482021469  0.5840611984883992  0.23857273175230628  1.0000
  H   H20       1.0  0.07384908846007929  0.5840606572857325  0.2614286103828363  1.0000
  H   H21       1.0  0.915939448012459  0.2614284029232507  0.4261533249955747  1.0000
  H   H22       1.0  0.9159394632898668  0.23857253677699927  0.07384919661652838  1.0000
  H   H23       1.0  0.5840605838481068  0.2614284677336728  0.0738492068252796  1.0000
  H   H24       1.0  0.58406118847855  0.23857260313683779  0.4261521133520745  1.0000
  H   H25       1.0  0.426152605924365  0.23857263468966033  0.5840607220957634  1.0000
  H   H26       1.0  0.07384914236354939  0.2614285696826002  0.5840607329296075  1.0000
  H   H27       1.0  0.07384913674346189  0.23857270504097272  0.9159396628256076  1.0000
  H   H28       1.0  0.42615320214517977  0.2614285007908776  0.9159396520950693  1.0000
  H   H29       1.0  0.5840611571388905  0.4261519696099327  0.2385727265626301  1.0000
  H   H30       1.0  0.5840606151877665  0.07384910126058489  0.2614285936147169  1.0000
  H   H31       1.0  0.9159394908108994  0.0738490356251233  0.2385727156092727  1.0000
  H   H32       1.0  0.9159394204912203  0.4261531258239017  0.2614285842539132  1.0000
  H   H33       1.0  0.238572575484028  0.5840612359700686  0.42615212470656866  1.0000
  H   H34       1.0  0.26142845030383915  0.5840606198041838  0.0738492174285952  1.0000
  H   H35       1.0  0.238572520659595  0.9159395183031548  0.0738492188782232  1.0000
  H   H36       1.0  0.26142837395796187  0.9159395145612022  0.4261533465061119  1.0000
  H   H37       1.0  0.7385743909683241  0.9261532400780793  0.41593951098745646  1.0000
  H   H38       1.0  0.761428492025999  0.573848534538804  0.4159395094917144  1.0000
  H   H39       1.0  0.7385732489781275  0.5738485383255566  0.0840605802435377  1.0000
  H   H40       1.0  0.7614278216666434  0.9261538457063737  0.08406058034037038  1.0000
  H   H41       1.0  0.9261539029427794  0.0840604110907606  0.761428105342091  1.0000
  H   H42       1.0  0.5738486119736876  0.08406048066231621  0.738573470024896  1.0000
  H   H43       1.0  0.57384854569041  0.41593937469482967  0.761428727748914  1.0000
  H   H44       1.0  0.9261532271811319  0.4159399158972618  0.738574681741717  1.0000
  H   H45       1.0  0.08406042413111688  0.7385733920090019  0.5738487453801469  1.0000
  H   H46       1.0  0.08406040885393648  0.7614280364064783  0.9261534846336514  1.0000
  H   H47       1.0  0.41593989916957236  0.7385745489472485  0.9261534744248863  1.0000
  H   H48       1.0  0.4159399054139072  0.7614285809207785  0.5738487352746944  1.0000
  H   H49       1.0  0.6856550014503071  0.6856544461299235  0.4942236847384294  1.0000
  H   H50       1.0  0.8143509311330561  0.8143503832026299  0.49422245934168524  1.0000
  H   H51       1.0  0.8143491388618216  0.6856531978747074  0.0057757946277022  1.0000
  H   H52       1.0  0.6856531583138548  0.8143491858126666  0.005776409731758699  1.0000
  H   H53       1.0  0.4942234657950308  0.6856544843811959  0.6856546412686412  1.0000
  H   H54       1.0  0.4942228255572018  0.8143504471696729  0.8143506180115452  1.0000
  H   H55       1.0  0.005776246045392997  0.8143493216636343  0.6856528238849859  1.0000
  H   H56       1.0  0.005776267547275898  0.6856527485669306  0.8143488000460974  1.0000
  H   H57       1.0  0.6856544225591108  0.4942235166247355  0.6856546349772541  1.0000
  H   H58       1.0  0.8143503737438279  0.4942222697263574  0.8143506074905389  1.0000
  H   H59       1.0  0.6856532934054869  0.005776294542968699  0.8143487777019089  1.0000
  H   H60       1.0  0.8143492524516702  0.0057762688273257  0.6856527973111994  1.0000
  H   H61       1.0  0.18565443887922578  0.18565446610048747  0.505776556661587  1.0000
  H   H62       1.0  0.3143485359392244  0.31434857055038623  0.5057765530138026  1.0000
  H   H63       1.0  0.18565378765385526  0.31434737530815227  0.9942238322500926  1.0000
  H   H64       1.0  0.31434732470389554  0.1856538308682545  0.9942238280205726  1.0000
  H   H65       1.0  0.1856542849384653  0.9942236934810252  0.3143474404410327  1.0000
  H   H66       1.0  0.3143471896127892  0.9942236677659866  0.1856539035482498  1.0000
  H   H67       1.0  0.3143485039564737  0.5057770565581308  0.3143480462728263  1.0000
  H   H68       1.0  0.18565438539511797  0.5057764708329772  0.1856545172573192  1.0000
  H   H69       1.0  0.9942236260980052  0.18565369501740034  0.3143474138673668  1.0000
  H   H70       1.0  0.9942236045966483  0.3143472137421454  0.18565388120407528  1.0000
  H   H71       1.0  0.5057764357113255  0.18565440213466644  0.18565450673649048  1.0000
  H   H72       1.0  0.5057764063482892  0.3143485322998387  0.3143480399815388  1.0000
  Pd  Pd1       1.0  0.5000011160519976  0.7500009363480444  0.2499997474797411  1.0000
  Pd  Pd2       1.0  1.0658991556e-06  0.7500010351569911  0.2500009845310628  1.0000
  Pd  Pd3       1.0  0.24999959792225468  0.5000012528576436  0.7499998876143862  1.0000
  Pd  Pd4       1.0  0.25000091848001194  5.631191086999999e-07  0.7500004973586839  1.0000
  Pd  Pd5       1.0  0.7500009268643097  0.250000197755135  0.5000013324087929  1.0000
  Pd  Pd6       1.0  0.7500009421360545  0.2500008075299434  1.1993603407999998e-06  1.0000
  Pd  Pd7       1.0  0.5000011995893203  0.24999963683493573  0.749999879398075  1.0000
  Pd  Pd8       1.0  5.385618990999998e-07  0.2500009573927855  0.7500005055749597  1.0000
  Pd  Pd9       1.0  0.7500002742212786  0.5000011529490038  0.24999973926350083  1.0000
  Pd  Pd10      1.0  0.7500009839045416  1.0740849774e-06  0.25000095988227855  1.0000
  Pd  Pd11      1.0  0.25000016702808375  0.7500009863024886  0.5000013488413443  1.0000
  Pd  Pd12      1.0  0.25000079317430846  0.7500009852027957  1.2157928708e-06  1.0000
  C   C1        1.0  0.6079279574594096  0.7104394679614856  0.3897892006976277  1.0000
  C   C2        1.0  0.8920743162577766  0.7895635282892853  0.389789192180217  1.0000
  C   C3        1.0  0.8920737295593781  0.7104381894455899  0.1102102787806274  1.0000
  C   C4        1.0  0.6079279503625727  0.7895629729524528  0.11021028765568988  1.0000
  C   C5        1.0  0.3897896221111735  0.6079280692020814  0.7104396536760476  1.0000
  C   C6        1.0  0.3897889526676863  0.8920744601272119  0.7895631684986597  1.0000
  C   C7        1.0  0.11021008821554548  0.8920739043285906  0.7104384411258522  1.0000
  C   C8        1.0  0.1102101419510575  0.6079281246259853  0.7895631764128763  1.0000
  C   C9        1.0  0.7104394508490728  0.38978903639766566  0.6079275788134454  1.0000
  C   C10       1.0  0.7895629432325464  0.3897890213863278  0.892073997935583  1.0000
  C   C11       1.0  0.7104382756712441  0.1102101540997253  0.8920739997252625  1.0000
  C   C12       1.0  0.7895630071610922  0.11021074871278097  0.6079275757599731  1.0000
  C   C13       1.0  0.21043945632730748  0.1079280255605752  0.6102110422030123  1.0000
  C   C14       1.0  0.2895629012374101  0.3920737898009747  0.610210429549234  1.0000
  C   C15       1.0  0.2104387807614145  0.3920731951777583  0.8897899560660391  1.0000
  C   C16       1.0  0.2895623379760721  0.10792739966492351  0.889789342127784  1.0000
  C   C17       1.0  0.1079278749250889  0.8897898445028645  0.28956243319688457  1.0000
  C   C18       1.0  0.39207303002780236  0.8897897881766993  0.21043891032032744  1.0000
  C   C19       1.0  0.39207369373519185  0.6102109054275218  0.289563034743196  1.0000
  C   C20       1.0  0.1079279325915721  0.6102109614057981  0.2104395292590766  1.0000
  C   C21       1.0  0.8897897605390382  0.2104387225273072  0.392073250539866  1.0000
  C   C22       1.0  0.8897891427073361  0.28956222750835536  0.10792744004949377  1.0000
  C   C23       1.0  0.6102109023487399  0.21043938802660014  0.10792805930154968  1.0000
  C   C24       1.0  0.6102108780336548  0.28956289425728693  0.39207387014962336  1.0000
  C   C25       1.0  0.39207374730719385  0.28956293784479203  0.6102104261802096  1.0000
  C   C26       1.0  0.1079279993830511  0.2104394883912661  0.6102110455720577  1.0000
  C   C27       1.0  0.1079279752075877  0.2895623837375183  0.889789348097203  1.0000
  C   C28       1.0  0.39207314352977096  0.210438821979551  0.8897899500966133  1.0000
  C   C29       1.0  0.610210860906747  0.39207372573005733  0.28956302757411106  1.0000
  C   C30       1.0  0.6102109194757545  0.1079279456794353  0.21043951275152034  1.0000
  C   C31       1.0  0.889789173053714  0.10792789060378283  0.2895624075009735  1.0000
  C   C32       1.0  0.8897897301926392  0.39207305943187976  0.21043889396284496  1.0000
  C   C33       1.0  0.2895628647923161  0.6102109259109271  0.39207388068773946  1.0000
  C   C34       1.0  0.2104393724088283  0.610210940922265  0.10792807244006039  1.0000
  C   C35       1.0  0.28956220734718835  0.8897891973348352  0.1079274597759792  1.0000
  C   C36       1.0  0.21043869760583792  0.8897898244703271  0.39207327286677435  1.0000
  C   C37       1.0  0.7895634701879929  0.8920743802454608  0.38978919554924113  1.0000
  C   C38       1.0  0.7104394144036518  0.6079280051307945  0.3897898082030408  1.0000
  C   C39       1.0  0.7895629240055156  0.6079273780053499  0.11021089256070839  1.0000
  C   C40       1.0  0.7104381450419409  0.8920743952672083  0.11021028475008879  1.0000
  C   C41       1.0  0.8920738298418411  0.11021072868024359  0.7104384154298629  1.0000
  C   C42       1.0  0.607928063864854  0.11021017413214197  0.7895631600553514  1.0000
  C   C43       1.0  0.6079280110316816  0.38978966775558627  0.7104396465069199  1.0000
  C   C44       1.0  0.892074383049774  0.3897890009028017  0.7895631519910253  1.0000
  C   C45       1.0  0.11021011160455879  0.7895630724049452  0.6079282089613969  1.0000
  C   C46       1.0  0.11021011856214358  0.710438345675236  0.8920740194517904  1.0000
  C   C47       1.0  0.3897889697947008  0.7895630177800542  0.8920746219486303  1.0000
  C   C48       1.0  0.3897889941098072  0.7104395115493604  0.6079282002260982  1.0000
  C   C49       1.0  0.6254930590771011  0.6254931039238228  0.2727169427040365  1.0000
  C   C50       1.0  0.6694460663732045  0.6694461189568486  0.43192854058818136  1.0000
  C   C51       1.0  0.8745110544145405  0.8745111135604446  0.2727175465201839  1.0000
  C   C52       1.0  0.8305574265184106  0.8305574883534134  0.4319279251470931  1.0000
  C   C53       1.0  0.8745098832642171  0.6254918328649524  0.22728314726463583  1.0000
  C   C54       1.0  0.8305580803451633  0.6694442536948843  0.068070938704679  1.0000
  C   C55       1.0  0.6254917895059293  0.8745099409224009  0.22728315544862446  1.0000
  C   C56       1.0  0.6694442130250664  0.8305581302664746  0.0680715548741517  1.0000
  C   C57       1.0  0.2727167725057598  0.6254931744145296  0.6254932877841596  1.0000
  C   C58       1.0  0.4319283352114526  0.6694461664169323  0.6694463111428064  1.0000
  C   C59       1.0  0.27271732656378583  0.8745112338090731  0.874510763305416  1.0000
  C   C60       1.0  0.43192829845202146  0.8305575680062915  0.8305577302015053  1.0000
  C   C61       1.0  0.2272829430098824  0.8745100204913072  0.6254914571141155  1.0000
  C   C62       1.0  0.06807137761909131  0.8305576395566092  0.6694444900193588  1.0000
  C   C63       1.0  0.2272829846144617  0.6254913513175069  0.8745101532586259  1.0000
  C   C64       1.0  0.0680714045369442  0.6694444060526976  0.83055774097312  1.0000
  C   C65       1.0  0.6254931180168908  0.27271680864620856  0.6254932761901485  1.0000
  C   C66       1.0  0.6694461060562701  0.4319283819333322  0.6694463033367767  1.0000
  C   C67       1.0  0.8745111549587106  0.2727173708578192  0.8745113544018963  1.0000
  C   C68       1.0  0.8305574931190307  0.43192835044914796  0.830557106226081  1.0000
  C   C69       1.0  0.6254912867664685  0.22728302629953126  0.8745095292970361  1.0000
  C   C70       1.0  0.6694443404170087  0.0680708247662167  0.8305577212089686  1.0000
  C   C71       1.0  0.8745099497946354  0.22728297654136748  0.6254914358429672  1.0000
  C   C72       1.0  0.8305575699446377  0.06807140344744769  0.6694444649602147  1.0000
  C   C73       1.0  0.1254930938490944  0.12549312486852668  0.7272833021064926  1.0000
  C   C74       1.0  0.16944611087102146  0.1694461392012911  0.5680717017306876  1.0000
  C   C75       1.0  0.3745104783123309  0.3745105236308746  0.7272826841737441  1.0000
  C   C76       1.0  0.33055747101623467  0.3305575085978488  0.5680710862895992  1.0000
  C   C77       1.0  0.12549182150260657  0.37450935119254325  0.7727170904876528  1.0000
  C   C78       1.0  0.1694448461703928  0.3305569303623699  0.9319286881731158  1.0000
  C   C79       1.0  0.3745093043864216  0.12549185400960985  0.7727170823036857  1.0000
  C   C80       1.0  0.3305568808670429  0.1694448864143183  0.9319286828781584  1.0000
  C   C81       1.0  0.12549175497229467  0.7727175966417406  0.3745094127837802  1.0000
  C   C82       1.0  0.16944535657100349  0.9319291697354188  0.3305563836664973  1.0000
  C   C83       1.0  0.3745091962518499  0.7727169360094237  0.12549193020420546  1.0000
  C   C84       1.0  0.33055675347562635  0.9319291375426176  0.16944496004116869  1.0000
  C   C85       1.0  0.3745104193732516  0.7272825427877548  0.3745106268088279  1.0000
  C   C86       1.0  0.33055743133375154  0.568071580375026  0.3305575996622068  1.0000
  C   C87       1.0  0.12549299330553512  0.727283202324813  0.1254931594715245  1.0000
  C   C88       1.0  0.1694460442710195  0.5680716118592102  0.16944618589844399  1.0000
  C   C89       1.0  0.7727175400080881  0.1254917744408246  0.37450939151267437  1.0000
  C   C90       1.0  0.9319291053986375  0.16944537712430466  0.3305563586074313  1.0000
  C   C91       1.0  0.7727174984037148  0.3745092218658428  0.12549191711707414  1.0000
  C   C92       1.0  0.9319290784810902  0.3305567780050466  0.16944494027703874  1.0000
  C   C93       1.0  0.7272831564536091  0.12549300462063684  0.12549313969366688  1.0000
  C   C94       1.0  0.5680715736911353  0.1694460595491378  0.16944617279759194  1.0000
  C   C95       1.0  0.7272830996373969  0.37451045314090686  0.3745106152149446  1.0000
  C   C96       1.0  0.568071536931704  0.3305574611384968  0.3305575918562908  1.0000
  N   N1        1.0  0.587470392491177  0.690026493157923  0.3134360027645471  1.0000
  N   N2        1.0  0.9125318858901466  0.8099771136314117  0.3134347713383008  1.0000
  N   N3        1.0  0.9125313025953897  0.6900258177666815  0.18656469837034706  1.0000
  N   N4        1.0  0.5874703726621391  0.8099759558415799  0.1865647085898914  1.0000
  N   N5        1.0  0.3134358300487534  0.5874705117370238  0.6900260642015823  1.0000
  N   N6        1.0  0.3134351512726923  0.9125320477700143  0.8099767626467127  1.0000
  N   N7        1.0  0.1865651032736722  0.9125314617036223  0.6900254579446923  1.0000
  N   N8        1.0  0.18656455297342942  0.5874705370728462  0.8099755440459333  1.0000
  N   N9        1.0  0.6900264890563862  0.3134358501479327  0.5874706154140624  1.0000
  N   N10       1.0  0.8099765460773015  0.3134346054097321  0.9125321827387082  1.0000
  N   N11       1.0  0.6900258933254833  0.18656457016606248  0.9125315752485648  1.0000
  N   N12       1.0  0.8099759702033181  0.18656454574693265  0.5874706114562684  1.0000
  N   N13       1.0  0.19002648053168508  0.08747045725342417  0.6865648521690062  1.0000
  N   N14       1.0  0.30997587236863205  0.4125319693183441  0.6865648492326955  1.0000
  N   N15       1.0  0.1900251906700277  0.4125313824273603  0.8134355364750759  1.0000
  N   N16       1.0  0.3099759327314899  0.08747043382827258  0.8134355320692918  1.0000
  N   N17       1.0  0.0874703180561553  0.813436047477424  0.30997541454097177  1.0000
  N   N18       1.0  0.4125312279489748  0.813435372101402  0.19002531775660708  1.0000
  N   N19       1.0  0.41253186023150334  0.6865647025426185  0.3099760151802258  1.0000
  N   N20       1.0  0.08747034679187489  0.6865647665167954  0.190026549167186  1.0000
  N   N21       1.0  0.8134353563452025  0.190025148108468  0.4125314384310029  1.0000
  N   N22       1.0  0.8134359534437292  0.3099758321049393  0.08747047858086177  1.0000
  N   N23       1.0  0.6865647037362663  0.19002639421430698  0.0874704821926144  1.0000
  N   N24       1.0  0.6865652809778809  0.3099758578917076  0.41253205345941507  1.0000
  N   N25       1.0  0.4125319231497499  0.3099759126482339  0.6865648458621862  1.0000
  N   N26       1.0  0.0874704297505673  0.19002651392353442  0.6865648555395154  1.0000
  N   N27       1.0  0.08747040217131288  0.3099759771652089  0.8134355393819419  1.0000
  N   N28       1.0  0.4125313321046846  0.1900252282159158  0.8134355291623976  1.0000
  N   N29       1.0  0.6865652638434199  0.4125318940693816  0.3099760061741037  1.0000
  N   N30       1.0  0.6865647208706064  0.08747096891102758  0.190026529477926  1.0000
  N   N31       1.0  0.8134359906186647  0.08747033322838858  0.3099753906820766  1.0000
  N   N32       1.0  0.8134353191701819  0.41253125785940625  0.1900253045808711  1.0000
  N   N33       1.0  0.30997582658472567  0.6865653339094493  0.41253206583604646  1.0000
  N   N34       1.0  0.1900263804385318  0.6865647460243522  0.0874704985113723  1.0000
  N   N35       1.0  0.3099758114414044  0.8134360030170457  0.0874704951270999  1.0000
  N   N36       1.0  0.19002512368933816  0.8134354165619088  0.4125314589194104  1.0000
  N   N37       1.0  0.8099764459836293  0.912531948552612  0.3134347747087886  1.0000
  N   N38       1.0  0.6900264432722947  0.5874704364878128  0.3134359993940378  1.0000
  N   N39       1.0  0.809975903222316  0.5874704125046507  0.18656470127723418  1.0000
  N   N40       1.0  0.6900257720352129  0.9125313611036107  0.1865647056829971  1.0000
  N   N41       1.0  0.9125313867106469  0.18656513658007162  0.6900254340857755  1.0000
  N   N42       1.0  0.5874704768180691  0.1865645902073112  0.8099755308701404  1.0000
  N   N43       1.0  0.5874704554097434  0.3134358706403688  0.6900260551954176  1.0000
  N   N44       1.0  0.9125319688495779  0.3134345849174095  0.8099767429573674  1.0000
  N   N45       1.0  0.1865645157985014  0.809976035949397  0.5874706319447185  1.0000
  N   N46       1.0  0.18656514044856456  0.6900259628270718  0.9125315917948242  1.0000
  N   N47       1.0  0.31343455753269467  0.8099766224668554  0.9125321990575869  1.0000
  N   N48       1.0  0.31343581291427114  0.6900265479146982  0.5874706277907293  1.0000
  O   O1        1.0  0.6033659746034558  0.6033660159229797  0.20379747609832316  1.0000
  O   O2        1.0  0.8966393648467486  0.8966394230067108  0.20379868953452976  1.0000
  O   O3        1.0  0.8966381982324875  0.6033622929240038  0.296202002895825  1.0000
  O   O4        1.0  0.60336224857911  0.8966382594179333  0.2962020125343514  1.0000
  O   O5        1.0  0.2037973217476647  0.6033660957635902  0.6033661952235292  1.0000
  O   O6        1.0  0.20379847658264083  0.8966395614481114  0.896639692707943  1.0000
  O   O7        1.0  0.29620178424512744  0.896638320793819  0.6033625278116188  1.0000
  O   O8        1.0  0.29620183324396976  0.6033624129014044  0.8966378565937061  1.0000
  O   O9        1.0  0.6033660413610632  0.2037973532060988  0.6033655712172247  1.0000
  O   O10       1.0  0.8966394806025376  0.20379851764376156  0.8966396699376915  1.0000
  O   O11       1.0  0.6033623488965177  0.29620187961103284  0.896637846498862  1.0000
  O   O12       1.0  0.8966382495510601  0.29620182100951814  0.6033625080782486  1.0000
  O   O13       1.0  0.10336539429110297  0.10336542629653418  0.796202769966591  1.0000
  O   O14       1.0  0.39663939540869825  0.39663944425453207  0.7962015399049489  1.0000
  O   O15       1.0  0.10336289566020439  0.39663766938483036  0.7037988457309368  1.0000
  O   O16       1.0  0.3966376235646294  0.10336292463992441  0.703798836092453  1.0000
  O   O17       1.0  0.10336284434153241  0.7037987521737036  0.39663772967405453  1.0000
  O   O18       1.0  0.3966381341217156  0.7037986935723167  0.1033623912534694  1.0000
  O   O19       1.0  0.3966393286522347  0.7962013873531147  0.396639553530612  1.0000
  O   O20       1.0  0.10336588941027709  0.7962026664130163  0.1033654548101524  1.0000
  O   O21       1.0  0.7037986987729851  0.10336286326391789  0.39663770994070546  1.0000
  O   O22       1.0  0.7037986497742638  0.39663816028193827  0.10336238115862527  1.0000
  O   O23       1.0  0.7962026173088361  0.10336589873026009  0.103365432040043  1.0000
  O   O24       1.0  0.7962013286463686  0.3966393644152646  0.3966395403989864  1.0000
