data_image0
_chemical_formula_structural       Cu4H40C40N4O16
_chemical_formula_sum              "Cu4 H40 C40 N4 O16"
_cell_length_a       6.510811796
_cell_length_b       11.245018168491717
_cell_length_c       14.3863
_cell_angle_alpha    108.46248740171984
_cell_angle_beta     90.0
_cell_angle_gamma    90.0

_space_group_name_H-M_alt    "P 1"
_space_group_IT_number       1

loop_
  _space_group_symop_operation_xyz
  'x, y, z'

loop_
  _atom_site_type_symbol
  _atom_site_label
  _atom_site_symmetry_multiplicity
  _atom_site_fract_x
  _atom_site_fract_y
  _atom_site_fract_z
  _atom_site_occupancy
  Cu  Cu1       1.0  0.9677195712938416  0.5443131094198391  0.426854787842494  1.0000
  Cu  Cu2       1.0  0.46771894126487723  0.9556882202414059  0.07314561080588783  1.0000
  Cu  Cu3       1.0  0.0322847605776531  0.4556915271672892  0.5731556742926855  1.0000
  Cu  Cu4       1.0  0.5322853906066101  0.044309853589702186  0.9268479344901908  1.0000
  H   H1        1.0  0.5429322964260379  0.5545519463512676  0.358210429358401  1.0000
  H   H2        1.0  0.0429424177445554  0.9454512583831303  0.14178765301333837  1.0000
  H   H3        1.0  0.4570551404708426  0.4454545653090135  0.6417914605482906  1.0000
  H   H4        1.0  0.9570526986862407  0.0545496280576998  0.8582093689253725  1.0000
  H   H5        1.0  0.34652821655605254  0.5326745303825006  0.2070139457392486  1.0000
  H   H6        1.0  0.8465380620257152  0.9673258617421678  0.29298344041289676  1.0000
  H   H7        1.0  0.6534668998747364  0.4673347938875024  0.7929865550697457  1.0000
  H   H8        1.0  0.1534678057525625  0.0326665868694889  0.7070149683958462  1.0000
  H   H9        1.0  0.8963045136069212  0.6354332266437481  0.08325491331796536  1.0000
  H   H10       1.0  0.3963069553915304  0.8645624777980528  0.416742702679727  1.0000
  H   H11       1.0  0.10370135417134922  0.3645657847239363  0.9167472053204335  1.0000
  H   H12       1.0  0.6037065919206626  0.1354318458867567  0.5832492192178121  1.0000
  H   H13       1.0  0.0756572322214311  0.6449126589497353  0.23877491075280938  1.0000
  H   H14       1.0  0.5756578622503952  0.8550877331749404  0.2612259509281429  1.0000
  H   H15       1.0  0.9243424919297142  0.35509010256424733  0.7612302214956586  1.0000
  H   H16       1.0  0.4243449337143162  0.14491221572932028  0.7387659731970473  1.0000
  H   H17       1.0  0.32927383975637536  0.5914055715630084  0.05277887021478725  1.0000
  H   H18       1.0  0.8292760056921156  0.9085957580982366  0.4472166626932719  1.0000
  H   H19       1.0  0.6707289562083361  0.40859343980466883  0.9472176875775276  1.0000
  H   H20       1.0  0.1707375416200705  0.09140231573287139  0.5527817483431292  1.0000
  H   H21       1.0  0.5542258190010827  0.6351932172806443  0.0035037124738935064  1.0000
  H   H22       1.0  0.054222117158552414  0.8648024871611497  0.4964918182065148  1.0000
  H   H23       1.0  0.445781584683978  0.3648029814773111  0.9964935393103574  1.0000
  H   H24       1.0  0.9457883583400674  0.135194649133382  0.5035056656509269  1.0000
  H   H25       1.0  0.5138007524737844  0.7070347699206393  0.7233118604263211  1.0000
  H   H26       1.0  0.0138047301651696  0.792967497277182  0.7766887702952586  1.0000
  H   H27       1.0  0.4861928280502212  0.2929661165201907  0.2766962832045508  1.0000
  H   H28       1.0  0.986187314452053  0.2070333891636551  0.22330616632616798  1.0000
  H   H29       1.0  0.6718609195073739  0.8269944497164445  0.7095967352833981  1.0000
  H   H30       1.0  0.1718648971987591  0.6730087550179533  0.7904027372998641  1.0000
  H   H31       1.0  0.3281326610166388  0.17300924933410758  0.2904183605189132  1.0000
  H   H32       1.0  0.8281225396981213  0.32698744374000904  0.2095833927922257  1.0000
  H   H33       1.0  0.3252835539342627  0.8568784280324593  0.6569591741006633  1.0000
  H   H34       1.0  0.825287255776793  0.6431247767019315  0.8430396033768304  1.0000
  H   H35       1.0  0.6747115624965332  0.1431243334815164  0.3430529092054044  1.0000
  H   H36       1.0  0.1747001811200874  0.35687798481204414  0.1569502365449083  1.0000
  H   H37       1.0  0.4869177760517758  0.8157796372108379  0.5517676043865621  1.0000
  H   H38       1.0  0.9869199419875232  0.6842188798406851  0.9482314029364717  1.0000
  H   H39       1.0  0.5130834840061453  0.1842249993762906  0.44824355285437884  1.0000
  H   H40       1.0  0.013076710350056002  0.31577263123440247  0.0517591276357123  1.0000
  C   C1        1.0  0.6181041821040552  0.569072512818984  0.2951420512859356  1.0000
  C   C2        1.0  0.11811430342257273  0.9309278793056917  0.20485602997197108  1.0000
  C   C3        1.0  0.38188786251317464  0.43093212376814444  0.7048593744743601  1.0000
  C   C4        1.0  0.8818854207285726  0.0690701945254162  0.7951402957471458  1.0000
  C   C5        1.0  0.5084819072844198  0.5578098859480676  0.2099292100253791  1.0000
  C   C6        1.0  0.0084904926961613  0.9421895686400247  0.2900686391593368  1.0000
  C   C7        1.0  0.4915132091463691  0.4421956881756302  0.790071752702353  1.0000
  C   C8        1.0  0.9915169109888994  0.0578056925813542  0.7099318560805159  1.0000
  C   C9        1.0  0.6054836360685343  0.579359164115715  0.12993570482756664  1.0000
  C   C10       1.0  0.10548914966670961  0.920639352935808  0.3700619122839511  1.0000
  C   C11       1.0  0.3945160880826037  0.42064172232511504  0.87006409753419  1.0000
  C   C12       1.0  0.8945213258319172  0.07935872089529988  0.629935108540927  1.0000
  C   C13       1.0  0.8138447502437955  0.6122976365918475  0.1412296202521972  1.0000
  C   C14       1.0  0.3138456561216217  0.8876999429230992  0.35876915499764556  1.0000
  C   C15       1.0  0.18615804572090874  0.38770231231240604  0.8587734255651611  1.0000
  C   C16       1.0  0.686161747563439  0.11229531829827977  0.641223694078846  1.0000
  C   C17       1.0  0.9138153868393601  0.619025399051324  0.22835197478971028  1.0000
  C   C18       1.0  0.4138239722510946  0.8809721804636295  0.27164610535437106  1.0000
  C   C19       1.0  0.0861766577778695  0.38097173724321454  0.7716496797022928  1.0000
  C   C20       1.0  0.5861772878068336  0.11902870597720748  0.7283467459497786  1.0000
  C   C21       1.0  0.4920461688000516  0.5671430625484177  0.036494519094141274  1.0000
  C   C22       1.0  0.9920483347357988  0.9328554545031053  0.4635024029116154  1.0000
  C   C23       1.0  0.5079581630714358  0.43285782389241934  0.9635045881618468  1.0000
  C   C24       1.0  0.0079652125763872  0.0671398067182736  0.5364939216936763  1.0000
  C   C25       1.0  0.7340958623525822  0.6484687351772677  0.6073139786742985  1.0000
  C   C26       1.0  0.23409369641684216  0.8515325944839773  0.8926850297625677  1.0000
  C   C27       1.0  0.2659007899849897  0.3515368389464371  0.3926932400052792  1.0000
  C   C28       1.0  0.7659029559207369  0.148460791664256  0.10730735516753503  1.0000
  C   C29       1.0  0.5824987910616599  0.7438949578884075  0.6686121343963265  1.0000
  C   C30       1.0  0.0824981610326958  0.7561054342362609  0.8313880321788645  1.0000
  C   C31       1.0  0.417497861275912  0.2561087411621443  0.3313974005599007  1.0000
  C   C32       1.0  0.9174923476777437  0.2438907645216943  0.1686064391823408  1.0000
  C   C33       1.0  0.4182105220232017  0.7810157810239247  0.6077286190351359  1.0000
  C   C34       1.0  0.918214223865732  0.7189855486373274  0.8922717796132459  1.0000
  C   C35       1.0  0.5817876662211532  0.21898885556321085  0.3922818431000437  1.0000
  C   C36       1.0  0.0817808925650567  0.28101065012063486  0.10772199664219777  1.0000
  C   C37       1.0  0.26911544288171296  0.675196027846539  0.5593446562012971  1.0000
  C   C38       1.0  0.769117608817453  0.8248043642781298  0.9406548152681325  1.0000
  C   C39       1.0  0.7308827453626493  0.3248086087405895  0.44066441572236664  1.0000
  C   C40       1.0  0.23087904352011893  0.1751927720164019  0.059341973483547895  1.0000
  N   N1        1.0  0.8199284770110753  0.5968423461592351  0.3045128792462606  1.0000
  N   N2        1.0  0.3199355265160265  0.9031599210385863  0.19548497105228083  1.0000
  N   N3        1.0  0.1800681753265039  0.4031622904278932  0.6954899367255577  1.0000
  N   N4        1.0  0.6800657335419018  0.09684002786566737  0.8045090383901936  1.0000
  O   O1        1.0  0.7691636860209456  0.6531292294897069  0.5214674824621355  1.0000
  O   O2        1.0  0.2691599841784154  0.8468767878544126  0.9785319912349522  1.0000
  O   O3        1.0  0.2308375740369826  0.3468754070974214  0.4785415894615284  1.0000
  O   O4        1.0  0.7308412758795131  0.1531212859766953  0.021459468743849193  1.0000
  O   O5        1.0  0.8166155260802412  0.5739748915676728  0.6474298479810727  1.0000
  O   O6        1.0  0.31661950377163356  0.9260236254838503  0.8525684642362066  1.0000
  O   O7        1.0  0.18338573397767993  0.4260344327023304  0.3525838598373666  1.0000
  O   O8        1.0  0.6833848280998611  0.0739631979083626  0.14741673533544028  1.0000
  O   O9        1.0  0.1877799632837025  0.6731775116013807  0.478280854774951  1.0000
  O   O10       1.0  0.6877790574058835  0.8268247555964405  0.02171908084087448  1.0000
  O   O11       1.0  0.8122182249606524  0.3268271249857477  0.5217309975717512  1.0000
  O   O12       1.0  0.3122129872113391  0.17317050562494526  0.9782744633413784  1.0000
  O   O13       1.0  0.23304620799086712  0.5989068016965433  0.6063564221666979  1.0000
  O   O14       1.0  0.7330483739266143  0.9010954655012781  0.8936449036606432  1.0000
  O   O15       1.0  0.7669611956941935  0.4010940847442868  0.39365380678145817  1.0000
  O   O16       1.0  0.26696210157201256  0.0989101086224267  0.10635397374980471  1.0000
