data_image0
_chemical_formula_structural       Cu2P4H64C40N12Cl12O16
_chemical_formula_sum              "Cu2 P4 H64 C40 N12 Cl12 O16"
_cell_length_a       10.249744160785818
_cell_length_b       12.750830394101195
_cell_length_c       14.375047175880946
_cell_angle_alpha    101.49218857364224
_cell_angle_beta     99.23793966970405
_cell_angle_gamma    113.22999297593559

_space_group_name_H-M_alt    "P 1"
_space_group_IT_number       1

loop_
  _space_group_symop_operation_xyz
  'x, y, z'

loop_
  _atom_site_type_symbol
  _atom_site_label
  _atom_site_symmetry_multiplicity
  _atom_site_fract_x
  _atom_site_fract_y
  _atom_site_fract_z
  _atom_site_occupancy
  Cu  Cu1       1.0  0.22180572452352734  0.9698177705805907  0.7391520984666259  1.0000
  Cu  Cu2       1.0  0.7781941616308926  0.03018554400964041  0.2608502860114257  1.0000
  P   P1        1.0  0.2264011368918091  0.17826725917390016  0.6569257708198819  1.0000
  P   P2        1.0  0.7735938724785  0.8217307026611278  0.3430744073692722  1.0000
  P   P3        1.0  0.24381648114953677  0.7717829735309037  0.8256397562987062  1.0000
  P   P4        1.0  0.7561868531756559  0.22822301904943035  0.174360720001367  1.0000
  H   H1        1.0  0.4747293544114014  0.982828855745467  0.09802340926993483  1.0000
  H   H2        1.0  0.5252750603922394  0.017170011426081506  0.9019752517447016  1.0000
  H   H3        1.0  0.2963216837899055  0.4045346266394675  0.644622825074869  1.0000
  H   H4        1.0  0.7036777937976523  0.5954642330071849  0.35537386218807404  1.0000
  H   H5        1.0  0.47751709339971177  0.6909662786382214  0.9429346151322022  1.0000
  H   H6        1.0  0.522482353407895  0.3090343627006717  0.0570637715825484  1.0000
  H   H7        1.0  0.40507142409989416  0.4642417207974957  0.824435745941777  1.0000
  H   H8        1.0  0.5949275172427447  0.5357598106525715  0.175562737030198  1.0000
  H   H9        1.0  0.5364266277530233  0.7880669635652994  0.8685793750273163  1.0000
  H   H10       1.0  0.46357576063248007  0.2119354640290396  0.13142036613311353  1.0000
  H   H11       1.0  0.07570639092418928  0.3719712597250436  0.7286040801264307  1.0000
  H   H12       1.0  0.9243023951986019  0.6280338503128889  0.2713968834343278  1.0000
  H   H13       1.0  0.8790409403077392  0.585918771447453  0.8211092011243863  1.0000
  H   H14       1.0  0.12096245900769986  0.41408187592451634  0.1788903475215946  1.0000
  H   H15       1.0  0.9553070319919569  0.19549959387030214  0.6223078184891123  1.0000
  H   H16       1.0  0.04468650087991925  0.8044992566499332  0.37768955878610905  1.0000
  H   H17       1.0  0.6024012409395637  0.3131331340124106  0.6667098785334176  1.0000
  H   H18       1.0  0.3975913323178232  0.6868621514559905  0.3332888489528401  1.0000
  H   H19       1.0  0.506743928934611  0.19858381954073678  0.7177964686799073  1.0000
  H   H20       1.0  0.493251066760905  0.8014141422284595  0.2822057948599266  1.0000
  H   H21       1.0  0.2256303299590031  0.8243394437208807  0.012427284865516742  1.0000
  H   H22       1.0  0.7743725593332015  0.17566209374032843  0.9875730551545772  1.0000
  H   H23       1.0  0.7754707314988563  0.4924852162718452  0.6429304354054041  1.0000
  H   H24       1.0  0.2245312164119184  0.5075127562253102  0.357068474358151  1.0000
  H   H25       1.0  0.8876791737172381  0.0765752622550622  0.5108005277179117  1.0000
  H   H26       1.0  0.11231981894083984  0.9234209239208154  0.4891991129506508  1.0000
  H   H27       1.0  0.2686468522515285  0.17181461961088473  0.47522965616145296  1.0000
  H   H28       1.0  0.7313550546348608  0.8281833526887754  0.5247755096541411  1.0000
  H   H29       1.0  0.47318740417912136  0.4414786954061043  0.6227746532409314  1.0000
  H   H30       1.0  0.5268121201656086  0.55851481894441  0.3772238868354876  1.0000
  H   H31       1.0  0.9429805640232657  0.7004258460013874  0.7636016152570806  1.0000
  H   H32       1.0  0.057019872050865755  0.2995747968512533  0.2363968881612521  1.0000
  H   H33       1.0  0.02303878908734447  0.3436118373853034  0.5276875448914922  1.0000
  H   H34       1.0  0.9769572631207593  0.6563843443809674  0.4723075749649723  1.0000
  H   H35       1.0  0.2794701979671642  0.7119273532320634  0.031185170155829684  1.0000
  H   H36       1.0  0.7205307435719348  0.2880723995094031  0.9688132370052857  1.0000
  H   H37       1.0  0.19989628752254165  0.3268572625635927  0.439644594752842  1.0000
  H   H38       1.0  0.8001051765866761  0.6731398183086199  0.5603541020499065  1.0000
  H   H39       1.0  0.06370114640501612  0.5020567330933546  0.8768419482863195  1.0000
  H   H40       1.0  0.9363041755697594  0.49794926255837874  0.12315737118713338  1.0000
  H   H41       1.0  0.2408037571222437  0.5691559219232262  0.855909294709015  1.0000
  H   H42       1.0  0.7592020486540889  0.4308509653534502  0.1440902377252442  1.0000
  H   H43       1.0  0.5006201116460787  0.5847054046817703  0.7765771948829396  1.0000
  H   H44       1.0  0.49938083900954655  0.415294348103579  0.22341982204439148  1.0000
  H   H45       1.0  0.13188105697874863  0.49469367596957886  0.676087572591328  1.0000
  H   H46       1.0  0.8681223252315462  0.5053087531604561  0.32391159015578813  1.0000
  H   H47       1.0  0.7106904186462158  0.3872870759156726  0.8454479493666724  1.0000
  H   H48       1.0  0.2893080514417504  0.6127117821294519  0.1545514016602496  1.0000
  H   H49       1.0  0.9538485117887204  0.5613841813544341  0.6215417462314577  1.0000
  H   H50       1.0  0.04615293521534617  0.438614681275844  0.3784565646724332  1.0000
  H   H51       1.0  0.8342335772683498  0.2371586164379949  0.47597317313530846  1.0000
  H   H52       1.0  0.16576154267485071  0.7628340004081126  0.5240191262308258  1.0000
  H   H53       1.0  0.5318610568758046  0.34726108632242614  0.8673994681333709  1.0000
  H   H54       1.0  0.4681388555002925  0.6527404465536222  0.13260191200976124  1.0000
  H   H55       1.0  0.13085141819596663  0.2050433718672196  0.3290308288154407  1.0000
  H   H56       1.0  0.869152555005037  0.7949492583613063  0.6709701671687611  1.0000
  H   H57       1.0  0.6527251268378078  0.9640152499357981  0.01703141794541815  1.0000
  H   H58       1.0  0.3472792697327733  0.03598361714797701  0.9829700235367866  1.0000
  H   H59       1.0  0.7170608628149323  0.8565378548349755  0.035065183476156433  1.0000
  H   H60       1.0  0.2829386307498537  0.14345744120777232  0.9649350560520702  1.0000
  H   H61       1.0  0.4142844113735221  0.890185533791886  0.17558311356425094  1.0000
  H   H62       1.0  0.5857189708367656  0.10981689533815601  0.8244160491828652  1.0000
  H   H63       1.0  0.08452846018765568  0.059752084786794106  0.42109967994026926  1.0000
  H   H64       1.0  0.9154719736306518  0.9402449943741688  0.5789051562109364  1.0000
  C   C1        1.0  0.3767219555488877  0.8265119183209747  0.6911894304246999  1.0000
  C   C2        1.0  0.6232856828027736  0.17350922600385132  0.30880863845961676  1.0000
  C   C3        1.0  0.970243893788144  0.16904152863562422  0.5490135158128027  1.0000
  C   C4        1.0  0.029752619430183817  0.8309555446458603  0.4509852925889248  1.0000
  C   C5        1.0  0.09655780750663467  0.1340224424088206  0.7951313874701498  1.0000
  C   C6        1.0  0.9034377438413801  0.8659675021291523  0.20487510387547314  1.0000
  C   C7        1.0  0.48240465043253516  0.8047246264886211  0.6300549602280084  1.0000
  C   C8        1.0  0.517596679137931  0.1952831447783794  0.36994628699982  1.0000
  C   C9        1.0  0.3181801607045216  0.8010115985919556  0.019156600861450133  1.0000
  C   C10       1.0  0.6818212646361345  0.19898904577444654  0.9808420192604714  1.0000
  C   C11       1.0  0.0245165048489042  0.18136440152910893  0.8723451255689412  1.0000
  C   C12       1.0  0.9754785170682891  0.818631778525905  0.1276561336359663  1.0000
  C   C13       1.0  0.1526411436753534  0.15434226769389173  0.4631109656866954  1.0000
  C   C14       1.0  0.8473578090862546  0.8456557001303296  0.5368917646674731  1.0000
  C   C15       1.0  0.4048796859963204  0.40854192934410355  0.6722838868463157  1.0000
  C   C16       1.0  0.5951173064652976  0.5914560355403753  0.32771582963311374  1.0000
  C   C17       1.0  0.49992696243128165  0.7809377089427869  0.935594951699649  1.0000
  C   C18       1.0  0.5000719914582348  0.21906204072727328  0.06440461228808658  1.0000
  C   C19       1.0  0.12325869794999277  0.5431219352358738  0.8262969299722301  1.0000
  C   C20       1.0  0.8767461402232257  0.4568831687909239  0.1737021765404165  1.0000
  C   C21       1.0  0.619896423285567  0.8735832870311454  0.024852018327834517  1.0000
  C   C22       1.0  0.38010403788232594  0.12641379226148086  0.9751486471220119  1.0000
  C   C23       1.0  0.4445285500660319  0.8925185135568513  0.10604520772095333  1.0000
  C   C24       1.0  0.5554733454013814  0.10748302236865474  0.8939557107124473  1.0000
  C   C25       1.0  0.9479963130164678  0.24899977255905983  0.48895244392328163  1.0000
  C   C26       1.0  0.051999760855046866  0.750994627471087  0.5110423667151522  1.0000
  C   C27       1.0  0.12113868336228963  0.23206443301604202  0.4039248022469124  1.0000
  C   C28       1.0  0.8788623357139399  0.7679281927370452  0.5960737582758641  1.0000
  C   C29       1.0  0.0663856263574871  0.4538430288990654  0.7246209624003797  1.0000
  C   C30       1.0  0.9336197298275833  0.5461594032365369  0.27537912887079596  1.0000
  C   C31       1.0  0.9486079735704962  0.6189019909373173  0.7725827607208802  1.0000
  C   C32       1.0  0.0513929508634519  0.38109954356220754  0.22741526054137753  1.0000
  C   C33       1.0  0.8940589170011534  0.5239543036238106  0.6736583506084699  1.0000
  C   C34       1.0  0.10594399851273556  0.4760454521232236  0.3263409850767047  1.0000
  C   C35       1.0  0.4783761477366042  0.4930773398600936  0.776348367883479  1.0000
  C   C36       1.0  0.5216228198277121  0.5069224098757985  0.22364911075357696  1.0000
  C   C37       1.0  0.5280851131374503  0.2888947337605501  0.7145553216281115  1.0000
  C   C38       1.0  0.47190892407147794  0.711101444802658  0.2854451257563184  1.0000
  C   C39       1.0  0.5994002048082194  0.37811201755812374  0.8169109633241831  1.0000
  C   C40       1.0  0.40059823905806974  0.6218886222011761  0.1830893920376653  1.0000
  N   N1        1.0  0.3275684775557084  0.7504285196385401  0.7404733177228595  1.0000
  N   N2        1.0  0.672432331747082  0.24957835982797158  0.25953327747929933  1.0000
  N   N3        1.0  0.3667427216334289  0.7989372383985015  0.9286629223376437  1.0000
  N   N4        1.0  0.6332596713103341  0.20106518921777913  0.07133612370589051  1.0000
  N   N5        1.0  0.15054949136580117  0.20747091055856257  0.7445632014890222  1.0000
  N   N6        1.0  0.8494455145741495  0.7925288331003627  0.2554345054505944  1.0000
  N   N7        1.0  0.10107517365826627  0.648517526277651  0.8204568700034827  1.0000
  N   N8        1.0  0.898930179096453  0.351486687681856  0.17954075001815542  1.0000
  N   N9        1.0  0.38878910494312885  0.28880958228611325  0.6702588784199293  1.0000
  N   N10       1.0  0.6112058907523873  0.7111883794830761  0.3297433851198975  1.0000
  N   N11       1.0  0.11985047502170688  0.1794646730228848  0.5583158671298634  1.0000
  N   N12       1.0  0.8801479551697894  0.8205359666705829  0.4416865735826647  1.0000
  Cl  Cl1       1.0  0.9462777754435338  0.07688934246751701  0.9359177993306815  1.0000
  Cl  Cl2       1.0  0.053716248090608903  0.9231068360298523  0.06408473340442813  1.0000
  Cl  Cl3       1.0  0.8848091970702044  0.21160080647560162  0.8084114718916952  1.0000
  Cl  Cl4       1.0  0.11518781249656486  0.7883953766508116  0.19158863048659217  1.0000
  Cl  Cl5       1.0  0.1633291819582752  0.3158418764091948  0.9609112103659356  1.0000
  Cl  Cl6       1.0  0.8366682931769847  0.6841551982543879  0.039091885440733276  1.0000
  Cl  Cl7       1.0  0.49443708659183033  0.8747323822646041  0.5350713107866768  1.0000
  Cl  Cl8       1.0  0.5055652801302557  0.125271827065859  0.4649287395917839  1.0000
  Cl  Cl9       1.0  0.6594738743522867  0.870635645313165  0.7181905728347077  1.0000
  Cl  Cl10      1.0  0.3405280518950704  0.12936410892010736  0.2818086461468781  1.0000
  Cl  Cl11      1.0  0.4275067016646902  0.6498195353152028  0.577523781999993  1.0000
  Cl  Cl12      1.0  0.5724813132914407  0.35018376110995325  0.42247720203506134  1.0000
  O   O1        1.0  0.24880841444274887  0.0655091777230652  0.6462272465935257  1.0000
  O   O2        1.0  0.7511831478846956  0.9344878879676983  0.3537716734071807  1.0000
  O   O3        1.0  0.09176189241917847  0.0323362895107167  0.793925999196226  1.0000
  O   O4        1.0  0.9082374871423652  0.9676661333448564  0.20607964790548292  1.0000
  O   O5        1.0  0.1905079505533821  0.867938498672331  0.8280596666835295  1.0000
  O   O6        1.0  0.8094929465309805  0.13206303569553773  0.17194252528007337  1.0000
  O   O7        1.0  0.3616801396699855  0.9199644898566391  0.6867756746621367  1.0000
  O   O8        1.0  0.6383252073985587  0.0800379422350801  0.3132258068428229  1.0000
  O   O9        1.0  0.9736966094762706  0.21902541223694527  0.39384557509975343  1.0000
  O   O10       1.0  0.026304907076308726  0.7809681052069166  0.6061511130331496  1.0000
  O   O11       1.0  0.9138392736769774  0.42087392275936975  0.6835824358879776  1.0000
  O   O12       1.0  0.08616658341480135  0.57912761924311  0.3164182542428692  1.0000
  O   O13       1.0  0.6174595995764136  0.49520865410163134  0.8151217872306162  1.0000
  O   O14       1.0  0.382539864336337  0.5047902054791891  0.18487698538299926  1.0000
  O   O15       1.0  0.5715773410024028  0.8691972058128602  0.11340876299387065  1.0000
  O   O16       1.0  0.4284246023501055  0.13080076666234672  0.88659084188658  1.0000
