data_image0
_chemical_formula_structural       Cd2H16C20S4N4O4
_chemical_formula_sum              "Cd2 H16 C20 S4 N4 O4"
_cell_length_a       3.807906279080314
_cell_length_b       7.984660481413628
_cell_length_c       18.601694752985292
_cell_angle_alpha    90.00283971912377
_cell_angle_beta     89.99896549417342
_cell_angle_gamma    92.62356607289591

_space_group_name_H-M_alt    "P 1"
_space_group_IT_number       1

loop_
  _space_group_symop_operation_xyz
  'x, y, z'

loop_
  _atom_site_type_symbol
  _atom_site_label
  _atom_site_symmetry_multiplicity
  _atom_site_fract_x
  _atom_site_fract_y
  _atom_site_fract_z
  _atom_site_occupancy
  Cd  Cd1       1.0  1.5038736755501993e-05  0.5000449474494104  0.4999970121093612  1.0000
  Cd  Cd2       1.0  0.5000473129003424  0.9999792199926887  2.9168502778000005e-06  1.0000
  H   H1        1.0  0.7781798258123516  0.9278476706108307  0.44801457023591956  1.0000
  H   H2        1.0  0.7217938863930368  0.5721662244375878  0.9480123936325172  1.0000
  H   H3        1.0  0.22184038106441054  0.0721984017010229  0.5519913549595401  1.0000
  H   H4        1.0  0.2781838284434386  0.4277958752416495  0.051977403259677105  1.0000
  H   H5        1.0  0.5005148266794777  0.8111926288292182  0.3347549602114413  1.0000
  H   H6        1.0  0.999473699567538  0.688776054414241  0.8347485569276217  1.0000
  H   H7        1.0  0.4995020060651498  0.1888459231918489  0.6652493521605366  1.0000
  H   H8        1.0  0.0004863890658626015  0.3111672522003133  0.16524285257197852  1.0000
  H   H9        1.0  0.2707959193159012  0.017450461552243696  0.2430763867823061  1.0000
  H   H10       1.0  0.22923589172148695  0.4825584080794272  0.7430795914435252  1.0000
  H   H11       1.0  0.729160136375931  0.9826107075225395  0.756928463524453  1.0000
  H   H12       1.0  0.7706915568146471  0.5173999699155659  0.2569059048328769  1.0000
  H   H13       1.0  0.2973019418775067  0.32017071186546525  0.2744737704686031  1.0000
  H   H14       1.0  0.2027899662408998  0.17980684300666638  0.7744635837488973  1.0000
  H   H15       1.0  0.7026798804942372  0.6798590923558977  0.7255472070379341  1.0000
  H   H16       1.0  0.7971717436358076  0.8201527619198288  0.2255283634936021  1.0000
  C   C1        1.0  0.6617818883528841  0.0058084891700076  0.40719867816631  1.0000
  C   C2        1.0  0.8382217851782484  0.4941804089978632  0.9071968216081318  1.0000
  C   C3        1.0  0.3382241912358451  0.9942275639501402  0.5928083221304592  1.0000
  C   C4        1.0  0.1618046994276554  0.5057703677674611  0.0927967381690706  1.0000
  C   C5        1.0  0.5134873024435294  0.9460680753292721  0.3439984329513807  1.0000
  C   C6        1.0  0.986536001324765  0.5539142494604332  0.8439985605003814  1.0000
  C   C7        1.0  0.4865106499529332  0.0539654767007249  0.6560096425084225  1.0000
  C   C8        1.0  0.013446591248957402  0.4460440847977268  0.1559896235882476  1.0000
  C   C9        1.0  0.3834238057677409  0.05903942037881651  0.2942810376767255  1.0000
  C   C10       1.0  0.11663191739012999  0.44093306482464106  0.7942951779743626  1.0000
  C   C11       1.0  0.6165616406192385  0.9410004107056338  0.7057275754564288  1.0000
  C   C12       1.0  0.8832980320446848  0.5590240579252352  0.20569945723671176  1.0000
  C   C13       1.0  0.3995540716957819  0.22822341493963444  0.31117145753960074  1.0000
  C   C14       1.0  0.10055769043607647  0.27174482223397695  0.8111780247753375  1.0000
  C   C15       1.0  0.6004495067122021  0.7718138939519222  0.6888350051893186  1.0000
  C   C16       1.0  0.8994275348934124  0.7281871800512434  0.18881338456052535  1.0000
  C   C17       1.0  0.5422711337267856  0.2889487839965882  0.3762319615993378  1.0000
  C   C18       1.0  0.9578248424059479  0.21107261336587158  0.876231546852317  1.0000
  C   C19       1.0  0.4577774593187058  0.7110922504642546  0.6237739634874802  1.0000
  C   C20       1.0  0.042213018618063806  0.7888869314284365  0.1237684640129046  1.0000
  S   S1        1.0  0.5428752928598328  0.499682964431976  0.39724986704793963  1.0000
  S   S2        1.0  0.9572028077150561  0.00030716581459699997  0.8972592724943311  1.0000
  S   S3        1.0  0.45719480679714747  0.5003630672715218  0.6027415432370377  1.0000
  S   S4        1.0  0.0428478086726756  0.9996486074843887  0.1027423510634833  1.0000
  N   N1        1.0  0.6781999711026431  0.17286948970465227  0.42311819720102767  1.0000
  N   N2        1.0  0.8218471741612774  0.3271200673228521  0.9231152617770777  1.0000
  N   N3        1.0  0.3218334898639624  0.8271778261972216  0.5768931038334486  1.0000
  N   N4        1.0  0.1781794348396843  0.6728319637483365  0.07688797454991203  1.0000
  O   O1        1.0  0.8236591966525351  0.21799631462228317  0.4852288103999884  1.0000
  O   O2        1.0  0.6763429829872719  0.2820121601206296  0.9852250508995798  1.0000
  O   O3        1.0  0.17635388069573565  0.782057286375391  0.5147792652262738  1.0000
  O   O4        1.0  0.3236404824320757  0.7179549503970931  0.014767433957260304  1.0000
