data_image0
_chemical_formula_structural       Ag2H18C20S2N8O14
_chemical_formula_sum              "Ag2 H18 C20 S2 N8 O14"
_cell_length_a       8.40029031935792
_cell_length_b       9.22948136594385
_cell_length_c       9.449594809394586
_cell_angle_alpha    70.45543591708939
_cell_angle_beta     70.56356982181812
_cell_angle_gamma    79.96731660365843

_space_group_name_H-M_alt    "P 1"
_space_group_IT_number       1

loop_
  _space_group_symop_operation_xyz
  'x, y, z'

loop_
  _atom_site_type_symbol
  _atom_site_label
  _atom_site_symmetry_multiplicity
  _atom_site_fract_x
  _atom_site_fract_y
  _atom_site_fract_z
  _atom_site_occupancy
  Ag  Ag1       1.0  0.30399479336585244  0.6265026460962486  0.4816888681805408  1.0000
  Ag  Ag2       1.0  0.6960036992637413  0.37349548721821435  0.5183103932522852  1.0000
  H   H1        1.0  0.053410222826961694  0.05802432018447229  0.029444290827029793  1.0000
  H   H2        1.0  0.9465919707914949  0.9419749762229226  0.9705545335178555  1.0000
  H   H3        1.0  0.934763639245034  0.043089413202722  0.31191972081305147  1.0000
  H   H4        1.0  0.06523990214423492  0.9569087286854409  0.6880780219763024  1.0000
  H   H5        1.0  0.9943286507526636  0.2437867530350957  0.4066962855541616  1.0000
  H   H6        1.0  0.005671110414120115  0.7562113864747386  0.5933036512414062  1.0000
  H   H7        1.0  0.16739581558495334  0.4611471148044614  0.2165539801125647  1.0000
  H   H8        1.0  0.8326025914637469  0.5388521751726641  0.7834459832149249  1.0000
  H   H9        1.0  0.3712824243164761  0.49727633305400337  0.7978620774376705  1.0000
  H   H10       1.0  0.628717067413092  0.5027252683399154  0.20213785499466758  1.0000
  H   H11       1.0  0.6700457792466492  0.8620568123398012  0.47837977652664426  1.0000
  H   H12       1.0  0.32995498736736545  0.1379447993014367  0.5216218862920456  1.0000
  H   H13       1.0  0.5785368652735556  0.03872208133397951  0.8469280411695548  1.0000
  H   H14       1.0  0.4214628230068698  0.9612772229424064  0.15307470756788885  1.0000
  H   H15       1.0  0.0406441247994067  0.6540566027375405  0.3117840804264205  1.0000
  H   H16       1.0  0.9593554525110546  0.3459438419937229  0.6882151501112543  1.0000
  H   H17       1.0  0.21129454265626887  0.7378699062953586  0.1989982199050572  1.0000
  H   H18       1.0  0.788704949073292  0.2621316950985672  0.8010017125272879  1.0000
  C   C1        1.0  0.20269771397492056  0.38342906070629107  0.017077904167948087  1.0000
  C   C2        1.0  0.7973018569882696  0.6165713799730242  0.9829202713461239  1.0000
  C   C3        1.0  0.1691059263257202  0.26892413608715765  0.9636652620536664  1.0000
  C   C4        1.0  0.8308950114500817  0.7310751622287553  0.03633499697569688  1.0000
  C   C5        1.0  0.0734427121492729  0.1477558719872718  0.07096400575505867  1.0000
  C   C6        1.0  0.926558219279265  0.8522434222767002  0.9290351982506877  1.0000
  C   C7        1.0  0.008409434286406304  0.13898780060986127  0.2297411704103851  1.0000
  C   C8        1.0  0.9915929431883653  0.8610091905761051  0.7702583601923862  1.0000
  C   C9        1.0  0.04136615978395502  0.25239931560184187  0.2818404753296946  1.0000
  C   C10       1.0  0.9586323391929028  0.747598821764569  0.7181598411267417  1.0000
  C   C11       1.0  0.13837800657428553  0.3737198419424244  0.17671366179953907  1.0000
  C   C12       1.0  0.8616229185069813  0.6262794482696065  0.8232844871826115  1.0000
  C   C13       1.0  0.4244501937941009  0.727229716957275  0.8487916330257335  1.0000
  C   C14       1.0  0.5755482132545993  0.27276957301985055  0.15120833030175615  1.0000
  C   C15       1.0  0.5130555900138347  0.7317556497419416  0.6865461115251176  1.0000
  C   C16       1.0  0.4869438097875756  0.2682471042626915  0.3134534677782809  1.0000
  C   C17       1.0  0.44528403206951583  0.8482292340514801  0.907845717160029  1.0000
  C   C18       1.0  0.5547156371691031  0.1517700580690615  0.09215386650659231  1.0000
  C   C19       1.0  0.6346496779917244  0.9706876558801482  0.6469363053487667  1.0000
  C   C20       1.0  0.3653476761124492  0.029309342939903588  0.353068963991916  1.0000
  S   S1        1.0  0.2523702192206514  0.2754125636308088  0.7617090215001808  1.0000
  S   S2        1.0  0.7476308041360438  0.7245855780224486  0.238290535634519  1.0000
  N   N1        1.0  0.3033053855623535  0.5035882433783385  0.9102460740248474  1.0000
  N   N2        1.0  0.696694191748101  0.4964122013529249  0.08975315651282739  1.0000
  N   N3        1.0  0.32397688865989227  0.617706319122753  0.9519212542683703  1.0000
  N   N4        1.0  0.6760238652595943  0.3822952844145887  0.04807829850309985  1.0000
  N   N5        1.0  0.6089598457637279  0.8553784668430067  0.594822904077418  1.0000
  N   N6        1.0  0.3910409145030229  0.14462314074627605  0.4051777037176618  1.0000
  N   N7        1.0  0.557935523381758  0.9558803157313631  0.8040529991624296  1.0000
  N   N8        1.0  0.4420640793177668  0.044120145207678305  0.19595045146967743  1.0000
  O   O1        1.0  0.5039760146428875  0.6295395124170965  0.6297899359611564  1.0000
  O   O2        1.0  0.4960194876188027  0.3704643756121442  0.37020726412507793  1.0000
  O   O3        1.0  0.3708224241021157  0.8565992656813958  0.04339283816224793  1.0000
  O   O4        1.0  0.629177172250145  0.1434011912056974  0.9566095574462563  1.0000
  O   O5        1.0  0.7214897481477607  0.07837766030808518  0.5559763688477374  1.0000
  O   O6        1.0  0.2785173294158482  0.9216239620502619  0.4440233956666048  1.0000
  O   O7        1.0  0.1459286437653233  0.6897760886888092  0.30875872354249617  1.0000
  O   O8        1.0  0.8540693099898462  0.31022896839382946  0.6912405291638773  1.0000
  O   O9        1.0  0.15639223643898964  0.40783154189839615  0.677037192636078  1.0000
  O   O10       1.0  0.8436086886422842  0.5921677483136348  0.3229609563460653  1.0000
  O   O11       1.0  0.22621929945861297  0.12930427178105927  0.7465124262632158  1.0000
  O   O12       1.0  0.7737817302453535  0.8706938739241463  0.2534881858950867  1.0000
  O   O13       1.0  0.43043634843426287  0.30445241932310546  0.7228427983445938  1.0000
  O   O14       1.0  0.5695645893415389  0.6955468789928076  0.2771574606847621  1.0000
