data_image0
_chemical_formula_structural       Zn4H12C40I8O13
_chemical_formula_sum              "Zn4 H12 C40 I8 O13"
_cell_length_a       15.030193877236846
_cell_length_b       15.129627804344958
_cell_length_c       15.682741111234757
_cell_angle_alpha    98.4947454797513
_cell_angle_beta     96.79787176804648
_cell_angle_gamma    89.90349213370686

_space_group_name_H-M_alt    "P 1"
_space_group_IT_number       1

loop_
  _space_group_symop_operation_xyz
  'x, y, z'

loop_
  _atom_site_type_symbol
  _atom_site_label
  _atom_site_symmetry_multiplicity
  _atom_site_fract_x
  _atom_site_fract_y
  _atom_site_fract_z
  _atom_site_occupancy
  Zn  Zn1       1.0  0.4364335948019757  0.4460242172399873  0.5804204079213093  1.0000
  Zn  Zn2       1.0  0.42513342505732515  0.5583847754909926  0.4193903809974131  1.0000
  Zn  Zn3       1.0  0.5703651748208712  0.4051866400594478  0.43632488265866703  1.0000
  Zn  Zn4       1.0  0.5839637359272557  0.5887324598985942  0.5763940089517874  1.0000
  H   H1        1.0  0.4683977367637767  0.1273033062268425  0.409072226226904  1.0000
  H   H2        1.0  0.5230184299406916  0.6449407365036565  0.07944399700518558  1.0000
  H   H3        1.0  0.5655070585699136  0.7538602286401359  0.9901719430119443  1.0000
  H   H4        1.0  0.4910525657164584  0.39461607645719715  0.779628197106554  1.0000
  H   H5        1.0  0.41920910159375074  0.8130021384532498  0.36701551140640015  1.0000
  H   H6        1.0  0.4254327227956055  0.9747501657382145  0.3502120343539232  1.0000
  H   H7        1.0  0.5318931110410148  0.19879070073248067  0.6843102696164749  1.0000
  H   H8        1.0  0.1731727763597704  0.35481848938494664  0.5046223632170523  1.0000
  H   H9        1.0  0.007755718211399202  0.33778492767093843  0.505013524099482  1.0000
  H   H10       1.0  0.43430786977234703  0.2920063993493187  0.8666149089833866  1.0000
  H   H11       1.0  0.8609572067267237  0.39928531246370375  0.4950560627192004  1.0000
  H   H12       1.0  0.579542174488033  0.7058943940928445  0.8323615362915646  1.0000
  C   C1        1.0  0.49326466445975115  0.7332929371659135  0.4939635454504839  1.0000
  C   C2        1.0  0.5125980405346838  0.47565450667008247  0.12398511603832674  1.0000
  C   C3        1.0  0.42170623731515633  0.3432822027257315  0.1278303149352951  1.0000
  C   C4        1.0  0.5103412659279131  0.2687146606580414  0.5334056055574905  1.0000
  C   C5        1.0  0.5386769407156605  0.5706401476768619  0.8349131731076724  1.0000
  C   C6        1.0  0.49390465627867297  0.8323993783072156  0.49453671813520117  1.0000
  C   C7        1.0  0.509740868973765  0.17239260631914993  0.5441398329793401  1.0000
  C   C8        1.0  0.5297034702343525  0.05786588470279241  0.6379237760489644  1.0000
  C   C9        1.0  0.5252878924705797  0.1469975533534509  0.6277489479958616  1.0000
  C   C10       1.0  0.48714402492297637  0.10793021283071623  0.4729752222449619  1.0000
  C   C11       1.0  0.4856838814748983  0.016489446537342203  0.4822444834640223  1.0000
  C   C12       1.0  0.5547421748532743  0.6839764020008307  0.9614350682462957  1.0000
  C   C13       1.0  0.5181663284424047  0.988415986514724  0.5644158039838345  1.0000
  C   C14       1.0  0.5341790300869178  0.8946422111134427  0.5631959338561572  1.0000
  C   C15       1.0  0.4498891809352799  0.8630726330940491  0.4191704461994093  1.0000
  C   C16       1.0  0.2660025667529808  0.49687259954531976  0.49166570799953035  1.0000
  C   C17       1.0  0.4518646303089753  0.9518146990166727  0.4108487016782334  1.0000
  C   C18       1.0  0.16560671612277397  0.4929265608295665  0.4850190118618514  1.0000
  C   C19       1.0  0.8282833305918091  0.5297140521177682  0.46617639866747135  1.0000
  C   C20       1.0  0.9502711409238034  0.6152545340234854  0.4254503692003199  1.0000
  C   C21       1.0  0.8597777365282581  0.6061448251866041  0.4345731372712152  1.0000
  C   C22       1.0  0.8866882283444114  0.46131414362383794  0.47892322395185255  1.0000
  C   C23       1.0  0.5320739469709254  0.6218786788943474  0.012159935429437538  1.0000
  C   C24       1.0  0.9794976244101221  0.4708222940493627  0.4755509106753095  1.0000
  C   C25       1.0  0.0149317817305956  0.5537658027247545  0.4575475670860456  1.0000
  C   C26       1.0  0.11044552509230951  0.5654140720397365  0.47265564776886043  1.0000
  C   C27       1.0  0.12788483479182844  0.40920217582164753  0.4931673474532161  1.0000
  C   C28       1.0  0.7344528393888581  0.516969248743024  0.4863090793152338  1.0000
  C   C29       1.0  0.037143298484430404  0.39972478620573076  0.4923553974234949  1.0000
  C   C30       1.0  0.48151955755781733  0.43900032247776727  0.2687914816407613  1.0000
  C   C31       1.0  0.5309808094550661  0.5514817495039637  0.7382137537232935  1.0000
  C   C32       1.0  0.41903540663116706  0.32107676816821146  0.038272223375344104  1.0000
  C   C33       1.0  0.47210033475533925  0.41901982281236627  0.1708993198538664  1.0000
  C   C34       1.0  0.5177082339090192  0.5304917798531718  0.9779314628818554  1.0000
  C   C35       1.0  0.5615303292902282  0.6577359712129153  0.8730153277355868  1.0000
  C   C36       1.0  0.5158890233387368  0.5053625122992926  0.8860718213281302  1.0000
  C   C37       1.0  0.49692855013336173  0.46424070980638293  0.03172972978434535  1.0000
  C   C38       1.0  0.456825488730523  0.3805086974790158  0.9891764275833665  1.0000
  C   C39       1.0  0.45835120822789593  0.3582447172790851  0.8975090574454968  1.0000
  C   C40       1.0  0.48976084731895503  0.4158978881332231  0.848746463965277  1.0000
  I   I1        1.0  0.3545083124298359  0.2675899794488715  0.2038014432882775  1.0000
  I   I2        1.0  0.528496705116325  0.036271634535850715  0.7681469104500138  1.0000
  I   I3        1.0  0.1690261057375722  0.6947684664530343  0.5089283493709615  1.0000
  I   I4        1.0  0.9882583827648476  0.7020540728256537  0.34214232509485504  1.0000
  I   I5        1.0  0.7633621688586347  0.6962394707913903  0.39092674503270086  1.0000
  I   I6        1.0  0.3580455004482204  0.20005448259954053  0.9740455924816444  1.0000
  I   I7        1.0  0.612460918121606  0.5638384167017564  0.20041015283264582  1.0000
  I   I8        1.0  0.6417650895446769  0.8580932168191993  0.6500240939697477  1.0000
  O   O1        1.0  0.5044916539503461  0.4985914595792594  0.5011041126598457  1.0000
  O   O2        1.0  0.430062969489704  0.49901367445928463  0.2996274318931356  1.0000
  O   O3        1.0  0.5927070048611967  0.5828848164290719  0.7010740200160797  1.0000
  O   O4        1.0  0.5389325176530378  0.39426488085005934  0.3098743877865999  1.0000
  O   O5        1.0  0.46141069989678135  0.5078286599115102  0.6996888782975076  1.0000
  O   O6        1.0  0.3075132357732642  0.4500055775655768  0.5447432631134106  1.0000
  O   O7        1.0  0.7018359599030929  0.5816844046644081  0.5336915623201222  1.0000
  O   O8        1.0  0.4567025570362021  0.6852634545168217  0.4244728780738001  1.0000
  O   O9        1.0  0.5429254872434016  0.28755031975418893  0.466655481125521  1.0000
  O   O10       1.0  0.5254184327281664  0.703247916771339  0.5625384254542637  1.0000
  O   O11       1.0  0.4778492509440824  0.3234866961448972  0.5912706073078979  1.0000
  O   O12       1.0  0.3005735004080776  0.542210611704789  0.44164989376773883  1.0000
  O   O13       1.0  0.6981856922126255  0.44064456741627833  0.4575305592109871  1.0000
