data_image0
_chemical_formula_structural       Ag4H24C40N4O8
_chemical_formula_sum              "Ag4 H24 C40 N4 O8"
_cell_length_a       8.114419447659161
_cell_length_b       8.458514126626948
_cell_length_c       12.211502899684673
_cell_angle_alpha    88.36060053507734
_cell_angle_beta     99.5352918552152
_cell_angle_gamma    96.1336691794538

_space_group_name_H-M_alt    "P 1"
_space_group_IT_number       1

loop_
  _space_group_symop_operation_xyz
  'x, y, z'

loop_
  _atom_site_type_symbol
  _atom_site_label
  _atom_site_symmetry_multiplicity
  _atom_site_fract_x
  _atom_site_fract_y
  _atom_site_fract_z
  _atom_site_occupancy
  Ag  Ag1       1.0  0.7838855105492543  0.37551241696093046  0.473972018213324  1.0000
  Ag  Ag2       1.0  0.21611862543211666  0.6244809016324738  0.5260289940608445  1.0000
  Ag  Ag3       1.0  0.6103387895208955  0.549559422250745  0.6039537590667052  1.0000
  Ag  Ag4       1.0  0.3896790864114906  0.45043870236527556  0.39605249833985556  1.0000
  H   H1        1.0  0.7802945981303111  0.015606059016448605  0.4798574341817456  1.0000
  H   H2        1.0  0.21971909487469088  0.9843826842386326  0.5201500540978401  1.0000
  H   H3        1.0  0.9875668629742266  0.7732158953105144  0.23779165589346718  1.0000
  H   H4        1.0  0.01243892461674528  0.22678977568180866  0.7621997422294483  1.0000
  H   H5        1.0  0.014165065411369008  0.4291649778097337  0.28757134126495026  1.0000
  H   H6        1.0  0.985828014859955  0.5708350481865382  0.712431293230658  1.0000
  H   H7        1.0  0.16721040317364813  0.454156824969644  0.1260252477947077  1.0000
  H   H8        1.0  0.8327677832257976  0.5458516595941065  0.8739729716566701  1.0000
  H   H9        1.0  0.21248039084711226  0.21210149758919536  0.027112771640226203  1.0000
  H   H10       1.0  0.7875005373335499  0.7879166270043286  0.9728808218990892  1.0000
  H   H11       1.0  0.11755561059161583  0.9438106448726773  0.09542039927976018  1.0000
  H   H12       1.0  0.8824410330282718  0.05619926586858532  0.9045711154397651  1.0000
  H   H13       1.0  0.6211916506857734  0.9021863465046139  0.5824282424590024  1.0000
  H   H14       1.0  0.37881793388188373  0.09781486793074386  0.41757573058125524  1.0000
  H   H15       1.0  0.44869203543615305  0.13900358942977684  0.8425171093885169  1.0000
  H   H16       1.0  0.5513041911940421  0.8609938780384285  0.15748411822028877  1.0000
  H   H17       1.0  0.41976919447636624  0.484515025844111  0.7862649767136104  1.0000
  H   H18       1.0  0.5802206525280766  0.5154830637895033  0.2137324609040689  1.0000
  H   H19       1.0  0.28860590939729047  0.45598841965261994  0.957175232282033  1.0000
  H   H20       1.0  0.7113732286341944  0.5440128995999417  0.042820547568553  1.0000
  H   H21       1.0  0.24127279314670608  0.6959173205333046  0.0571197472716065  1.0000
  H   H22       1.0  0.7587055334635693  0.30408785404121386  0.9428718958902207  1.0000
  H   H23       1.0  0.3189280634681496  0.9655126430093616  0.9837708987496258  1.0000
  H   H24       1.0  0.6810582963490149  0.034489651489188616  0.01621890840223728  1.0000
  C   C1        1.0  0.8481497721069077  0.019448175187228894  0.40986082690265135  1.0000
  C   C2        1.0  0.1518665862177215  0.9805429658658937  0.5901427934270699  1.0000
  C   C3        1.0  0.8780546923565781  0.8745798171220758  0.36433847179120693  1.0000
  C   C4        1.0  0.12195793106936753  0.12541299119833135  0.6356607594233523  1.0000
  C   C5        1.0  0.9616621808584328  0.8822985886260641  0.2745038647582945  1.0000
  C   C6        1.0  0.038346711906271494  0.11770181844585183  0.72549266412949  1.0000
  C   C7        1.0  0.014075508139313807  0.03287364643753681  0.2309453843177067  1.0000
  C   C8        1.0  0.9859303931612193  0.9671291933164244  0.7690550236826397  1.0000
  C   C9        1.0  0.9827930016578108  0.17269259909925697  0.2848766991848422  1.0000
  C   C10       1.0  0.017214165301624014  0.8273087551357108  0.7151279004546254  1.0000
  C   C11       1.0  0.03968713610778714  0.32443481574316746  0.245596912053216  1.0000
  C   C12       1.0  0.9603102055240387  0.6755672235362912  0.7544077217573245  1.0000
  C   C13       1.0  0.1216379444229005  0.33691640904194037  0.1546273497447928  1.0000
  C   C14       1.0  0.8783487604601206  0.6630901706039725  0.8453731815480693  1.0000
  C   C15       1.0  0.14853468776456683  0.19979115443597814  0.0992673475759034  1.0000
  C   C16       1.0  0.85145748205985  0.8002187422638302  0.900731188868825  1.0000
  C   C17       1.0  0.09660069499496875  0.05050060421778822  0.1370336250068007  1.0000
  C   C18       1.0  0.9033956286893813  0.9495054581783154  0.8629635758139712  1.0000
  C   C19       1.0  0.8180625831257802  0.721295678630334  0.4168518682850788  1.0000
  C   C20       1.0  0.18194247768607855  0.2786978007809538  0.5831442982755846  1.0000
  C   C21       1.0  0.5650165157703242  0.8979787216016181  0.6574377444071757  1.0000
  C   C22       1.0  0.43499339494186273  0.10201766235364572  0.3425662174703845  1.0000
  C   C23       1.0  0.5457476958867318  0.04107160464159422  0.7091526399084813  1.0000
  C   C24       1.0  0.45425720412173837  0.9589238320627517  0.2908533717675681  1.0000
  C   C25       1.0  0.4681401953570656  0.030954372844519244  0.8019192157759604  1.0000
  C   C26       1.0  0.5318592808951338  0.9690404521982791  0.19808225309655106  1.0000
  C   C27       1.0  0.4163630923706379  0.8797734747864259  0.8446864268534923  1.0000
  C   C28       1.0  0.5836323744699072  0.12022780605506972  0.1553114881418125  1.0000
  C   C29       1.0  0.4448807668478025  0.7412342552019738  0.7886044573384439  1.0000
  C   C30       1.0  0.5551193391293553  0.258764166493954  0.21139626988435367  1.0000
  C   C31       1.0  0.39690234182579326  0.5884461721620797  0.830185990605436  1.0000
  C   C32       1.0  0.6030906041433967  0.4115553323763735  0.16981090283857006  1.0000
  C   C33       1.0  0.32432649318504064  0.5739261793988178  0.9249724081308983  1.0000
  C   C34       1.0  0.6756607296849071  0.4260722178291019  0.07502235978497399  1.0000
  C   C35       1.0  0.296117471034627  0.7098948102141663  0.9812496142661544  1.0000
  C   C36       1.0  0.7038656185679599  0.29010877401361784  0.0187432204478313  1.0000
  C   C37       1.0  0.33999351394406574  0.859807307676178  0.9412371984193937  1.0000
  C   C38       1.0  0.659994664795363  0.14018985572477766  0.05875681668405968  1.0000
  C   C39       1.0  0.6078388131918118  0.1966756573965469  0.6602048603069831  1.0000
  C   C40       1.0  0.3921736700233041  0.8033204609130851  0.33980094719713344  1.0000
  N   N1        1.0  0.8982494656317571  0.1622835822809918  0.3736381576117793  1.0000
  N   N2        1.0  0.10176153525205225  0.8377100893051266  0.6263707925049715  1.0000
  N   N3        1.0  0.5176336769436247  0.7546680346932961  0.6946793960586817  1.0000
  N   N4        1.0  0.4823756082810462  0.2453306840930694  0.3053269942569798  1.0000
  O   O1        1.0  0.7167246217857015  0.7318917900313838  0.4842462694568113  1.0000
  O   O2        1.0  0.2832844010436872  0.26810120701411233  0.5157543136941952  1.0000
  O   O3        1.0  0.8740609977713021  0.5946407782808977  0.390188510768823  1.0000
  O   O4        1.0  0.12593872195486713  0.40535065287532035  0.6098080299646469  1.0000
  O   O5        1.0  0.594528972719296  0.3234331394288433  0.7099882340531992  1.0000
  O   O6        1.0  0.40548280233774403  0.676566750305412  0.2900150849126675  1.0000
  O   O7        1.0  0.6701932911374585  0.18578696821347762  0.571903480940577  1.0000
  O   O8        1.0  0.3298204309350012  0.8142149907062405  0.4281041120899402  1.0000
