data_image0
_chemical_formula_structural       Ba2H14C16N2O10
_chemical_formula_sum              "Ba2 H14 C16 N2 O10"
_cell_length_a       7.601616447036591
_cell_length_b       8.043726417977854
_cell_length_c       8.363912766275954
_cell_angle_alpha    79.97380410504549
_cell_angle_beta     65.68413214594874
_cell_angle_gamma    83.07510226099745

_space_group_name_H-M_alt    "P 1"
_space_group_IT_number       1

loop_
  _space_group_symop_operation_xyz
  'x, y, z'

loop_
  _atom_site_type_symbol
  _atom_site_label
  _atom_site_symmetry_multiplicity
  _atom_site_fract_x
  _atom_site_fract_y
  _atom_site_fract_z
  _atom_site_occupancy
  Ba  Ba1       1.0  0.04504710308776078  0.6010735384181557  0.20942287224350767  1.0000
  Ba  Ba2       1.0  0.95495388806426  0.3989259970030686  0.7905750802783942  1.0000
  H   H1        1.0  0.7884955019974457  0.9578947149279812  0.09856783655581579  1.0000
  H   H2        1.0  0.21150542976604209  0.0421060874967125  0.9014311190528801  1.0000
  H   H3        1.0  0.8037696495493024  0.8110378999091735  0.9858990316504402  1.0000
  H   H4        1.0  0.19622990658914566  0.18896164723122408  0.014100659149264082  1.0000
  H   H5        1.0  0.5036432951150259  0.7114555323745718  0.0418953608207815  1.0000
  H   H6        1.0  0.4963548853983823  0.2885427594815368  0.9581050651699314  1.0000
  H   H7        1.0  0.5301449393393156  0.5554508658598748  0.18991225548911936  1.0000
  H   H8        1.0  0.46985316367910457  0.4445486876470923  0.810086790089521  1.0000
  H   H9        1.0  0.19605028885742123  0.06655432077185  0.6559490090327245  1.0000
  H   H10       1.0  0.8039520960260944  0.9334464752862744  0.34405059179702857  1.0000
  H   H11       1.0  0.37530793354753206  0.567248475151146  0.508847094860613  1.0000
  H   H12       1.0  0.6246959728977756  0.4327510502132554  0.4911533398528363  1.0000
  H   H13       1.0  0.34760772659744515  0.9838195338654502  0.11959856794776158  1.0000
  H   H14       1.0  0.6523860351673535  0.016180044093815096  0.8804009254665671  1.0000
  C   C1        1.0  0.2062758349235025  0.22520946099287187  0.3370793607826457  1.0000
  C   C2        1.0  0.7937265409067821  0.7747913323889434  0.6629190482976808  1.0000
  C   C3        1.0  0.2607739229618531  0.04314888530563369  0.38445540150296864  1.0000
  C   C4        1.0  0.739225633176595  0.9568506618347641  0.6155442892967287  1.0000
  C   C5        1.0  0.24293782048517443  0.9814347119298076  0.5570264976361655  1.0000
  C   C6        1.0  0.7570587790779157  0.018566117623492993  0.4429740975576523  1.0000
  C   C7        1.0  0.2831676233515807  0.8096786773592157  0.6021452025431344  1.0000
  C   C8        1.0  0.716833267129836  0.19032339742155102  0.39785713965122227  1.0000
  C   C9        1.0  0.34716756389332204  0.7015369339172606  0.47293766644022384  1.0000
  C   C10       1.0  0.6528334363119227  0.29846260418026566  0.5270614778311042  1.0000
  C   C11       1.0  0.37719980078118437  0.763453885631236  0.2965707585225631  1.0000
  C   C12       1.0  0.6227983112904668  0.23654567055203302  0.7034294788055107  1.0000
  C   C13       1.0  0.329102013356163  0.9348091071382427  0.25500001582768317  1.0000
  C   C14       1.0  0.6708960987154882  0.06519044904502636  0.7450002215003906  1.0000
  C   C15       1.0  0.2524578103255095  0.7371952324170364  0.7890808249672147  1.0000
  C   C16       1.0  0.7475431304912094  0.26280557268395904  0.21091932239091443  1.0000
  N   N1        1.0  0.43893776631121284  0.6532158191068831  0.1692280146566388  1.0000
  N   N2        1.0  0.5610603548136694  0.34678373975269483  0.830773414420868  1.0000
  O   O1        1.0  0.14224703680632436  0.3232152385906275  0.4559940301315065  1.0000
  O   O2        1.0  0.8577567146489996  0.6767868100754839  0.5440036437578115  1.0000
  O   O3        1.0  0.8211583496078704  0.8353286210038248  0.09050286404809782  1.0000
  O   O4        1.0  0.17884113808882063  0.1646721904637332  0.9094966380889744  1.0000
  O   O5        1.0  0.22439329020308213  0.27726620964251936  0.1777169420761666  1.0000
  O   O6        1.0  0.775606274988597  0.7227333401741802  0.8222839404729712  1.0000
  O   O7        1.0  0.2615185219887124  0.8287474027234933  0.8940779758478854  1.0000
  O   O8        1.0  0.7384824963229945  0.1712521407266436  0.10592355192230936  1.0000
  O   O9        1.0  0.21533250009233035  0.5793934918380187  0.8370884905658755  1.0000
  O   O10       1.0  0.7846685001129146  0.42060604625951475  0.1629106537054525  1.0000
