data_image0
_chemical_formula_structural       Zn2H44C52N2O12
_chemical_formula_sum              "Zn2 H44 C52 N2 O12"
_cell_length_a       13.873727563960998
_cell_length_b       15.375565064768168
_cell_length_c       19.695355143028916
_cell_angle_alpha    90.46225679085369
_cell_angle_beta     90.04168313968954
_cell_angle_gamma    90.01092272571344

_space_group_name_H-M_alt    "P 1"
_space_group_IT_number       1

loop_
  _space_group_symop_operation_xyz
  'x, y, z'

loop_
  _atom_site_type_symbol
  _atom_site_label
  _atom_site_symmetry_multiplicity
  _atom_site_fract_x
  _atom_site_fract_y
  _atom_site_fract_z
  _atom_site_occupancy
  Zn  Zn1       1.0  0.4048332948710324  0.5005391798904242  0.4998790537641469  1.0000
  Zn  Zn2       1.0  0.5990350091515566  0.4996847826532689  0.4999224918716789  1.0000
  H   H1        1.0  0.6539049075688723  0.4885546766745393  0.7176246847822654  1.0000
  H   H2        1.0  0.6120037167985402  0.4028955852215361  0.06211950084187378  1.0000
  H   H3        1.0  0.38509456996221286  0.593792863586444  0.0630659976673016  1.0000
  H   H4        1.0  0.6117933273889236  0.4024058801200071  0.9368287026391255  1.0000
  H   H5        1.0  0.3533257052797296  0.058965594276863015  0.4780748439793924  1.0000
  H   H6        1.0  0.6523906970742601  0.9392886661047799  0.4725392424526262  1.0000
  H   H7        1.0  0.3539341832486045  0.9401462199204292  0.5324529212112947  1.0000
  H   H8        1.0  0.6523106675675479  0.0622773161778198  0.5369099138894953  1.0000
  H   H9        1.0  0.9317273077459233  0.4948232357528824  0.3901479737437512  1.0000
  H   H10       1.0  0.0722026428943252  0.5507959937514785  0.6028748157037567  1.0000
  H   H11       1.0  0.9318554502499198  0.5050776320151799  0.6100009955840164  1.0000
  H   H12       1.0  0.3458067452344267  0.5002246538701416  0.2832188421689992  1.0000
  H   H13       1.0  0.0718774344587771  0.4487284488380114  0.3973263825909115  1.0000
  H   H14       1.0  0.7515773555078198  0.4933592532324839  0.3954700015716028  1.0000
  H   H15       1.0  0.2523549701633527  0.5466636683209104  0.5983941069407166  1.0000
  H   H16       1.0  0.7516738678887336  0.50662793621067  0.6045505422829222  1.0000
  H   H17       1.0  0.252044894206378  0.4532195384968745  0.401588151840265  1.0000
  H   H18       1.0  0.2502419395769166  0.15270618100248612  0.5431162978125172  1.0000
  H   H19       1.0  0.227971139703719  0.1378134807382452  0.4543812972428326  1.0000
  H   H20       1.0  0.09678925873465968  0.2265202226727396  0.5119640791442847  1.0000
  H   H21       1.0  0.1850108439268965  0.3065148704932598  0.5340078104804746  1.0000
  H   H22       1.0  0.15648651623909163  0.2860113158250926  0.447162430438567  1.0000
  H   H23       1.0  0.6545317816094709  0.4964606219554427  0.28204313577086276  1.0000
  H   H24       1.0  0.7240283971567293  0.7222527203787905  0.5510648966743188  1.0000
  H   H25       1.0  0.7567193929251418  0.8329243738768358  0.5347183090679906  1.0000
  H   H26       1.0  0.8561004368789965  0.7843502165892959  0.43473366516548856  1.0000
  H   H27       1.0  0.895281785029944  0.7307691759350378  0.5099015293688325  1.0000
  H   H28       1.0  0.8220368785130246  0.6746281333315384  0.4494495996828078  1.0000
  H   H29       1.0  0.2535846098979206  0.8476986612833318  0.4621292002295263  1.0000
  H   H30       1.0  0.2264821609661496  0.860574741548007  0.550363741333534  1.0000
  H   H31       1.0  0.0991344868344441  0.772687257370592  0.48743993864015767  1.0000
  H   H32       1.0  0.1889217456487415  0.6931673894418112  0.4677717491010327  1.0000
  H   H33       1.0  0.1545700308623807  0.7125164756555906  0.5536904344973195  1.0000
  H   H34       1.0  0.3463489438300442  0.5123316128836068  0.7166112133145717  1.0000
  H   H35       1.0  0.721982582851666  0.2745942602450811  0.45047277393310026  1.0000
  H   H36       1.0  0.7541205471608592  0.16454873540907045  0.4696955747627527  1.0000
  H   H37       1.0  0.8575057052328602  0.21741108922088162  0.5665460018115096  1.0000
  H   H38       1.0  0.8947666087289434  0.2659788779256473  0.4888656076334357  1.0000
  H   H39       1.0  0.8246425472856416  0.32657288468833917  0.5484351146643504  1.0000
  H   H40       1.0  0.654080800610217  0.4889172898386607  0.8441171073934655  1.0000
  H   H41       1.0  0.3439554882563272  0.5022013113849297  0.1566437491207537  1.0000
  H   H42       1.0  0.6543602151687082  0.49584414719964093  0.1555082505065499  1.0000
  H   H43       1.0  0.34423816615730374  0.5081907707374428  0.8430532863186498  1.0000
  H   H44       1.0  0.3854124697809809  0.5938711211433515  0.9377837950071708  1.0000
  C   C1        1.0  0.5029497316225998  0.33163626559115766  0.5036857414204262  1.0000
  C   C2        1.0  0.5032666347263869  0.9521375574957461  0.504120062826388  1.0000
  C   C3        1.0  0.895875408458558  0.4960434550969098  0.43928236655204234  1.0000
  C   C4        1.0  0.10807925872233431  0.5270129710686646  0.5572325652807065  1.0000
  C   C5        1.0  0.895943630687661  0.5038564116473198  0.5608410395020087  1.0000
  C   C6        1.0  0.1079129751127184  0.472590836502441  0.44291985404311157  1.0000
  C   C7        1.0  0.7958175112578447  0.49578007719198774  0.44126571328967396  1.0000
  C   C8        1.0  0.2081380667968347  0.5259613070811469  0.555388612688567  1.0000
  C   C9        1.0  0.7958670813250849  0.504142058482856  0.558791690375358  1.0000
  C   C10       1.0  0.2079661585564025  0.4738424136088144  0.44464977424885893  1.0000
  C   C11       1.0  0.9486895129486826  0.49991139346953894  0.5000790753528577  1.0000
  C   C12       1.0  0.5029991423701432  0.6686622682638589  0.49832068722211165  1.0000
  C   C13       1.0  0.0551898283611578  0.49982722645937394  0.500083412494611  1.0000
  C   C14       1.0  0.5009499350711053  0.49659007556291374  0.36644739353154415  1.0000
  C   C15       1.0  0.501077512322979  0.5031683098271459  0.6333353895018661  1.0000
  C   C16       1.0  0.5865502697885746  0.49334149119786735  0.7458131448442984  1.0000
  C   C17       1.0  0.4129769587036379  0.4997534475786908  0.25457325065084285  1.0000
  C   C18       1.0  0.5868919859213478  0.49658101005844213  0.2539162797961794  1.0000
  C   C19       1.0  0.4133219885862331  0.5073213270873895  0.7452382884850833  1.0000
  C   C20       1.0  0.5860833776272258  0.49253413183572553  0.8163935524838593  1.0000
  C   C21       1.0  0.41239791878791715  0.501220592609073  0.1839728893020265  1.0000
  C   C22       1.0  0.5863650205158351  0.4961054620083374  0.18331669427735867  1.0000
  C   C23       1.0  0.41647139740036465  0.1853605864487236  0.49333036845071376  1.0000
  C   C24       1.0  0.41265984304120457  0.5057029424160576  0.8158302117963244  1.0000
  C   C25       1.0  0.4991136439540611  0.49872349513360364  0.852812857139092  1.0000
  C   C26       1.0  0.49908521222510427  0.4986549339788554  0.1469926194751281  1.0000
  C   C27       1.0  0.5002725291407941  0.5012648145820577  0.709377416574604  1.0000
  C   C28       1.0  0.5002398956205454  0.497609875935737  0.2903868472742133  1.0000
  C   C29       1.0  0.4341595358224311  0.5506435858227549  0.9648783300191965  1.0000
  C   C30       1.0  0.5631276084653719  0.44596989610636945  0.0349543633802298  1.0000
  C   C31       1.0  0.4340426877676363  0.5506603289040303  0.03550749304137919  1.0000
  C   C32       1.0  0.5630340110951764  0.4457495863694448  0.9643366654692824  1.0000
  C   C33       1.0  0.49868363452750236  0.4984733993069811  0.07207977957212108  1.0000
  C   C34       1.0  0.5860455835280192  0.8148022092111592  0.4852207785122928  1.0000
  C   C35       1.0  0.4986979045252085  0.49824853836965144  0.9277162282030461  1.0000
  C   C36       1.0  0.4181736994898841  0.09450068681901773  0.4921987746298058  1.0000
  C   C37       1.0  0.5867050966856978  0.9055766903778278  0.48736768510267586  1.0000
  C   C38       1.0  0.4187508677474979  0.9052659283836778  0.517332647354344  1.0000
  C   C39       1.0  0.586414303496646  0.09539854563357861  0.5216680370679114  1.0000
  C   C40       1.0  0.24392612490381543  0.186757468134097  0.49418144186982715  1.0000
  C   C41       1.0  0.1658729746265237  0.2556397223488247  0.4969494087538493  1.0000
  C   C42       1.0  0.7453682688881855  0.7682850070439218  0.5111207947061301  1.0000
  C   C43       1.0  0.8349974426185511  0.7378180482503826  0.47406589591605536  1.0000
  C   C44       1.0  0.24480402146748054  0.8125762266337164  0.5103863547910024  1.0000
  C   C45       1.0  0.4170210924132434  0.8144818314233293  0.5139597475798183  1.0000
  C   C46       1.0  0.1672298149962756  0.7435275096433144  0.5045267477045525  1.0000
  C   C47       1.0  0.7443472530711546  0.23042505359277501  0.4914515072678397  1.0000
  C   C48       1.0  0.8356868256391864  0.26185082218163563  0.5259252360712239  1.0000
  C   C49       1.0  0.5859004982477884  0.18619350214799377  0.5211907116826778  1.0000
  C   C50       1.0  0.501815168410893  0.23399460268915112  0.505931056141776  1.0000
  C   C51       1.0  0.5020559279977731  0.7663735879449336  0.4994606466797648  1.0000
  C   C52       1.0  0.5029789367554187  0.048224092394320905  0.5059835448685988  1.0000
  N   N1        1.0  0.7468489610434474  0.499939070740382  0.500008577989476  1.0000
  N   N2        1.0  0.2570302719885476  0.5000237132593741  0.49997896483903054  1.0000
  O   O1        1.0  0.427378101242823  0.37204699214704123  0.5225165559626815  1.0000
  O   O2        1.0  0.6682601889940755  0.7734102453130449  0.4623073172237611  1.0000
  O   O3        1.0  0.3338899736227319  0.7694887907321403  0.5261110621995684  1.0000
  O   O4        1.0  0.6689221071733796  0.22845657740894157  0.5416739278483078  1.0000
  O   O5        1.0  0.5798477140460535  0.6311364164546803  0.5182080397919577  1.0000
  O   O6        1.0  0.4273273221366836  0.6293374801755225  0.47822219868156407  1.0000
  O   O7        1.0  0.5797204748156233  0.36803727113737505  0.4824867477381645  1.0000
  O   O8        1.0  0.4223597709720863  0.4768742057480608  0.3961197203743225  1.0000
  O   O9        1.0  0.5799856524202055  0.483232283998099  0.6038438423567598  1.0000
  O   O10       1.0  0.42298358125886176  0.5245317174551972  0.6036448208346243  1.0000
  O   O11       1.0  0.5802113479444627  0.5155642292656496  0.3959146261701107  1.0000
  O   O12       1.0  0.3334434218423539  0.23001079916916475  0.48028966803353507  1.0000
