data_image0
_chemical_formula_structural       Zn20H124C144N36O64
_chemical_formula_sum              "Zn20 H124 C144 N36 O64"
_cell_length_a       15.523481720000573
_cell_length_b       19.36058712400335
_cell_length_c       25.339463519003683
_cell_angle_alpha    89.99993917909188
_cell_angle_beta     89.9999891710886
_cell_angle_gamma    89.99997082665539

_space_group_name_H-M_alt    "P 1"
_space_group_IT_number       1

loop_
  _space_group_symop_operation_xyz
  'x, y, z'

loop_
  _atom_site_type_symbol
  _atom_site_label
  _atom_site_symmetry_multiplicity
  _atom_site_fract_x
  _atom_site_fract_y
  _atom_site_fract_z
  _atom_site_occupancy
  Zn  Zn1       1.0  0.45253603820453475  0.6594711092397387  0.7688672076646127  1.0000
  Zn  Zn2       1.0  0.0474647179333871  0.3405287325713005  0.268866245996854  1.0000
  Zn  Zn3       1.0  0.9525365753638795  0.8405285589539063  0.7311326836172896  1.0000
  Zn  Zn4       1.0  0.5474647257690677  0.1594706144510099  0.23113305268070408  1.0000
  Zn  Zn5       1.0  0.5474646683378736  0.34052917313778863  0.23113297927684326  1.0000
  Zn  Zn6       1.0  0.9525353444238789  0.6594715498074563  0.731132362379249  1.0000
  Zn  Zn7       1.0  0.04746477536409799  0.15947172342431057  0.2688663194000895  1.0000
  Zn  Zn8       1.0  0.4525359807736676  0.8405286348999962  0.7688671342611643  1.0000
  Zn  Zn9       1.0  0.4737736154413879  0.5349838151200073  0.5473270496350935  1.0000
  Zn  Zn10      1.0  0.0262272088562554  0.4650158180586884  0.0473263841364684  1.0000
  Zn  Zn11      1.0  0.9737772263942615  0.9650153278812397  0.9526720498983892  1.0000
  Zn  Zn12      1.0  0.526224650764469  0.034984054156439  0.4526729170067725  1.0000
  Zn  Zn13      1.0  0.5262258027302592  0.46501646725778306  0.4526731373064337  1.0000
  Zn  Zn14      1.0  0.9737754302420922  0.5349854973455166  0.9526730135217534  1.0000
  Zn  Zn15      1.0  0.026225412704633293  0.0349844379834536  0.0473269531191178  1.0000
  Zn  Zn16      1.0  0.4737721906660965  0.9650151951958963  0.5473264806526288  1.0000
  Zn  Zn17      1.0  0.32148165852609617  0.7499999507887692  0.6941185557919453  1.0000
  Zn  Zn18      1.0  0.17852040897982138  0.24999999490190555  0.1941184415944051  1.0000
  Zn  Zn19      1.0  0.8214822301186685  0.7500002874749541  0.8058821399882773  1.0000
  Zn  Zn20      1.0  0.6785196922018598  0.2499998150753627  0.3058816311496741  1.0000
  H   H1        1.0  0.3389796507957143  0.7500003948035142  0.793307710778251  1.0000
  H   H2        1.0  0.1610204536371711  0.2499999295548889  0.2933072039712599  1.0000
  H   H3        1.0  0.8389789645343055  0.7500008693361623  0.7066929829700542  1.0000
  H   H4        1.0  0.6610204115613101  0.2499998875741412  0.2066924761632407  1.0000
  H   H5        1.0  0.5013067179306602  0.7499976289939241  0.2659555737160346  1.0000
  H   H6        1.0  0.9986932841199943  0.24999478134461126  0.7659556781134143  1.0000
  H   H7        1.0  0.0013074224238423  0.7500013689273713  0.23404371954701728  1.0000
  H   H8        1.0  0.4986933444271884  0.2500000708174283  0.7340446132265016  1.0000
  H   H9        1.0  0.513641571468284  0.4335315269378981  0.9715120753170297  1.0000
  H   H10       1.0  0.9863590115234543  0.5664678289180997  0.4715120634177268  1.0000
  H   H11       1.0  0.013640523079871496  0.06646817206775069  0.5284878776958308  1.0000
  H   H12       1.0  0.4863596628286046  0.9335309707789393  0.028487568170497496  1.0000
  H   H13       1.0  0.486359779259736  0.5664682389265038  0.028487716983242695  1.0000
  H   H14       1.0  0.013640406648413298  0.4335319369467071  0.5284877288826593  1.0000
  H   H15       1.0  0.9863588950916052  0.9335326268233003  0.47151230924548326  1.0000
  H   H16       1.0  0.5136423320852828  0.0664672455455531  0.9715122241303717  1.0000
  H   H17       1.0  0.3580482402861093  0.6889011786295356  0.5422491437487054  1.0000
  H   H18       1.0  0.14195194138841316  0.3110984616061288  0.042248589614828795  1.0000
  H   H19       1.0  0.8580500147640677  0.8110990446898966  0.9577523370686478  1.0000
  H   H20       1.0  0.6419518608316465  0.1889013633155443  0.4577510927335879  1.0000
  H   H21       1.0  0.6419518220710784  0.3110985872348593  0.4577510431929923  1.0000
  H   H22       1.0  0.8580500535248771  0.6889018207716829  0.9577508080438547  1.0000
  H   H23       1.0  0.14195262433426592  0.18890175420021646  0.0422482445138286  1.0000
  H   H24       1.0  0.3580482015253779  0.8110989190621112  0.5422490942079037  1.0000
  H   H25       1.0  0.266447648622794  0.6903628998969181  0.5853937083093683  1.0000
  H   H26       1.0  0.23355316396315118  0.30963668037930603  0.08539314472554341  1.0000
  H   H27       1.0  0.7664494373021424  0.8096373608570387  0.9146069938604171  1.0000
  H   H28       1.0  0.7335530957531373  0.19036259059459576  0.41460692162922186  1.0000
  H   H29       1.0  0.7335530579195577  0.3096373824803322  0.4146068732734279  1.0000
  H   H30       1.0  0.7664494751357507  0.6903630854853873  0.9146058582919635  1.0000
  H   H31       1.0  0.2335525576108637  0.1903634380334864  0.0853931930807477  1.0000
  H   H32       1.0  0.26644825497469055  0.8096371752689889  0.5853940545950919  1.0000
  H   H33       1.0  0.2971128351613003  0.6132536859951897  0.5506428047511633  1.0000
  H   H34       1.0  0.20288734393071906  0.38674645908913147  0.0506417875636629  1.0000
  H   H35       1.0  0.7971152084167058  0.8867470787401146  0.9493578938580498  1.0000
  H   H36       1.0  0.7028866697614119  0.11325334093020699  0.4493582823513336  1.0000
  H   H37       1.0  0.702886583010219  0.38674659638205355  0.44935817147305807  1.0000
  H   H38       1.0  0.7971146509824152  0.613254339801941  0.9493576100948147  1.0000
  H   H39       1.0  0.20288678649630032  0.11325372015041067  0.05064229308311499  1.0000
  H   H40       1.0  0.2971140367809753  0.8867464249332354  0.5506430885143629  1.0000
  H   H41       1.0  0.5999714393401163  0.5520281220850336  0.6744954735778705  1.0000
  H   H42       1.0  0.9000305234033444  0.4479711300301333  0.17449596242368406  1.0000
  H   H43       1.0  0.09997263428871855  0.9479722067028998  0.8255040639963482  1.0000
  H   H44       1.0  0.40003003697984235  0.052028589423613894  0.3255040846023221  1.0000
  H   H45       1.0  0.4000299113879605  0.44797164377964543  0.3255039240810547  1.0000
  H   H46       1.0  0.09997147151038627  0.5520276028076196  0.825503829876979  1.0000
  H   H47       1.0  0.9000287164388039  0.05202910870129068  0.17449572830329882  1.0000
  H   H48       1.0  0.5999713137479502  0.9479716929537787  0.6744961023390842  1.0000
  H   H49       1.0  0.5294389619688146  0.48382102270884525  0.6573226871363217  1.0000
  H   H50       1.0  0.9705623618724172  0.5161792862988364  0.1573227178469594  1.0000
  H   H51       1.0  0.029439781375366195  0.016179186354115395  0.8426768694007479  1.0000
  H   H52       1.0  0.4705622404245417  0.9838210693936843  0.3426769155747209  1.0000
  H   H53       1.0  0.4705623887590915  0.5161792596691015  0.3426767105223973  1.0000
  H   H54       1.0  0.02943898885565229  0.48382047956584273  0.8426766798119729  1.0000
  H   H55       1.0  0.9705628577232446  0.9838210960232913  0.1573229228992474  1.0000
  H   H56       1.0  0.5294391103033715  0.0161792129842624  0.6573224820839983  1.0000
  H   H57       1.0  0.5262817880210163  0.5195208249745563  0.7227664419599691  1.0000
  H   H58       1.0  0.9737201598711704  0.4804788765705225  0.22276650125073158  1.0000
  H   H59       1.0  0.026281688827715796  0.9804790174145027  0.7772334988114978  1.0000
  H   H60       1.0  0.47371970892134374  0.019521329282355296  0.2772331425781047  1.0000
  H   H61       1.0  0.4737195627072238  0.48047842437686217  0.2772329556991693  1.0000
  H   H62       1.0  0.0262818350422265  0.5195208892937516  0.7772332910495051  1.0000
  H   H63       1.0  0.9737203060856384  0.019521264963586304  0.2227655042058387  1.0000
  H   H64       1.0  0.526282285991783  0.9804794696087172  0.7227662550803656  1.0000
  H   H65       1.0  0.49627559546944866  0.7499990231440778  0.4910605765551637  1.0000
  H   H66       1.0  0.003721871381010499  0.2500005098787597  0.9910595544945054  1.0000
  H   H67       1.0  0.9962781909755876  0.7500013220389619  0.0089402378050067  1.0000
  H   H68       1.0  0.5037231785170206  0.2500002262067724  0.5089403996695125  1.0000
  H   H69       1.0  0.537058385434527  0.6387333784244049  0.3459008767769305  1.0000
  H   H70       1.0  0.9629396594607726  0.3612687345643976  0.8459005004636353  1.0000
  H   H71       1.0  0.037060332308662694  0.8612671544251354  0.1540995962585754  1.0000
  H   H72       1.0  0.462940459138835  0.13873284688142457  0.654099400383288  1.0000
  H   H73       1.0  0.462940388551736  0.3612669039535136  0.6540993101646322  1.0000
  H   H74       1.0  0.03705975871049819  0.6387330973537217  0.1540988971945723  1.0000
  H   H75       1.0  0.9629403742335965  0.13873416097973026  0.84589940675842  1.0000
  H   H76       1.0  0.5370583148475349  0.8612669189829634  0.3459011811998352  1.0000
  H   H77       1.0  0.29706594653983126  0.4426435315585947  0.012427848581040702  1.0000
  H   H78       1.0  0.2029348884954558  0.5573546005806804  0.5124273434614324  1.0000
  H   H79       1.0  0.7970646518891085  0.05735519694628273  0.487572999682655  1.0000
  H   H80       1.0  0.7029359261612239  0.942644136589095  0.987573366083069  1.0000
  H   H81       1.0  0.7029354041880609  0.5573562343052599  0.9875727330019259  1.0000
  H   H82       1.0  0.7970645296765752  0.44264464877085885  0.4875724488391668  1.0000
  H   H83       1.0  0.20293541046743252  0.9426466349711617  0.5124271872582042  1.0000
  H   H84       1.0  0.2970667129376777  0.0573540797336136  0.0124287940658334  1.0000
  H   H85       1.0  0.4880712664967318  0.5023249519214588  0.8974173468436675  1.0000
  H   H86       1.0  0.011930094275925297  0.497676260778718  0.39741705116494325  1.0000
  H   H87       1.0  0.9880685225861255  0.9976762512900876  0.6025833295947223  1.0000
  H   H88       1.0  0.5119302413549391  0.0023241337915749  0.10258264627922388  1.0000
  H   H89       1.0  0.5119300842311744  0.49767533045648077  0.10258205081505169  1.0000
  H   H90       1.0  0.9880699680811629  0.5023240215992145  0.6025827411352012  1.0000
  H   H91       1.0  0.011929607214305799  0.0023250641139398  0.39741764662915097  1.0000
  H   H92       1.0  0.48807239774416894  0.9976745990460433  0.8974171460213966  1.0000
  H   H93       1.0  0.22652811589723842  0.5740986656568908  0.8823037532857684  1.0000
  H   H94       1.0  0.2734713169703226  0.425899468968737  0.3823023015145779  1.0000
  H   H95       1.0  0.7265279896117817  0.9259000618711255  0.6176973481608954  1.0000
  H   H96       1.0  0.7734720580497196  0.07410133523244873  0.11769657628084218  1.0000
  H   H97       1.0  0.7734719464605461  0.4258990341541846  0.11769682829810792  1.0000
  H   H98       1.0  0.7265268128314375  0.5740982308432832  0.6176974907867177  1.0000
  H   H99       1.0  0.27347142856010714  0.07410022050776628  0.3823012602152431  1.0000
  H   H100      1.0  0.22652800430655154  0.925901529711794  0.8823032160182507  1.0000
  H   H101      1.0  0.20843361337665556  0.6105806631715751  0.6727030115739296  1.0000
  H   H102      1.0  0.2915671723471149  0.3894198287945443  0.1727027712056142  1.0000
  H   H103      1.0  0.7084334457484118  0.8894201378054587  0.8272961187660002  1.0000
  H   H104      1.0  0.7915678257981965  0.1105799349841661  0.3272972884132841  1.0000
  H   H105      1.0  0.7915677373508101  0.3894206522323387  0.3272971753670646  1.0000
  H   H106      1.0  0.7084335341956417  0.6105799370705468  0.8272962318120065  1.0000
  H   H107      1.0  0.291567904979722  0.11057962805949731  0.17270288425158498  1.0000
  H   H108      1.0  0.208434169114973  0.8894203473930914  0.672702898528094  1.0000
  H   H109      1.0  0.11594985258158631  0.5865860328272203  0.7096580316294379  1.0000
  H   H110      1.0  0.38405156595788975  0.41341440778126776  0.20965776106784523  1.0000
  H   H111      1.0  0.6159503252862634  0.9134153224581142  0.7903407148065683  1.0000
  H   H112      1.0  0.8840516018151374  0.08658583471567029  0.2903422878131323  1.0000
  H   H113      1.0  0.8840521423315834  0.41341424955004397  0.2903421553119401  1.0000
  H   H114      1.0  0.6159504289556281  0.5865853580835532  0.7903412419496973  1.0000
  H   H115      1.0  0.3840516696270483  0.08658547643378259  0.2096574989278608  1.0000
  H   H116      1.0  0.11594974891249168  0.9134149641749827  0.709657899128075  1.0000
  H   H117      1.0  0.2146139177278313  0.6088105223394393  0.7426764744202855  1.0000
  H   H118      1.0  0.28538684646756707  0.39119038889568  0.2426762333340733  1.0000
  H   H119      1.0  0.7146150588755731  0.8911902761113739  0.7573230498433574  1.0000
  H   H120      1.0  0.7853868783847343  0.10880937740883921  0.2573238270024163  1.0000
  H   H121      1.0  0.7853867888142501  0.39119079306460947  0.2573237125207442  1.0000
  H   H122      1.0  0.7146151484457306  0.6088098934821315  0.7573231643246103  1.0000
  H   H123      1.0  0.2853869360380513  0.10880897323991691  0.24267634781574537  1.0000
  H   H124      1.0  0.2146144723432144  0.8911903884552926  0.7426763599392103  1.0000
  C   C1        1.0  0.3207685929863756  0.6592543378788919  0.57129712887469  1.0000
  C   C2        1.0  0.17923157975118184  0.3407452619879265  0.0712965463739863  1.0000
  C   C3        1.0  0.8207716459645267  0.8407453841621901  0.9287039616297433  1.0000
  C   C4        1.0  0.679231526939084  0.15925454769858052  0.42870352628748515  1.0000
  C   C5        1.0  0.6792314693707551  0.3407454279852331  0.4287034527083549  1.0000
  C   C6        1.0  0.8207704151621157  0.6592550203898853  0.9287028512846973  1.0000
  C   C7        1.0  0.17923163731941116  0.1592548982148045  0.0712962253115634  1.0000
  C   C8        1.0  0.3207698237887442  0.8407452181650042  0.5712974499368286  1.0000
  C   C9        1.0  0.3764133263445757  0.6374507212811267  0.615794919496409  1.0000
  C   C10       1.0  0.12358812107344617  0.3625488167455018  0.11579432577717338  1.0000
  C   C11       1.0  0.8764144466246504  0.8625489780194612  0.8842073484716337  1.0000
  C   C12       1.0  0.6235880957837024  0.13745101568054705  0.3842057533446877  1.0000
  C   C13       1.0  0.623588024383153  0.36254956109599584  0.38420566208635165  1.0000
  C   C14       1.0  0.8764138738396238  0.6374519821453006  0.8842054665226443  1.0000
  C   C15       1.0  0.12358754828817807  0.13745182087023977  0.11579402239357249  1.0000
  C   C16       1.0  0.37641389912957374  0.8625487501831797  0.6157948282382435  1.0000
  C   C17       1.0  0.4688056251455989  0.5816997776114476  0.6631195377118289  1.0000
  C   C18       1.0  0.03119516352681019  0.4183002111598526  0.163119304156325  1.0000
  C   C19       1.0  0.9688067246177494  0.9183004004459863  0.8368811409635626  1.0000
  C   C20       1.0  0.5311945439802057  0.08169965902437333  0.336880391051352  1.0000
  C   C21       1.0  0.5311944372114893  0.4183005047664848  0.33688025458830856  1.0000
  C   C22       1.0  0.9688061872013234  0.5816995547051036  0.8368796988612601  1.0000
  C   C23       1.0  0.031195270295363297  0.0816998819310015  0.16311944061916248  1.0000
  C   C24       1.0  0.46880616256213864  0.9183006233528773  0.6631201905314441  1.0000
  C   C25       1.0  0.5348629842325465  0.531275144728802  0.6807213476517903  1.0000
  C   C26       1.0  0.9651389765953409  0.4687246152476233  0.1807214174695915  1.0000
  C   C27       1.0  0.0348648121166022  0.9687246941533018  0.819278197481914  1.0000
  C   C28       1.0  0.46513850525274586  0.03127611062507901  0.3192786219966948  1.0000
  C   C29       1.0  0.4651383664954665  0.4687246211355998  0.3192784446484893  1.0000
  C   C30       1.0  0.0348630183178358  0.5312756671296412  0.8192787694717864  1.0000
  C   C31       1.0  0.9651384711675204  0.031275588224524094  0.1807208055353442  1.0000
  C   C32       1.0  0.5348634896603243  0.9687246882657162  0.6807211703031298  1.0000
  C   C33       1.0  0.5081331633862973  0.6195892640712941  0.45058187119607135  1.0000
  C   C34       1.0  0.9918654934882198  0.38041115389813734  0.950583054567865  1.0000
  C   C35       1.0  0.008138351249265  0.8804112805999649  0.049416237349483104  1.0000
  C   C36       1.0  0.49186311659092735  0.11958680013287187  0.5494192107703952  1.0000
  C   C37       1.0  0.4918643222297731  0.38040998528146724  0.5494167371806  1.0000
  C   C38       1.0  0.008133280497709398  0.6195917110482867  0.0494139752418761  1.0000
  C   C39       1.0  0.9918649320351989  0.1195884852654174  0.950581581743954  1.0000
  C   C40       1.0  0.508132436469367  0.880409350137967  0.450583344021112  1.0000
  C   C41       1.0  0.5146742047608157  0.6872478715540566  0.4215374242160905  1.0000
  C   C42       1.0  0.9853231726791163  0.31275258678092405  0.9215366900002877  1.0000
  C   C43       1.0  0.014674273126395595  0.8127537034702995  0.0784626567766367  1.0000
  C   C44       1.0  0.4853265415917533  0.18724640295125275  0.5784624189660335  1.0000
  C   C45       1.0  0.48532650178204045  0.31275137779749684  0.5784619734430834  1.0000
  C   C46       1.0  0.014674957121847897  0.6872482121114842  0.0784619183757158  1.0000
  C   C47       1.0  0.9853238566748458  0.1872465789093951  0.9215351623168857  1.0000
  C   C48       1.0  0.5146748091365224  0.8127523298863577  0.42153776797600534  1.0000
  C   C49       1.0  0.5068015911433718  0.7499990505072984  0.4485861171145729  1.0000
  C   C50       1.0  0.9931970663461056  0.2499993041839446  0.9485854328660538  1.0000
  C   C51       1.0  0.006804284381310299  0.7500025277337842  0.05141396479203309  1.0000
  C   C52       1.0  0.4931958944727625  0.2499986493037554  0.5514152537521468  1.0000
  C   C53       1.0  0.5296019209460994  0.6874545117353391  0.36695576257023527  1.0000
  C   C54       1.0  0.9703961174716652  0.3125465389660249  0.8669558195375586  1.0000
  C   C55       1.0  0.0296039052066561  0.8125455076484086  0.1330443166898476  1.0000
  C   C56       1.0  0.4703968927184902  0.1874550394320593  0.6330448697263336  1.0000
  C   C57       1.0  0.47039620885488626  0.3125452541291764  0.6330448190129161  1.0000
  C   C58       1.0  0.029602656514065  0.68745580946549  0.1330435781204713  1.0000
  C   C59       1.0  0.9703961571498994  0.18745684078312053  0.866954686326764  1.0000
  C   C60       1.0  0.5296025254531996  0.8125447264319164  0.366956106498094  1.0000
  C   C61       1.0  0.5360708148755791  0.7500001530836612  0.3398880761713983  1.0000
  C   C62       1.0  0.963926587684419  0.2500019682622039  0.8398866060378865  1.0000
  C   C63       1.0  0.0360715421165381  0.7499988306302041  0.1601120023381171  1.0000
  C   C64       1.0  0.4639292474815093  0.2500001292942713  0.6601117161287391  1.0000
  C   C65       1.0  0.1604256842205913  0.5098438529277658  0.9686398651646188  1.0000
  C   C66       1.0  0.3395762988244043  0.4901588103317067  0.46863993218236993  1.0000
  C   C67       1.0  0.6604191018810254  0.9901538685879814  0.5313624278815894  1.0000
  C   C68       1.0  0.839580972344059  0.009844032906919197  0.0313589379369787  1.0000
  C   C69       1.0  0.8395801758052669  0.4901538468804814  0.0313630842670065  1.0000
  C   C70       1.0  0.6604231193464468  0.5098430215845015  0.5313622279652606  1.0000
  C   C71       1.0  0.33957516280824507  0.009843314709918598  0.4686397322682225  1.0000
  C   C72       1.0  0.1604248876809535  0.9901572824955305  0.968642038286447  1.0000
  C   C73       1.0  0.25181111451121296  0.5078640525536428  0.9490242125397401  1.0000
  C   C74       1.0  0.24818958619967893  0.49213398934802643  0.44902310464028267  1.0000
  C   C75       1.0  0.7518077458073549  0.9921341481283933  0.5509784645372661  1.0000
  C   C76       1.0  0.7481936107527004  0.0078652756441926  0.0509761707322127  1.0000
  C   C77       1.0  0.7481921687732435  0.4921336472556772  0.0509779476093399  1.0000
  C   C78       1.0  0.7518085436020029  0.5078631939496319  0.5509782662266076  1.0000
  C   C79       1.0  0.2481890956225782  0.007866134249098898  0.44902290632844444  1.0000
  C   C80       1.0  0.2518103167162167  0.9921355232448406  0.949025594774227  1.0000
  C   C81       1.0  0.31410578133819195  0.46988893282689037  0.9763472179365921  1.0000
  C   C82       1.0  0.18589619933701576  0.530109071102096  0.4763472704023712  1.0000
  C   C83       1.0  0.8141014257753553  0.030110643389342297  0.5236538841156104  1.0000
  C   C84       1.0  0.6858973624495448  0.9698888183559119  0.023653974636353305  1.0000
  C   C85       1.0  0.6858981461313929  0.5301103165231779  0.0236533636464387  1.0000
  C   C86       1.0  0.8141032188356545  0.4698875956823159  0.5236537058233068  1.0000
  C   C87       1.0  0.1858960598395852  0.9698911885283508  0.47634669746674513  1.0000
  C   C88       1.0  0.3141072092055665  0.030109397966676006  0.9763477908711025  1.0000
  C   C89       1.0  0.3987014979200365  0.466818773759904  0.9575737307811139  1.0000
  C   C90       1.0  0.1012985559747008  0.5331797727725486  0.4575741852206221  1.0000
  C   C91       1.0  0.8987003555609971  0.033180251372456795  0.5424253882425347  1.0000
  C   C92       1.0  0.601300359444586  0.9668191842842474  0.04242667499837441  1.0000
  C   C93       1.0  0.6012998528082034  0.5331804755915144  0.0424256668780245  1.0000
  C   C94       1.0  0.8986995738268817  0.4668179270386471  0.542426791004722  1.0000
  C   C95       1.0  0.1012984184252232  0.966820547519276  0.4575740094161276  1.0000
  C   C96       1.0  0.3987022796540742  0.0331805815793516  0.9575739065845212  1.0000
  C   C97       1.0  0.4219063393066874  0.50293134189733  0.9119709340110801  1.0000
  C   C98       1.0  0.0780930844327088  0.49706778452381417  0.41197181506704794  1.0000
  C   C99       1.0  0.9219055328153016  0.9970683388147066  0.5880277769030684  1.0000
  C   C100      1.0  0.5780932356040509  0.0029310334676395998  0.0880286639786902  1.0000
  C   C101      1.0  0.5780937230506848  0.49706842396788914  0.088028069006576  1.0000
  C   C102      1.0  0.9219056895540872  0.5029304318005143  0.5880291611580404  1.0000
  C   C103      1.0  0.07809324117091877  0.0029324600770265995  0.41197162075559396  1.0000
  C   C104      1.0  0.421908115123756  0.9970697654238445  0.9119703390384757  1.0000
  C   C105      1.0  0.3594918536951042  0.5416822643076529  0.8850216536616954  1.0000
  C   C106      1.0  0.14050757833571478  0.4583174160803478  0.3850205856845861  1.0000
  C   C107      1.0  0.8594917076809948  0.9583169253962468  0.6149790377058793  1.0000
  C   C108      1.0  0.6405089850024691  0.04168344245808699  0.11497870218967421  1.0000
  C   C109      1.0  0.6405082086624173  0.4583164685302208  0.11497853328042142  1.0000
  C   C110      1.0  0.8594911956509819  0.5416813167575186  0.6149799958989561  1.0000
  C   C111      1.0  0.1405077104907733  0.0416833569820909  0.3850203599529536  1.0000
  C   C112      1.0  0.35949172153977565  0.9583173564327014  0.8850214847515616  1.0000
  C   C113      1.0  0.2744993193532109  0.5436630973922405  0.9032122560132122  1.0000
  C   C114      1.0  0.22550203963738363  0.45633552468825667  0.4032119690573026  1.0000
  C   C115      1.0  0.7744978918214753  0.9563361270451337  0.5967888398636987  1.0000
  C   C116      1.0  0.7255021622732937  0.0436642660899054  0.09678691430796958  1.0000
  C   C117      1.0  0.7255013871899506  0.4563346024186998  0.09678832557062832  1.0000
  C   C118      1.0  0.7744986669056572  0.5436621751221367  0.5967894018092323  1.0000
  C   C119      1.0  0.22550152635000836  0.04366467184591728  0.40321134707761525  1.0000
  C   C120      1.0  0.2744985442688018  0.9563375658282284  0.9032120887088126  1.0000
  C   C121      1.0  0.38377312709329897  0.5839480555685411  0.8381824429963132  1.0000
  C   C122      1.0  0.11622631934817207  0.41605168991331704  0.338181412108689  1.0000
  C   C123      1.0  0.8837723492962366  0.916051640726387  0.6618174562692616  1.0000
  C   C124      1.0  0.6162263964206146  0.08394917854938912  0.161816300019396  1.0000
  C   C125      1.0  0.616226291079016  0.41605067727028455  0.1618165600218049  1.0000
  C   C126      1.0  0.8837743871947408  0.5839475594385134  0.6618175909091378  1.0000
  C   C127      1.0  0.1162257805042088  0.0839501911917253  0.3381823360303642  1.0000
  C   C128      1.0  0.3837736659365945  0.9160511038290903  0.8381827029980542  1.0000
  C   C129      1.0  0.1721627466270873  0.6207569895900206  0.7090711828306766  1.0000
  C   C130      1.0  0.32783931627825785  0.3792434518336023  0.20907134114374773  1.0000
  C   C131      1.0  0.6721632408293841  0.8792433096965336  0.7909275570792431  1.0000
  C   C132      1.0  0.8278393302774559  0.12075629712235521  0.2909283196225232  1.0000
  C   C133      1.0  0.8278392482859827  0.37924380930077456  0.2909286094691481  1.0000
  C   C134      1.0  0.6721633228204168  0.6207568305440814  0.7909280565149004  1.0000
  C   C135      1.0  0.32783939826934727  0.12075697268141991  0.2090714459380507  1.0000
  C   C136      1.0  0.17216266463583443  0.8792439852554566  0.7090710780361604  1.0000
  C   C137      1.0  0.14385657322624465  0.6938983707681031  0.7112499696947125  1.0000
  C   C138      1.0  0.3561416238965335  0.30610206762861475  0.2112497893854552  1.0000
  C   C139      1.0  0.6438564703134801  0.8061029731122885  0.7887495627839556  1.0000
  C   C140      1.0  0.856141592165521  0.19389766976117784  0.2887498680948255  1.0000
  C   C141      1.0  0.8561415565744709  0.30610242812321076  0.2887502172466796  1.0000
  C   C142      1.0  0.6438565059048003  0.6938971817234646  0.788749608273875  1.0000
  C   C143      1.0  0.3561423036727406  0.19389782577943748  0.2112498348746996  1.0000
  C   C144      1.0  0.143857181820799  0.8061026126170177  0.7112499242053901  1.0000
  N   N1        1.0  0.37513911132919014  0.6655887810408315  0.6639301024649596  1.0000
  N   N2        1.0  0.12486232127949386  0.3344106900911115  0.1639291367716567  1.0000
  N   N3        1.0  0.875140264269639  0.8344104022680342  0.8360709817271897  1.0000
  N   N4        1.0  0.6248622929484496  0.16558914181448608  0.33607054756092236  1.0000
  N   N5        1.0  0.6248622393987019  0.3344109848230232  0.33607047911800686  1.0000
  N   N6        1.0  0.8751396736338606  0.6655895922869701  0.8360698662456797  1.0000
  N   N7        1.0  0.12486237482902138  0.16558936359555784  0.16392959985570596  1.0000
  N   N8        1.0  0.37514034615014674  0.8344106240488357  0.6639304286633206  1.0000
  N   N9        1.0  0.43409625246162153  0.6301146172310935  0.6940984711491254  1.0000
  N   N10       1.0  0.06590517086533507  0.36988481197469264  0.19409787817879479  1.0000
  N   N11       1.0  0.934096747993692  0.8698850584977151  0.8059022115563863  1.0000
  N   N12       1.0  0.5659051743206475  0.1301150440246346  0.3059018129989042  1.0000
  N   N13       1.0  0.5659050982664978  0.3698846321197776  0.3059017157927073  1.0000
  N   N14       1.0  0.9340968240481259  0.6301149538898585  0.805901519480102  1.0000
  N   N15       1.0  0.06590524691948468  0.1301152238795495  0.1940979753849916  1.0000
  N   N16       1.0  0.4340968205926287  0.8698847218390924  0.6940987685840269  1.0000
  N   N17       1.0  0.43435202064294726  0.5851635567358429  0.6139693264625592  1.0000
  N   N18       1.0  0.06564942733641027  0.4148370168544062  0.11396869707377989  1.0000
  N   N19       1.0  0.9343550397470036  0.9148366354014568  0.8860309615715565  1.0000
  N   N20       1.0  0.565648790470803  0.08516335576283039  0.38603099413343495  1.0000
  N   N21       1.0  0.5656486858992977  0.41483724215493817  0.3860308604786837  1.0000
  N   N22       1.0  0.9343532117618732  0.5851642985495216  0.8860310952257963  1.0000
  N   N23       1.0  0.06564888772237508  0.0851636469756869  0.11396883072836062  1.0000
  N   N24       1.0  0.4343532044426936  0.9148358935879132  0.6139691928083622  1.0000
  N   N25       1.0  0.1959898352205443  0.7500004856431984  0.7046254942831  1.0000
  N   N26       1.0  0.30401094068179896  0.24999996195892044  0.204625760157171  1.0000
  N   N27       1.0  0.6959916984170034  0.7500003204193104  0.7953728482187826  1.0000
  N   N28       1.0  0.8040108713218216  0.2500003132481369  0.2953739033754488  1.0000
  N   N29       1.0  0.06367931999777449  0.7144499264292817  0.7211562530943708  1.0000
  N   N30       1.0  0.43632145081868146  0.28555049819956213  0.22115647478128153  1.0000
  N   N31       1.0  0.5636798773563355  0.785550417190386  0.7788428940521754  1.0000
  N   N32       1.0  0.9363214090978144  0.21444920642352366  0.2788431733898591  1.0000
  N   N33       1.0  0.9363213865445984  0.28555087246205346  0.27884314456417053  1.0000
  N   N34       1.0  0.5636798999093952  0.7144492676651167  0.7788429228776508  1.0000
  N   N35       1.0  0.43632147337174126  0.2144493486743002  0.22115650360675693  1.0000
  N   N36       1.0  0.06367929744471469  0.7855510759545509  0.7211562242688957  1.0000
  O   O1        1.0  0.486386100996107  0.6215871081611084  0.49900752198169585  1.0000
  O   O2        1.0  0.013612007593707197  0.3784165459247433  0.9990048160854883  1.0000
  O   O3        1.0  0.9863931267798022  0.8784173731683322  0.0009936881660977  1.0000
  O   O4        1.0  0.5136095335285661  0.12158366960736797  0.5009939530066418  1.0000
  O   O5        1.0  0.5136100962483638  0.37841420724413405  0.5009922703182568  1.0000
  O   O6        1.0  0.9863867663914903  0.6215878685603683  0.0009937922890088998  1.0000
  O   O7        1.0  0.013610800690344099  0.12158239269829352  0.999002157720568  1.0000
  O   O8        1.0  0.4863866637168214  0.8784145467180341  0.4990062339359084  1.0000
  O   O9        1.0  0.5248865139509816  0.5650935142703232  0.4242407663692518  1.0000
  O   O10       1.0  0.9751089301011859  0.43490745682256443  0.9242383557272191  1.0000
  O   O11       1.0  0.024889726580028092  0.9349101226305547  0.0757628652088869  1.0000
  O   O12       1.0  0.4751104447832545  0.06509050405657751  0.5757623329909194  1.0000
  O   O13       1.0  0.47511161584949235  0.4349072846198965  0.5757609991375219  1.0000
  O   O14       1.0  0.024888555515602193  0.5650897264774244  0.0757598580089436  1.0000
  O   O15       1.0  0.9751109799627499  0.06509015974861398  0.9242349538844863  1.0000
  O   O16       1.0  0.5248870408329225  0.9349066792406688  0.42423982715870073  1.0000
  O   O17       1.0  0.10500254618770549  0.5384928094598179  0.9389292830041568  1.0000
  O   O18       1.0  0.39499815762891183  0.46150576298461493  0.4389277882528689  1.0000
  O   O19       1.0  0.6049985496234881  0.9615054512187272  0.5610722271938116  1.0000
  O   O20       1.0  0.8950015154601586  0.03849395852572  0.0610710754331478  1.0000
  O   O21       1.0  0.895000092911452  0.4615038573220145  0.0610744557107665  1.0000
  O   O22       1.0  0.6050012605417123  0.5384965854445766  0.5610747665358957  1.0000
  O   O23       1.0  0.39499635925003657  0.038495864185961196  0.43892874903025353  1.0000
  O   O24       1.0  0.10500434456555749  0.9615047743098727  0.9389306900740166  1.0000
  O   O25       1.0  0.1456437180330497  0.4820643705137044  0.0133149951362554  1.0000
  O   O26       1.0  0.3543584050997949  0.5179347934192008  0.5133141097577578  1.0000
  O   O27       1.0  0.6456398719218653  0.017934419871870902  0.4866870546322488  1.0000
  O   O28       1.0  0.8543607064016924  0.9820643983836986  0.9866842143576093  1.0000
  O   O29       1.0  0.8543608536218197  0.5179338458077892  0.9866883489365819  1.0000
  O   O30       1.0  0.6456410130714473  0.48206600547074874  0.4866876557489448  1.0000
  O   O31       1.0  0.35435954625003047  0.982064312965036  0.5133147108752922  1.0000
  O   O32       1.0  0.1456412885109656  0.017936917019262894  0.0133171565073837  1.0000
  O   O33       1.0  0.32814513494886904  0.6198891425420994  0.8139782885976173  1.0000
  O   O34       1.0  0.1718536747538124  0.3801106365765748  0.3139780696762244  1.0000
  O   O35       1.0  0.8281437283203343  0.880111092999442  0.6860216171263787  1.0000
  O   O36       1.0  0.6718556541349727  0.11989020915195431  0.18602081991727462  1.0000
  O   O37       1.0  0.6718549274088302  0.3801095902965983  0.18602071442045803  1.0000
  O   O38       1.0  0.8281463876035032  0.6198891292883673  0.6860213279827788  1.0000
  O   O39       1.0  0.17185375729446406  0.11989177194559629  0.3139777805315163  1.0000
  O   O40       1.0  0.3281456965924504  0.8801116227657743  0.8139785777408193  1.0000
  O   O41       1.0  0.464179704136427  0.5849986370264446  0.8239153639478687  1.0000
  O   O42       1.0  0.03582103506476389  0.415002677822322  0.3239143432468623  1.0000
  O   O43       1.0  0.9641782784302463  0.9150030924617449  0.6760853152641246  1.0000
  O   O44       1.0  0.5358217512675836  0.08499822349882179  0.1760837728578508  1.0000
  O   O45       1.0  0.5358216465916498  0.41500112883824136  0.1760840337110565  1.0000
  O   O46       1.0  0.964179671477602  0.5849981210690129  0.6760850544116864  1.0000
  O   O47       1.0  0.0358204955552992  0.0849992559689525  0.3239152663179468  1.0000
  O   O48       1.0  0.4641795994609267  0.9149999928257981  0.8239160194430538  1.0000
  O   O49       1.0  0.3813303347222571  0.7499998893537807  0.7649322062316131  1.0000
  O   O50       1.0  0.1186697784407045  0.2500004744389273  0.264931704341258  1.0000
  O   O51       1.0  0.8813302839161565  0.7500003244519957  0.7350684826000204  1.0000
  O   O52       1.0  0.6186697276349307  0.24999987651061428  0.2350679807100846  1.0000
  O   O53       1.0  0.5547753899218789  0.7500007032576264  0.2859457333710012  1.0000
  O   O54       1.0  0.9452239617899777  0.25000252607968315  0.7859442654090358  1.0000
  O   O55       1.0  0.054776100566698495  0.749999822352393  0.21405394832488162  1.0000
  O   O56       1.0  0.44522467243520936  0.2499995791202991  0.7140540589291433  1.0000
  O   O57       1.0  0.4560629931958431  0.4278813899229166  0.9862093139725658  1.0000
  O   O58       1.0  0.043938340259131785  0.5721186663536031  0.4862093488583028  1.0000
  O   O59       1.0  0.9560611907591292  0.0721196778204245  0.513790587673121  1.0000
  O   O60       1.0  0.5439395330561962  0.9278803141444382  0.013791518020433102  1.0000
  O   O61       1.0  0.543939001717163  0.5721194089676019  0.0137908729685989  1.0000
  O   O62       1.0  0.9560617220981624  0.4278805829972613  0.5137912327249552  1.0000
  O   O63       1.0  0.043938227412084495  0.9278821540974247  0.48620920462643363  1.0000
  O   O64       1.0  0.45606439441333174  0.0721189352053599  0.9862094582039377  1.0000
