data_image0
_chemical_formula_structural       Zn4H32C62N18
_chemical_formula_sum              "Zn4 H32 C62 N18"
_cell_length_a       18.817558914953345
_cell_length_b       18.703734939313705
_cell_length_c       18.62678682527294
_cell_angle_alpha    103.35592875454398
_cell_angle_beta     108.56761318696891
_cell_angle_gamma    110.76781384438233

_space_group_name_H-M_alt    "P 1"
_space_group_IT_number       1

loop_
  _space_group_symop_operation_xyz
  'x, y, z'

loop_
  _atom_site_type_symbol
  _atom_site_label
  _atom_site_symmetry_multiplicity
  _atom_site_fract_x
  _atom_site_fract_y
  _atom_site_fract_z
  _atom_site_occupancy
  Zn  Zn1       1.0  0.8729981826769376  0.0069615146169467535  0.38718601899629596  1.0000
  Zn  Zn2       1.0  0.11740240801304222  0.9981743897461043  0.6140753954125628  1.0000
  Zn  Zn3       1.0  0.0703453384866819  0.1260454383209506  0.48715544135759364  1.0000
  Zn  Zn4       1.0  0.8988516536865421  0.9013023729558542  0.5079242483268159  1.0000
  H   H1        1.0  0.8686019466319976  0.8804935716788266  0.2327843753778892  1.0000
  H   H2        1.0  0.8549013078212581  0.9923254143875652  0.6415094550272115  1.0000
  H   H3        1.0  0.7453104309903794  0.7165782369816468  0.37193224435022637  1.0000
  H   H4        1.0  0.254821898567215  0.2770466164418152  0.5991840617588267  1.0000
  H   H5        1.0  0.3261872279461927  0.02771665987595645  0.7165810085408992  1.0000
  H   H6        1.0  0.8455957961495388  0.14213064212680138  0.49585396496632944  1.0000
  H   H7        1.0  0.873828653328566  0.7398653412445455  0.37287998466310773  1.0000
  H   H8        1.0  0.07748759258663541  0.3033628498752848  0.4962840264113381  1.0000
  H   H9        1.0  0.6697588683393293  0.5840960822650842  0.9677582404762859  1.0000
  H   H10       1.0  0.43215976250043303  0.3871556868076667  0.9910512755285411  1.0000
  H   H11       1.0  0.26705406856880387  0.17524909569984  0.295872953963169  1.0000
  H   H12       1.0  0.12754253475882393  0.00870071130446351  0.7935657873857878  1.0000
  H   H13       1.0  0.32317875980119487  0.17515842128418066  0.39265516490640806  1.0000
  H   H14       1.0  0.3186140354704179  0.11223516397589606  0.30221594756972076  1.0000
  H   H15       1.0  0.21592766947713932  0.023773832849777018  0.34417089713547  1.0000
  H   H16       1.0  0.16195047743365623  0.02594565503152782  0.2487100208773754  1.0000
  H   H17       1.0  0.140353254720047  0.1424842779207509  0.3231961614790677  1.0000
  H   H18       1.0  0.18609872602171862  0.1308907624727667  0.4161119195941225  1.0000
  H   H19       1.0  0.6962472266381284  0.7144040514235358  0.6558013885034768  1.0000
  H   H20       1.0  0.6852748762075506  0.6736943298814635  0.5546717947088239  1.0000
  H   H21       1.0  0.7119248098967363  0.6263180542017468  0.6243174274453339  1.0000
  H   H22       1.0  0.8418262856945091  0.7136862865623143  0.6129065207303414  1.0000
  H   H23       1.0  0.6291434928282414  0.41629233026888807  0.9406405989754134  1.0000
  H   H24       1.0  0.8522501719101214  0.753299705895131  0.7132936273192385  1.0000
  H   H25       1.0  0.8073944228480131  0.8573979280391271  0.6804915460483372  1.0000
  H   H26       1.0  0.7971200677079153  0.8188848027700216  0.5797602414390255  1.0000
  H   H27       1.0  0.47265898359461295  0.5563188315152702  0.01851998738612785  1.0000
  H   H28       1.0  0.49636257263291855  0.5349163124333672  0.8730401880018663  1.0000
  H   H29       1.0  0.6060890319129085  0.4372763284102703  0.08539084593162738  1.0000
  H   H30       1.0  0.1457284008021773  0.86092812513985  0.5191500295994658  1.0000
  H   H31       1.0  0.8228589153985767  0.14240904897377496  0.30195196440514854  1.0000
  H   H32       1.0  0.3119804767601125  0.07838235665751371  0.49777209915202286  1.0000
  C   C1        1.0  0.9309626098162552  0.931959632992516  0.2736474129586881  1.0000
  C   C2        1.0  0.5060924742343718  0.5239867545717659  0.9998814939140247  1.0000
  C   C3        1.0  0.6163069992870762  0.5402038294063162  0.9724029595574494  1.0000
  C   C4        1.0  0.4853470324799858  0.43226506161603606  0.9871729443401307  1.0000
  C   C5        1.0  0.676597880424538  0.6817306833912583  0.1927077646642203  1.0000
  C   C6        1.0  0.3634946033606639  0.3046515367514219  0.7714717124061536  1.0000
  C   C7        1.0  0.5807586903108942  0.4584485115186894  0.03783472077055447  1.0000
  C   C8        1.0  0.5209958169448045  0.514232963431752  0.9212901083837152  1.0000
  C   C9        1.0  0.6030470686946787  0.5524581374429547  0.05366450194694052  1.0000
  C   C10       1.0  0.49692059135344396  0.4200042648840636  0.9052828783124058  1.0000
  C   C11       1.0  0.6486716882918416  0.6218620998065845  0.12951931525459057  1.0000
  C   C12       1.0  0.06307312280936368  0.9688738093136637  0.7462100693583835  1.0000
  C   C13       1.0  0.431238156425593  0.3543691495475301  0.8305833023031256  1.0000
  C   C14       1.0  0.006289303611382003  0.6881403078406051  0.40780736195630146  1.0000
  C   C15       1.0  0.9483231744326448  0.3252249806591864  0.3808792145772558  1.0000
  C   C16       1.0  0.0790114596897737  0.8438781595921441  0.4892062335046177  1.0000
  C   C17       1.0  0.8859632720096544  0.16974244897150473  0.35156593275828385  1.0000
  C   C18       1.0  0.9961920495053678  0.6166551810104084  0.3931249481559861  1.0000
  C   C19       1.0  0.9579549537613447  0.3930092115151922  0.3782132710302619  1.0000
  C   C20       1.0  0.9834846789085105  0.5391720816136784  0.3832681592490985  1.0000
  C   C21       1.0  0.9700824531801473  0.4681228056761597  0.37842913663276073  1.0000
  C   C22       1.0  0.7777601486548493  0.10272259413297759  0.6138312983603528  1.0000
  C   C23       1.0  0.009766483229839203  0.7663767532929883  0.432086046408905  1.0000
  C   C24       1.0  0.4412726648163244  0.07921265319416188  0.6357087653103193  1.0000
  C   C25       1.0  0.7208624969816456  0.10920942577026686  0.6293951757725509  1.0000
  C   C26       1.0  0.5128761300802227  0.09359265581889537  0.6424054880084001  1.0000
  C   C27       1.0  0.6541189323471457  0.11034839625571627  0.6403709913810259  1.0000
  C   C28       1.0  0.5877024501285106  0.10410767231624625  0.6440863929611994  1.0000
  C   C29       1.0  0.9982175856313376  0.9465601567680723  0.1778387563666116  1.0000
  C   C30       1.0  0.9851439489314515  0.9203228327582808  0.8267967430520854  1.0000
  C   C31       1.0  0.9929961419185533  0.9342145595330823  0.10810271113153659  1.0000
  C   C32       1.0  0.9837666333976999  0.9191325196642597  0.8921419247409264  1.0000
  C   C33       1.0  0.9882032448071386  0.9250873471374987  0.033029559375400204  1.0000
  C   C34       1.0  0.9484311217084527  0.25392938329343917  0.39247642145340944  1.0000
  C   C35       1.0  0.9848548634056514  0.9206947662191426  0.9646799478092163  1.0000
  C   C36       1.0  0.29986569054501905  0.06293192140361732  0.5469060801942831  1.0000
  C   C37       1.0  0.8596607682607811  0.023036695920723032  0.5991848463491324  1.0000
  C   C38       1.0  0.7481836269334111  0.7640114419790934  0.34699471262987913  1.0000
  C   C39       1.0  0.2362180724811935  0.23731820101279072  0.6310245350209271  1.0000
  C   C40       1.0  0.3082775075661815  0.036567060188559736  0.6591123506783279  1.0000
  C   C41       1.0  0.8551835142105446  0.10018389666959847  0.5250210396152256  1.0000
  C   C42       1.0  0.734904065787859  0.8359328142578876  0.26933845861519506  1.0000
  C   C43       1.0  0.22543646378207433  0.17586811224100538  0.7177295979161116  1.0000
  C   C44       1.0  0.939608778467637  0.7823326233210536  0.4147527757146888  1.0000
  C   C45       1.0  0.35752315182877237  0.061724289584802236  0.6176029550034272  1.0000
  C   C46       1.0  0.016333704083813006  0.252140064847275  0.4511731912588529  1.0000
  C   C47       1.0  0.0645779547585263  0.03256105435325911  0.330528506205397  1.0000
  C   C48       1.0  0.9240966081499309  0.8842808525872029  0.6733194912818234  1.0000
  C   C49       1.0  0.99957553686081  0.966482420078343  0.25553226068880236  1.0000
  C   C50       1.0  0.9902078177522854  0.9240164836399956  0.754482984621795  1.0000
  C   C51       1.0  0.7162807900128599  0.865345169313052  0.20592964216537976  1.0000
  C   C52       1.0  0.24093598628473256  0.15261893611570806  0.7857957360308561  1.0000
  C   C53       1.0  0.14955480685107153  0.09697493352248904  0.3488394217345459  1.0000
  C   C54       1.0  0.2011850318873414  0.06461626187572732  0.3146178297794933  1.0000
  C   C55       1.0  0.2819922080286474  0.13560443784259488  0.3271283465373073  1.0000
  C   C56       1.0  0.8304639553914657  0.08078832191520738  0.5848647088205823  1.0000
  C   C57       1.0  0.8326055441121271  0.8277739300424402  0.6438267800252149  1.0000
  C   C58       1.0  0.8161562357663216  0.7429852132339719  0.6491114806324133  1.0000
  C   C59       1.0  0.7222989952396263  0.6861959809953007  0.6193416709936912  1.0000
  C   C60       1.0  0.7143237265404637  0.7536408856616958  0.2639625999223937  1.0000
  C   C61       1.0  0.28230214819529215  0.24471237831325962  0.7106100149898893  1.0000
  C   C62       1.0  0.5942119924609202  0.44747511365592635  0.9580027915371971  1.0000
  N   N1        1.0  0.9519144010262937  0.9742782188125786  0.3523930037075331  1.0000
  N   N2        1.0  0.8933791074624085  0.05528477564430996  0.5040662703356774  1.0000
  N   N3        1.0  0.7804761676515853  0.8899889061517854  0.34946835832690953  1.0000
  N   N4        1.0  0.15219476778070634  0.12970710940407318  0.6470309360193411  1.0000
  N   N5        1.0  0.9652743150850187  0.8619258571667319  0.45986185862935286  1.0000
  N   N6        1.0  0.9956641830774515  0.17377047391734388  0.44490433210452107  1.0000
  N   N7        1.0  0.034187599024832614  0.03478327675345841  0.3869554775688187  1.0000
  N   N8        1.0  0.9567228174923699  0.9040289874869674  0.6219432050767109  1.0000
  N   N9        1.0  0.7030052021305481  0.8919273887380615  0.1548860669312617  1.0000
  N   N10       1.0  0.25512517375350546  0.13389618455507704  0.842509659583328  1.0000
  N   N11       1.0  0.04249503444410151  0.9568671549594825  0.6669724217870225  1.0000
  N   N12       1.0  0.050929385528512214  0.8996253901694332  0.5054798744457116  1.0000
  N   N13       1.0  0.915085229432151  0.12249783850135282  0.3830930372232118  1.0000
  N   N14       1.0  0.22401067386758913  0.04088781944078331  0.5459284970761757  1.0000
  N   N15       1.0  0.8959592381486488  0.007986278988035118  0.5498006611960022  1.0000
  N   N16       1.0  0.7887179120286163  0.8450437441446467  0.3968703271736088  1.0000
  N   N17       1.0  0.16007493752616855  0.16924423381233572  0.5951985075964713  1.0000
  N   N18       1.0  0.22945259173513222  0.02422076704495171  0.6151992125899852  1.0000
