data_image0
_chemical_formula_structural       Co2H12C12N16O8
_chemical_formula_sum              "Co2 H12 C12 N16 O8"
_cell_length_a       4.866275914738458
_cell_length_b       7.734543493198292
_cell_length_c       13.24659332304051
_cell_angle_alpha    90.00007368902604
_cell_angle_beta     89.99971521177909
_cell_angle_gamma    103.50346188510363

_space_group_name_H-M_alt    "P 1"
_space_group_IT_number       1

loop_
  _space_group_symop_operation_xyz
  'x, y, z'

loop_
  _atom_site_type_symbol
  _atom_site_label
  _atom_site_symmetry_multiplicity
  _atom_site_fract_x
  _atom_site_fract_y
  _atom_site_fract_z
  _atom_site_occupancy
  Co  Co1       1.0  0.9999966447108336  2.424467695099639e-06  5.920807452999997e-07  1.0000
  Co  Co2       1.0  0.5000008133439665  0.49999945782572996  0.49999998157922215  1.0000
  H   H1        1.0  0.45662764455739346  0.884395975509392  0.6202831674024408  1.0000
  H   H2        1.0  0.04336936438744488  0.6156012602108232  0.12028470316769098  1.0000
  H   H3        1.0  0.5433739821305394  0.1156029401420682  0.37971679575599626  1.0000
  H   H4        1.0  0.9566256012794271  0.38439634478344686  0.8797152599963667  1.0000
  H   H5        1.0  0.2849777964394704  0.0261007117843519  0.5503216176465742  1.0000
  H   H6        1.0  0.2150223438821612  0.4738987576019866  0.050321598574221596  1.0000
  H   H7        1.0  0.7150243335021998  0.9738995335105826  0.4496791004229762  1.0000
  H   H8        1.0  0.7849761841586016  0.5261028299935474  0.9496768547659187  1.0000
  H   H9        1.0  0.28142182305470703  0.8221783438987629  0.8131872414597225  1.0000
  H   H10       1.0  0.21857465849467422  0.6778189298094972  0.3131892574415075  1.0000
  H   H11       1.0  0.7185798036332188  0.17782057175269728  0.1868127216987148  1.0000
  H   H12       1.0  0.7814223597596239  0.3221786688560401  0.6868107057206669  1.0000
  C   C1        1.0  0.251355525770542  0.9080572320682307  0.5992183260816616  1.0000
  C   C2        1.0  0.24864687659934495  0.5919426454419322  0.09921946723430608  1.0000
  C   C3        1.0  0.7486486567585544  0.09194300689797069  0.4007823919860057  1.0000
  C   C4        1.0  0.7513511481775765  0.40805761251030487  0.900779741016869  1.0000
  C   C5        1.0  0.1363646772465828  0.8979885429476796  0.7857743173032004  1.0000
  C   C6        1.0  0.3636316676780709  0.602007394819452  0.28577600989515156  1.0000
  C   C7        1.0  0.8636343935900898  0.1020090493892098  0.2142264007681617  1.0000
  C   C8        1.0  0.6363658538350166  0.39799153348947414  0.7142239532670587  1.0000
  C   C9        1.0  0.08035791600225653  0.747485895648758  0.5402908189316661  1.0000
  C   C10       1.0  0.41963911673280324  0.7525139873098183  0.04029101233676609  1.0000
  C   C11       1.0  0.9196437106856765  0.25251302000269493  0.45970914422677106  1.0000
  C   C12       1.0  0.5803563126406033  0.2474902722301522  0.9597089508293732  1.0000
  N   N1        1.0  0.957778874483445  0.9625521110893871  0.8422009258766747  1.0000
  N   N2        1.0  0.5422205643265983  0.5374435795066005  0.3422008950235025  1.0000
  N   N3        1.0  0.0422227521994358  0.03744680456216539  0.15779979219283996  1.0000
  N   N4        1.0  0.4577785065201709  0.46255401283011827  0.6577983132257117  1.0000
  N   N5        1.0  0.8208336519762157  0.05219463027158609  0.7788485711090232  1.0000
  N   N6        1.0  0.6791642213821661  0.44780197852297476  0.2788470883615446  1.0000
  N   N7        1.0  0.17916797471171003  0.9478042853798738  0.22115139204941403  1.0000
  N   N8        1.0  0.32083279688222893  0.552195620142392  0.7211513649784749  1.0000
  N   N9        1.0  0.91105514775807  0.044536296436419286  0.6867146084143271  1.0000
  N   N10       1.0  0.5889408591800063  0.455462963136064  0.18671329704239525  1.0000
  N   N11       1.0  0.08894903477102635  0.9554639425297891  0.31328610965334025  1.0000
  N   N12       1.0  0.4110551130145481  0.544537301144814  0.8132851562995924  1.0000
  N   N13       1.0  0.1095989434269954  0.947965583667802  0.6897972314122852  1.0000
  N   N14       1.0  0.39039918839466736  0.5520316616934692  0.18979883720697896  1.0000
  N   N15       1.0  0.8904026832609375  0.0520333319836581  0.310202731746152  1.0000
  N   N16       1.0  0.6096008889696805  0.4479685899300349  0.8102003710423131  1.0000
  O   O1        1.0  0.8140088026632952  0.7229489455366431  0.5424340838319636  1.0000
  O   O2        1.0  0.6859966188220242  0.7770573196686641  0.04243623441154649  1.0000
  O   O3        1.0  0.1859948766070048  0.277049963786162  0.4575666342356611  1.0000
  O   O4        1.0  0.3140013663925458  0.22294826318604063  0.9575644836638231  1.0000
  O   O5        1.0  0.2219766977768245  0.6598426480671407  0.4899146850153355  1.0000
  O   O6        1.0  0.2780256305123245  0.8401546409262863  0.9899141986435394  1.0000
  O   O7        1.0  0.7780249289111012  0.34015626758431955  0.5100852781431016  1.0000
  O   O8        1.0  0.7219723546820517  0.15985094192877367  0.010089539076126598  1.0000
