data_image0
_chemical_formula_structural       Cd6H24C24N36
_chemical_formula_sum              "Cd6 H24 C24 N36"
_cell_length_a       13.23812284510611
_cell_length_b       13.238129540427126
_cell_length_c       13.23811396602219
_cell_angle_alpha    59.999786380695845
_cell_angle_beta     59.99984754871276
_cell_angle_gamma    59.99980695719624

_space_group_name_H-M_alt    "P 1"
_space_group_IT_number       1

loop_
  _space_group_symop_operation_xyz
  'x, y, z'

loop_
  _atom_site_type_symbol
  _atom_site_label
  _atom_site_symmetry_multiplicity
  _atom_site_fract_x
  _atom_site_fract_y
  _atom_site_fract_z
  _atom_site_occupancy
  Cd  Cd1       1.0  0.0  0.0  0.0  1.0000
  Cd  Cd2       1.0  0.49999961520367714  0.9999999811178311  0.9999999420385492  1.0000
  Cd  Cd3       1.0  0.5000004664814669  3.4372983736996616e-07  0.4999994520227277  1.0000
  Cd  Cd4       1.0  0.49999964443070877  0.49999947159625446  2.2652809409999994e-07  1.0000
  Cd  Cd5       1.0  0.625000034089574  0.1249997931753059  0.12499969756308359  1.0000
  Cd  Cd6       1.0  0.3749996597760869  0.8750007326843987  0.8749995626727483  1.0000
  H   H1        1.0  0.012893963733645597  0.8436409319604794  0.8436403714604594  1.0000
  H   H2        1.0  0.7998249748294695  0.8436406571790157  0.8436407841587085  1.0000
  H   H3        1.0  0.3436402413734354  0.2998248259633059  0.5128935810384833  1.0000
  H   H4        1.0  0.3436398383574468  0.5128946176068682  0.2998245277412295  1.0000
  H   H5        1.0  0.012894285651704338  0.2998243073881214  0.8436401431160547  1.0000
  H   H6        1.0  0.7998244328708638  0.5128946232584966  0.8436402827954694  1.0000
  H   H7        1.0  0.34363994418909255  0.8436402154008746  0.2998250291053139  1.0000
  H   H8        1.0  0.34363962194591113  0.843639642232844  0.5128956597197885  1.0000
  H   H9        1.0  0.012894192783022208  0.8436402906496244  0.299824319327989  1.0000
  H   H10       1.0  0.7998247430181706  0.8436408148764372  0.5128935123046504  1.0000
  H   H11       1.0  0.34364112010025843  0.5128937481254214  0.843640579874652  1.0000
  H   H12       1.0  0.34364090931169494  0.2998251043924114  0.8436408528916957  1.0000
  H   H13       1.0  0.2001752937806387  0.1563589326309014  0.1563603264123401  1.0000
  H   H14       1.0  0.9871051133534082  0.1563589771190692  0.15636073911095852  1.0000
  H   H15       1.0  0.656359580229875  0.7001758276328333  0.4871066043642998  1.0000
  H   H16       1.0  0.6563592278497765  0.48710679138542917  0.7001756576610775  1.0000
  H   H17       1.0  0.6563584761646621  0.7001751130772148  0.1563593325119328  1.0000
  H   H18       1.0  0.6563590207721928  0.4871057139480469  0.1563596055294525  1.0000
  H   H19       1.0  0.9871044372972477  0.15636068221616026  0.7001758660751634  1.0000
  H   H20       1.0  0.20017569536373972  0.1563604554998648  0.4871048227625536  1.0000
  H   H21       1.0  0.656359313549608  0.1563598743323169  0.7001742311313635  1.0000
  H   H22       1.0  0.6563590190141824  0.15635983072019133  0.4871054508524751  1.0000
  H   H23       1.0  0.20017583573923756  0.48710496655142077  0.15636082777557903  1.0000
  H   H24       1.0  0.987104791435357  0.7001756016914273  0.15636096745536324  1.0000
  C   C1        1.0  0.9153224391720297  0.8870898186798115  0.8870902053688641  1.0000
  C   C2        1.0  0.8104979157311334  0.8870901572295367  0.8870893484656079  1.0000
  C   C3        1.0  0.3870892938888772  0.31049732830020094  0.415322631287559  1.0000
  C   C4        1.0  0.3870894425572757  0.4153223563319202  0.3104973532205619  1.0000
  C   C5        1.0  0.9153224172590769  0.3104977399513869  0.8870900190217341  1.0000
  C   C6        1.0  0.8104976126595531  0.4153225532565799  0.8870899529683245  1.0000
  C   C7        1.0  0.38709000110417696  0.8870902157777607  0.3104985990517477  1.0000
  C   C8        1.0  0.3870897519287977  0.8870898431551385  0.41532281763385004  1.0000
  C   C9        1.0  0.9153218040726401  0.8870898626114682  0.31049825505434114  1.0000
  C   C10       1.0  0.8104983507170685  0.887089637005374  0.4153225418997693  1.0000
  C   C11       1.0  0.3870900776566728  0.4153223124002707  0.8870893035350846  1.0000
  C   C12       1.0  0.3870909226799101  0.31049840150776487  0.8870894378513442  1.0000
  C   C13       1.0  0.18950222514131806  0.1129093048439387  0.11291083693849663  1.0000
  C   C14       1.0  0.08467663791502392  0.1129100903997369  0.1129109052025541  1.0000
  C   C15       1.0  0.6129105385942637  0.6895018253831964  0.5846784792843353  1.0000
  C   C16       1.0  0.6129102513083781  0.584678169527784  0.689501907015277  1.0000
  C   C17       1.0  0.6129096543194945  0.6895014966922305  0.1129107475519149  1.0000
  C   C18       1.0  0.6129100632157715  0.5846771496732046  0.1129108818690128  1.0000
  C   C19       1.0  0.08467908131606809  0.11291034397859791  0.6895010051811284  1.0000
  C   C20       1.0  0.18950191789303966  0.11290995280454302  0.5846785686712792  1.0000
  C   C21       1.0  0.6129093843721805  0.1129100016918655  0.6895015863518809  1.0000
  C   C22       1.0  0.6129096335475595  0.1129103743144881  0.5846773677697783  1.0000
  C   C23       1.0  0.18950220894376457  0.5846781003395662  0.11291023243446568  1.0000
  C   C24       1.0  0.0846781597403348  0.6895021582486011  0.11291016638153202  1.0000
  N   N1        1.0  0.8763846134017824  0.9561780740055497  0.9561788527456017  1.0000
  N   N2        1.0  0.7112585731230536  0.9561786877929775  0.956178960279047  1.0000
  N   N3        1.0  0.4561787653630703  0.2112574108129054  0.37638427659551615  1.0000
  N   N4        1.0  0.4561786502535981  0.3763839771377421  0.21125744872338004  1.0000
  N   N5        1.0  0.8763843409936526  0.21125789066930906  0.9561788820869523  1.0000
  N   N6        1.0  0.7112577773317383  0.3763844680449324  0.9561787780355004  1.0000
  N   N7        1.0  0.45617912677577976  0.956179388408451  0.21125763096560493  1.0000
  N   N8        1.0  0.45617871850206637  0.9561787856718169  0.37638424725285086  1.0000
  N   N9        1.0  0.876384827660722  0.9561791655299744  0.2112573573173577  1.0000
  N   N10       1.0  0.7112583791082725  0.9561791765807686  0.376384081138049  1.0000
  N   N11       1.0  0.4561785528524851  0.37638451326250094  0.9561789441494639  1.0000
  N   N12       1.0  0.45617864010871045  0.21125811354778526  0.9561791557351995  1.0000
  N   N13       1.0  0.2887423231454846  0.04382001888434667  0.04382122512552661  1.0000
  N   N14       1.0  0.12361584673979563  0.043820196545254916  0.0438213326598245  1.0000
  N   N15       1.0  0.5438216838986775  0.7887423596506482  0.6236149836407919  1.0000
  N   N16       1.0  0.5438216712704858  0.6236156655893694  0.7887408863459839  1.0000
  N   N17       1.0  0.5438207453676397  0.7887421039218411  0.0438210296684289  1.0000
  N   N18       1.0  0.5438208326238723  0.6236157042071255  0.0438212412541645  1.0000
  N   N19       1.0  0.12361605772797896  0.04382104106009161  0.788741902918112  1.0000
  N   N20       1.0  0.288742070153468  0.043820593882784836  0.6236151790982661  1.0000
  N   N21       1.0  0.543820567089874  0.04382113745125341  0.7887416292702268  1.0000
  N   N22       1.0  0.5438209753635872  0.043821740187887245  0.6236150129829882  1.0000
  N   N23       1.0  0.28874204427157923  0.6236161855512066  0.0438214073672825  1.0000
  N   N24       1.0  0.12361623600575201  0.7887420075306864  0.04382130331631371  1.0000
  N   N25       1.0  0.7528905828755087  0.9971095999690146  0.9971092025497726  1.0000
  N   N26       1.0  0.497109680858415  0.2528909483597133  0.252891029203731  1.0000
  N   N27       1.0  0.7528905804942312  0.2528906939040994  0.9971101561595573  1.0000
  N   N28       1.0  0.49710937485039575  0.9971095460345578  0.2528910007617426  1.0000
  N   N29       1.0  0.7528909407132928  0.9971093234526194  0.2528908341906302  1.0000
  N   N30       1.0  0.4971099506790679  0.252890341743523  0.9971084723964055  1.0000
  N   N31       1.0  0.24710954711710537  0.002891362017201999  0.0028900576852209  1.0000
  N   N32       1.0  0.5028904600140293  0.747108513713762  0.7471091562003663  1.0000
  N   N33       1.0  0.5028912539787669  0.7471086733238793  0.0028907878403786  1.0000
  N   N34       1.0  0.24710963628611174  0.0028905747473757936  0.7471093512126289  1.0000
  N   N35       1.0  0.5028904467529217  0.0028911075615810165  0.7471091846410403  1.0000
  N   N36       1.0  0.24710880498212606  0.7471095235655342  0.002890029244071  1.0000
