data_image0
_chemical_formula_structural       Cu8H112C132O56
_chemical_formula_sum              "Cu8 H112 C132 O56"
_cell_length_a       10.83923938927273
_cell_length_b       17.342549116494897
_cell_length_c       27.50351331912668
_cell_angle_alpha    90.0002919461268
_cell_angle_beta     90.00018856014515
_cell_angle_gamma    90.00080291341867

_space_group_name_H-M_alt    "P 1"
_space_group_IT_number       1

loop_
  _space_group_symop_operation_xyz
  'x, y, z'

loop_
  _atom_site_type_symbol
  _atom_site_label
  _atom_site_symmetry_multiplicity
  _atom_site_fract_x
  _atom_site_fract_y
  _atom_site_fract_z
  _atom_site_occupancy
  Cu  Cu1       1.0  0.4459205232251263  0.9400953252924964  0.5139935877210604  1.0000
  Cu  Cu2       1.0  0.4459346286172518  0.05989790770443191  0.9860056879029672  1.0000
  Cu  Cu3       1.0  0.05408304593755989  0.44009292061464583  0.9860093183013562  1.0000
  Cu  Cu4       1.0  0.05406397883723459  0.5598969316375602  0.5139905419046826  1.0000
  Cu  Cu5       1.0  0.5540545102346427  0.059892895548585984  0.4860096357593235  1.0000
  Cu  Cu6       1.0  0.5540625466749346  0.940097232609631  0.0139924453440727  1.0000
  Cu  Cu7       1.0  0.9459381162667027  0.559898183521149  0.0139971775226684  1.0000
  Cu  Cu8       1.0  0.9459258157783168  0.4400930190711919  0.4860014103007302  1.0000
  H   H1        1.0  0.25988751014747885  0.18813035108886575  0.4342915319911995  1.0000
  H   H2        1.0  0.06990146203605009  0.2472435412279097  0.4002554890143202  1.0000
  H   H3        1.0  0.8728032807489469  0.034852154094259895  0.4269620724157974  1.0000
  H   H4        1.0  0.0657427606277707  0.9773175295816755  0.46184006496433483  1.0000
  H   H5        1.0  0.9467328812658591  0.23511159982187732  0.3376033128952116  1.0000
  H   H6        1.0  0.8764769192471603  0.2887258708950285  0.3859488135953839  1.0000
  H   H7        1.0  0.8105986815317647  0.16715766236723079  0.2760044399408628  1.0000
  H   H8        1.0  0.7041582965838414  0.12824383847283372  0.3197150879134512  1.0000
  H   H9        1.0  0.4777281454450487  0.24755414493390762  0.2024646584924596  1.0000
  H   H10       1.0  0.44011287101393026  0.18882237827867246  0.1205822735482229  1.0000
  H   H11       1.0  0.7003441711208608  0.009523577225721202  0.1529689248490769  1.0000
  H   H12       1.0  0.7404780630836071  0.06765797756460762  0.234235752737959  1.0000
  H   H13       1.0  0.3731130910973234  0.8111392296750566  0.48578675516519354  1.0000
  H   H14       1.0  0.2674611243948418  0.8218564975980343  0.5236215068557044  1.0000
  H   H15       1.0  0.2598792233089  0.811861851917925  0.0656938075651041  1.0000
  H   H16       1.0  0.0698958057637924  0.7527562485638414  0.0997365133474091  1.0000
  H   H17       1.0  0.8728105372510199  0.9651620589152475  0.07304441996247141  1.0000
  H   H18       1.0  0.0657522642632244  0.022691450305515604  0.0381632033371986  1.0000
  H   H19       1.0  0.9467344846356052  0.7649072872794066  0.16239527600831138  1.0000
  H   H20       1.0  0.8764713616762803  0.7112854906507236  0.1140525932567158  1.0000
  H   H21       1.0  0.8105977347846077  0.8328490945268784  0.2240001541170074  1.0000
  H   H22       1.0  0.7041680172356805  0.8717637300108692  0.18029336814598204  1.0000
  H   H23       1.0  0.4777176824882828  0.7524480101816522  0.2975336881236785  1.0000
  H   H24       1.0  0.44010074079750433  0.8111771458366733  0.3794163880625305  1.0000
  H   H25       1.0  0.7003312367522838  0.9904781920548301  0.34703116369146864  1.0000
  H   H26       1.0  0.74047050499  0.9323435613762714  0.265763296879399  1.0000
  H   H27       1.0  0.3731317107927693  0.1888464543758701  0.014218728103720898  1.0000
  H   H28       1.0  0.2674787625034866  0.17814845794438847  0.9763829921110201  1.0000
  H   H29       1.0  0.24011720391933264  0.6881354341124535  0.0657037764235611  1.0000
  H   H30       1.0  0.4300907586372701  0.7472476551034647  0.0997429181637557  1.0000
  H   H31       1.0  0.6271943112958809  0.534854592259606  0.0730384793283179  1.0000
  H   H32       1.0  0.4342463926279336  0.47732574395993044  0.0381594455145873  1.0000
  H   H33       1.0  0.5532692680063603  0.7351152750190338  0.1623957011645274  1.0000
  H   H34       1.0  0.6235329081587011  0.7887320683240445  0.1140525543870226  1.0000
  H   H35       1.0  0.6894009987830572  0.6671618562795915  0.2239969007701461  1.0000
  H   H36       1.0  0.7958331175739557  0.628246867829219  0.1802846733196404  1.0000
  H   H37       1.0  0.022265927374696997  0.7475517246005626  0.2975348404446621  1.0000
  H   H38       1.0  0.05988540065073519  0.6888146009488666  0.3794163093758414  1.0000
  H   H39       1.0  0.7996528444048036  0.5095164537290985  0.3470271823669364  1.0000
  H   H40       1.0  0.7595175077090984  0.5676556176924025  0.2657590870318884  1.0000
  H   H41       1.0  0.12690088019576956  0.3111394093580842  0.014209312320979  1.0000
  H   H42       1.0  0.23257665713615688  0.32186420424107354  0.9763828370073214  1.0000
  H   H43       1.0  0.24010616470109608  0.3118762032649657  0.4342793560841968  1.0000
  H   H44       1.0  0.4300910049019463  0.2527644681280421  0.4002473679610716  1.0000
  H   H45       1.0  0.627180240841035  0.4651626911680041  0.42696042397447803  1.0000
  H   H46       1.0  0.4342283882777662  0.5226892981401363  0.461833754690538  1.0000
  H   H47       1.0  0.5532720328877828  0.26490252392644464  0.33760456101603614  1.0000
  H   H48       1.0  0.6235284002289774  0.2112869134126356  0.3859481621445724  1.0000
  H   H49       1.0  0.6894075611081476  0.33284212511750877  0.2759980833917979  1.0000
  H   H50       1.0  0.7958307837100876  0.371762068092842  0.3197097211496924  1.0000
  H   H51       1.0  0.022283882180786904  0.25243323896609854  0.2024730983308487  1.0000
  H   H52       1.0  0.0599141538380366  0.31116434445050345  0.1205924051722107  1.0000
  H   H53       1.0  0.7996702654892971  0.49045791823571255  0.1529653990442057  1.0000
  H   H54       1.0  0.7595425905333641  0.43233858962865673  0.2342374420598148  1.0000
  H   H55       1.0  0.12688224535057196  0.6888516462934575  0.48578603595723285  1.0000
  H   H56       1.0  0.23253360664734396  0.6781300709684004  0.5236201624809524  1.0000
  H   H57       1.0  0.7401124329222595  0.8118676723416699  0.5657120551109429  1.0000
  H   H58       1.0  0.9300947907340669  0.7527573652339755  0.5997393719321735  1.0000
  H   H59       1.0  0.12719297202786348  0.9651475991537027  0.5730375151977043  1.0000
  H   H60       1.0  0.9342414987256757  0.022682223651258902  0.5381686123892351  1.0000
  H   H61       1.0  0.053265216633555185  0.7648870001892975  0.6623933659983264  1.0000
  H   H62       1.0  0.12352948179528767  0.7112692694691064  0.6140518647869939  1.0000
  H   H63       1.0  0.18938465519801886  0.8328409375934882  0.7239955112523546  1.0000
  H   H64       1.0  0.2958167370485043  0.8717599510093876  0.6802870448222221  1.0000
  H   H65       1.0  0.5222782557678584  0.7524577172896869  0.7975312932479426  1.0000
  H   H66       1.0  0.5598879947169095  0.8111854476128784  0.8794154961316778  1.0000
  H   H67       1.0  0.29963270755946064  0.9904715630154685  0.847032844283973  1.0000
  H   H68       1.0  0.2595089639389628  0.9323406224090932  0.7657634712778218  1.0000
  H   H69       1.0  0.6268693228955369  0.18884437825997943  0.5142150139528923  1.0000
  H   H70       1.0  0.7325240573835143  0.1781322999018613  0.4763813530422496  1.0000
  H   H71       1.0  0.7401068810772172  0.18813674799160654  0.9342905092636683  1.0000
  H   H72       1.0  0.9300819956164047  0.2472533070571643  0.9002561660615953  1.0000
  H   H73       1.0  0.1271829481009448  0.03486018240398182  0.9269649846130292  1.0000
  H   H74       1.0  0.9342375307715611  0.9773307909772413  0.9618411109771472  1.0000
  H   H75       1.0  0.05326545873884209  0.23511899034355122  0.8376043116502174  1.0000
  H   H76       1.0  0.1235341170647217  0.28873386759956793  0.8859473579841719  1.0000
  H   H77       1.0  0.18939298268026047  0.16716103780745337  0.7760027058188186  1.0000
  H   H78       1.0  0.29582177763979434  0.12824236603333367  0.8197167635810061  1.0000
  H   H79       1.0  0.522282260436519  0.2475384809056322  0.7024666266507184  1.0000
  H   H80       1.0  0.5598973569142273  0.18880415568826694  0.6205824723426758  1.0000
  H   H81       1.0  0.29964195164028234  0.0095175247884143  0.6529709690300365  1.0000
  H   H82       1.0  0.2595100640496497  0.06765849826417993  0.7342348363680316  1.0000
  H   H83       1.0  0.626887606281869  0.8111446497695812  0.9857921307980603  1.0000
  H   H84       1.0  0.7325617741363145  0.8218783964745954  0.0236176863443873  1.0000
  H   H85       1.0  0.7598845842569657  0.311858553014929  0.9343009014430238  1.0000
  H   H86       1.0  0.5698944232809922  0.25275209812463834  0.9002635776509322  1.0000
  H   H87       1.0  0.37281485761020144  0.46515381028720537  0.9269600175376951  1.0000
  H   H88       1.0  0.5657600085497093  0.5226820819584364  0.9618390513487114  1.0000
  H   H89       1.0  0.4467343655110411  0.2648971638282163  0.8376049772438705  1.0000
  H   H90       1.0  0.3764670350810205  0.2112821003553194  0.8859477604318613  1.0000
  H   H91       1.0  0.31059525406181615  0.33284481635612195  0.7760001417250919  1.0000
  H   H92       1.0  0.20417328364398904  0.3717655710094121  0.8197109148317737  1.0000
  H   H93       1.0  0.9777164869340138  0.2524607141478086  0.7024640200004697  1.0000
  H   H94       1.0  0.9401117747307237  0.3111891886039119  0.6205796423456249  1.0000
  H   H95       1.0  0.20034894381272036  0.4904832995398112  0.6529716780703154  1.0000
  H   H96       1.0  0.24047689992880808  0.43234586538683584  0.7342379554538141  1.0000
  H   H97       1.0  0.8731442687635036  0.6888418923463392  0.9857837306760189  1.0000
  H   H98       1.0  0.7674860209889331  0.6781378557565106  0.0236160234729752  1.0000
  H   H99       1.0  0.7598900881480829  0.6881339290359847  0.5657093238486155  1.0000
  H   H100      1.0  0.5699061705166172  0.7472456641724889  0.5997402212026017  1.0000
  H   H101      1.0  0.37281139925319445  0.534853783935674  0.5730384364831096  1.0000
  H   H102      1.0  0.5657577162642227  0.477317374462075  0.5381658329275325  1.0000
  H   H103      1.0  0.4467316006532798  0.7351127979945034  0.6623939358575227  1.0000
  H   H104      1.0  0.3764641624352406  0.788728408470824  0.6140528798512294  1.0000
  H   H105      1.0  0.31061360113110936  0.6671564749843529  0.7239964139771685  1.0000
  H   H106      1.0  0.2041719270702629  0.628237108559148  0.6802880485174967  1.0000
  H   H107      1.0  0.9777197508489194  0.7475319173764633  0.7975395784686583  1.0000
  H   H108      1.0  0.9401300724560924  0.6888002354668146  0.8794242711416231  1.0000
  H   H109      1.0  0.20038134143381814  0.5095170407326677  0.8470320070257175  1.0000
  H   H110      1.0  0.2404988682882703  0.5676536678056723  0.7657635999304873  1.0000
  H   H111      1.0  0.8731223105635095  0.31114695374265017  0.5142099157606523  1.0000
  H   H112      1.0  0.767456188065367  0.32186506932556824  0.47638087948061525  1.0000
  C   C1        1.0  0.29196394406454823  0.04692474295537611  0.4686476637232674  1.0000
  C   C2        1.0  0.17520050266337958  0.0792804191070218  0.44919957949343836  1.0000
  C   C3        1.0  0.17476307042625897  0.1551209859550511  0.4318953664239444  1.0000
  C   C4        1.0  0.06867288841349509  0.18759433783149862  0.4124265646519234  1.0000
  C   C5        1.0  0.9609240902649601  0.14295767957038663  0.40972232382612367  1.0000
  C   C6        1.0  0.9586833004060437  0.0675426492194973  0.4282827389974173  1.0000
  C   C7        1.0  0.0656969331852153  0.03600602561986221  0.4477381713436515  1.0000
  C   C8        1.0  0.8652476036689194  0.23908769159206864  0.361350414609646  1.0000
  C   C9        1.0  0.7274620791054571  0.17916485315092961  0.29764709508572906  1.0000
  C   C10       1.0  0.611609342926414  0.16174158433996413  0.222988893985125  1.0000
  C   C11       1.0  0.5259200005106804  0.19543336458217916  0.1910609718180254  1.0000
  C   C12       1.0  0.5053875557497135  0.16276834517311303  0.145828502986582  1.0000
  C   C13       1.0  0.5681411346299398  0.0954849094825576  0.1317924103765051  1.0000
  C   C14       1.0  0.6523100775220313  0.06186001173733761  0.1641021010772121  1.0000
  C   C15       1.0  0.6749930436442283  0.0945913520021762  0.2095032771236305  1.0000
  C   C16       1.0  0.5444349924170523  0.060184149793073516  0.08344905996716531  1.0000
  C   C17       1.0  0.29197518893417396  0.9530688901662006  0.0313515336997483  1.0000
  C   C18       1.0  0.17520102597499937  0.9207145130361029  0.0507961947849296  1.0000
  C   C19       1.0  0.1747592452301561  0.844875672227225  0.0680960442103782  1.0000
  C   C20       1.0  0.06866387461681708  0.812403711496657  0.08756543611781352  1.0000
  C   C21       1.0  0.9609271859456568  0.8570509508671834  0.0902741018540709  1.0000
  C   C22       1.0  0.9586916469775839  0.9324676917620566  0.0717147745640858  1.0000
  C   C23       1.0  0.0657086019296571  0.9639954578506221  0.052261097398997  1.0000
  C   C24       1.0  0.8652443045393311  0.760927032773374  0.1386491597941557  1.0000
  C   C25       1.0  0.727465290500497  0.8208411864779492  0.20235339209191489  1.0000
  C   C26       1.0  0.6116061961315252  0.8382599960331945  0.2770110799371395  1.0000
  C   C27       1.0  0.5259126643463502  0.8045640167726447  0.3089363462751393  1.0000
  C   C28       1.0  0.5053831872974611  0.8372271291969329  0.354168061402568  1.0000
  C   C29       1.0  0.5681273441463048  0.9045122595026102  0.3682071437912882  1.0000
  C   C30       1.0  0.6523096973491603  0.9381350004041239  0.33589937977160383  1.0000
  C   C31       1.0  0.6749933831668571  0.9054096219989914  0.2904964150866718  1.0000
  C   C32       1.0  0.5444270233742116  0.9398058952927355  0.4165504635702391  1.0000
  C   C33       1.0  0.20803478893948574  0.546930425009606  0.0313497358306307  1.0000
  C   C34       1.0  0.32479804409293667  0.5792878422165019  0.0507982876791502  1.0000
  C   C35       1.0  0.32524273760082417  0.6551245162942579  0.0681023809906591  1.0000
  C   C36       1.0  0.4313207426039866  0.6876012471097186  0.0875723779344142  1.0000
  C   C37       1.0  0.5390713490157282  0.6429606498993011  0.0902753031761705  1.0000
  C   C38       1.0  0.5413113453131331  0.5675495253159968  0.0717168270847495  1.0000
  C   C39       1.0  0.43429140304911557  0.5360120987799845  0.0522621018189113  1.0000
  C   C40       1.0  0.6347574038309886  0.7390930312886255  0.1386497030078075  1.0000
  C   C41       1.0  0.7725332615677373  0.6791684362953989  0.2023524662760181  1.0000
  C   C42       1.0  0.8883809883570561  0.6617433101897491  0.2770095205834551  1.0000
  C   C43       1.0  0.9740775554699893  0.6954332044971636  0.3089353695344883  1.0000
  C   C44       1.0  0.9946037214857738  0.6627710339573482  0.3541702784751877  1.0000
  C   C45       1.0  0.931853224262127  0.5954819806613331  0.3682043368070254  1.0000
  C   C46       1.0  0.8476669098969862  0.5618612852972478  0.3358941744052046  1.0000
  C   C47       1.0  0.8250003723259027  0.594588026973888  0.2904912856463255  1.0000
  C   C48       1.0  0.9555511826185422  0.5601875820130859  0.41654466500722986  1.0000
  C   C49       1.0  0.20801987041739514  0.45306997987943737  0.4686420813716127  1.0000
  C   C50       1.0  0.32477853596876827  0.4207222192748433  0.4491914988265436  1.0000
  C   C51       1.0  0.32522966177644  0.3448867022827216  0.4318844973761813  1.0000
  C   C52       1.0  0.43131229997875653  0.3124143463892182  0.41241645541958144  1.0000
  C   C53       1.0  0.5390629770308094  0.35705356678354155  0.4097194868024161  1.0000
  C   C54       1.0  0.5413002322484743  0.4324722066996714  0.4282790565674262  1.0000
  C   C55       1.0  0.4342793255831551  0.4640064034285843  0.44773000768400806  1.0000
  C   C56       1.0  0.63475935472416  0.260924894090401  0.3613528459752047  1.0000
  C   C57       1.0  0.7725378870657449  0.3208391454377306  0.2976506242556596  1.0000
  C   C58       1.0  0.8884029131904326  0.3382508556871286  0.2229929924057217  1.0000
  C   C59       1.0  0.9741030587631413  0.3045542047442069  0.1910697992751125  1.0000
  C   C60       1.0  0.9946295887822316  0.337215975754198  0.14583346248928558  1.0000
  C   C61       1.0  0.9318805051107332  0.40450160457909595  0.1317967779647446  1.0000
  C   C62       1.0  0.847699839506454  0.4381152308434579  0.1641021049412856  1.0000
  C   C63       1.0  0.8250283251569639  0.40540270900510933  0.2095060552097721  1.0000
  C   C64       1.0  0.9555890096579844  0.43979678433636593  0.0834542988452611  1.0000
  C   C65       1.0  0.7080193926754389  0.9530732804049935  0.531356286958065  1.0000
  C   C66       1.0  0.8247791437580362  0.9207158743849816  0.5508036440029045  1.0000
  C   C67       1.0  0.8252294920826131  0.8448793439140517  0.5681093114468752  1.0000
  C   C68       1.0  0.9313196740427613  0.8124031089360105  0.587573386545401  1.0000
  C   C69       1.0  0.03906754966830309  0.8570443801236961  0.59027726378811  1.0000
  C   C70       1.0  0.041307416975527596  0.9324605637124107  0.5717190301575457  1.0000
  C   C71       1.0  0.9342873261903715  0.9639966106853068  0.5522679608851675  1.0000
  C   C72       1.0  0.1347532619635103  0.760911485051956  0.6386473550563495  1.0000
  C   C73       1.0  0.2725240253794751  0.8208372065148667  0.7023514017551876  1.0000
  C   C74       1.0  0.38837952928648883  0.8382604753436455  0.7770110572172301  1.0000
  C   C75       1.0  0.474078097443808  0.8045692717533158  0.8089378886214789  1.0000
  C   C76       1.0  0.49460500676406827  0.8372342911414493  0.8541710846291722  1.0000
  C   C77       1.0  0.4318440472044216  0.9045090775629135  0.8682097223499597  1.0000
  C   C78       1.0  0.34766864629355604  0.9381345518894338  0.8358982136964528  1.0000
  C   C79       1.0  0.3249902930881348  0.9054066713508463  0.790498855608142  1.0000
  C   C80       1.0  0.4555575699867162  0.9398086840424256  0.9165508912227409  1.0000
  C   C81       1.0  0.7080192186210255  0.046924520290822606  0.9686476903124586  1.0000
  C   C82       1.0  0.8247832334125106  0.079291582941643  0.9492033928310235  1.0000
  C   C83       1.0  0.8252268592015565  0.1551246575567689  0.93189445364969  1.0000
  C   C84       1.0  0.9313074687209448  0.18760353763195778  0.91242760687323  1.0000
  C   C85       1.0  0.0390579961343747  0.14296610082220704  0.9097240314204386  1.0000
  C   C86       1.0  0.04129999314335459  0.06755166641826091  0.9282826315384796  1.0000
  C   C87       1.0  0.9342821154816645  0.036010638160860316  0.947739944580782  1.0000
  C   C88       1.0  0.1347565613283592  0.23909174884345674  0.8613515186226551  1.0000
  C   C89       1.0  0.272530039758351  0.17916375631161693  0.7976454683495148  1.0000
  C   C90       1.0  0.3883919017094399  0.16173226120968562  0.7229888712554172  1.0000
  C   C91       1.0  0.4740863560508756  0.1954270872368014  0.6910625141464237  1.0000
  C   C92       1.0  0.4946102976050496  0.16275936185809306  0.645831162597915  1.0000
  C   C93       1.0  0.43185414732355537  0.0954759613589928  0.6317942617437069  1.0000
  C   C94       1.0  0.3476736393136192  0.06185610355969122  0.6641049344885132  1.0000
  C   C95       1.0  0.32499087610407423  0.09458609488319782  0.7095035361025097  1.0000
  C   C96       1.0  0.4555489326601147  0.06018117233253411  0.5834560322181018  1.0000
  C   C97       1.0  0.7919780701792689  0.45306932832027513  0.9686523969229838  1.0000
  C   C98       1.0  0.6752138924704737  0.4207142175680616  0.9492020271280169  1.0000
  C   C99       1.0  0.6747618183583909  0.34487523700568085  0.9319012061172458  1.0000
  C   C100      1.0  0.5686745876949573  0.31240427232864937  0.9124344814860166  1.0000
  C   C101      1.0  0.46093689731593196  0.3570471760329  0.9097246480479697  1.0000
  C   C102      1.0  0.4586895204764259  0.4324611836830172  0.9282871236282942  1.0000
  C   C103      1.0  0.5657168433083227  0.46399745700758643  0.9477393037676549  1.0000
  C   C104      1.0  0.3652480748837661  0.2609240204956579  0.861350248229371  1.0000
  C   C105      1.0  0.22747037189505895  0.3208405428381624  0.7976445762276968  1.0000
  C   C106      1.0  0.11161249678714567  0.33826509228499196  0.7229878855026897  1.0000
  C   C107      1.0  0.025917774776665695  0.3045717382806572  0.6910605821876387  1.0000
  C   C108      1.0  0.005396221701459999  0.3372385217900061  0.6458300363362852  1.0000
  C   C109      1.0  0.068150409053743  0.40451488951688225  0.6317905241377559  1.0000
  C   C110      1.0  0.1523210397317527  0.43814135098273255  0.6641017773084458  1.0000
  C   C111      1.0  0.1750032610621375  0.40541518598584503  0.7095035753086522  1.0000
  C   C112      1.0  0.0444478379112994  0.43981678415828185  0.5834498323566991  1.0000
  C   C113      1.0  0.7919726920063821  0.546926890246617  0.5313516887962777  1.0000
  C   C114      1.0  0.675213103979928  0.5792838767053824  0.5508008169959311  1.0000
  C   C115      1.0  0.6747675136341797  0.6551211235694226  0.5681074548627336  1.0000
  C   C116      1.0  0.5686821077290672  0.6875963625202817  0.587572224512968  1.0000
  C   C117      1.0  0.46093327587006155  0.6429582953977545  0.5902768285213398  1.0000
  C   C118      1.0  0.45869233037929286  0.567541385318144  0.5717179859365515  1.0000
  C   C119      1.0  0.565713237008758  0.5360043055037877  0.552266307635513  1.0000
  C   C120      1.0  0.36524151106937097  0.7390869681328099  0.6386489232002219  1.0000
  C   C121      1.0  0.22747128175425496  0.6791588780428699  0.702355507981835  1.0000
  C   C122      1.0  0.11162470690291569  0.661728139538795  0.7770156849424837  1.0000
  C   C123      1.0  0.0259328644424244  0.695419024364263  0.8089417867884805  1.0000
  C   C124      1.0  0.005411869812483899  0.6627537936644645  0.8541744876732054  1.0000
  C   C125      1.0  0.0681646438872434  0.5954785439422422  0.8682086270874194  1.0000
  C   C126      1.0  0.15233977392755796  0.5618556917752926  0.8358996641933487  1.0000
  C   C127      1.0  0.17501590132564357  0.5945820524501287  0.7905008042088681  1.0000
  C   C128      1.0  0.044453371523680084  0.560175868149699  0.9165489246535969  1.0000
  C   C129      1.0  0.7499978130898625  0.25000184239186035  0.3301954288879472  1.0000
  C   C130      1.0  0.7500046750445079  0.7500055449188423  0.16980617817476676  1.0000
  C   C131      1.0  0.2499938268116536  0.7499967576105464  0.6698059766702826  1.0000
  C   C132      1.0  0.24999988100291395  0.25000343422897237  0.8301934094589285  1.0000
  O   O1        1.0  0.2878821101553796  0.9803135421594645  0.4886389713439385  1.0000
  O   O2        1.0  0.388418585670429  0.0888791791945991  0.4637229681006687  1.0000
  O   O3        1.0  0.854025657472448  0.16920010513759112  0.3890383940281623  1.0000
  O   O4        1.0  0.6260906664601009  0.19875079860852202  0.2662994296144703  1.0000
  O   O5        1.0  0.5875011746690433  0.9925091852044761  0.0762635047330633  1.0000
  O   O6        1.0  0.48255182368596644  0.10004987041622831  0.0527108292944547  1.0000
  O   O7        1.0  0.35629290198940566  0.8140592837937319  0.5206361149249332  1.0000
  O   O8        1.0  0.2878922432875796  0.019678902506534306  0.0113598572137761  1.0000
  O   O9        1.0  0.38842430423731855  0.9111152860783706  0.0362778082762318  1.0000
  O   O10       1.0  0.8540218713987854  0.8308110626968459  0.1109582571542163  1.0000
  O   O11       1.0  0.6260964626847069  0.8012549430500472  0.23369874507712748  1.0000
  O   O12       1.0  0.5875024943090849  0.007482384716865902  0.4237375288037128  1.0000
  O   O13       1.0  0.48253766986131535  0.8999511730949337  0.44729443175690164  1.0000
  O   O14       1.0  0.3563116649740721  0.18593086951202756  0.9793688623581787  1.0000
  O   O15       1.0  0.2121283304459496  0.4803202002929227  0.011356549289608601  1.0000
  O   O16       1.0  0.11157095365776827  0.5888742663473966  0.0362789293960901  1.0000
  O   O17       1.0  0.645968533910782  0.6692093543079025  0.11095713581544692  1.0000
  O   O18       1.0  0.8739097327172085  0.6987485901053817  0.2336980131721447  1.0000
  O   O19       1.0  0.9124865354174643  0.4925093698608196  0.4237337917362254  1.0000
  O   O20       1.0  0.017449963315300496  0.6000463113722603  0.4472885589976698  1.0000
  O   O21       1.0  0.14373639899650203  0.3140737441034673  0.9793638407958555  1.0000
  O   O22       1.0  0.21209941165201227  0.5196831229370247  0.48863563678607846  1.0000
  O   O23       1.0  0.1115633423828086  0.4111160804824863  0.4637182170350513  1.0000
  O   O24       1.0  0.6459676944399462  0.33080982101105155  0.3890439732902351  1.0000
  O   O25       1.0  0.8739118046415368  0.30125467671276607  0.2663081170245434  1.0000
  O   O26       1.0  0.9124953973157444  0.5074705885063012  0.07626548005109872  1.0000
  O   O27       1.0  0.017489393282680496  0.39993976393620295  0.0527110110044333  1.0000
  O   O28       1.0  0.1437054944092466  0.6859353333106031  0.5206346808846121  1.0000
  O   O29       1.0  0.7121104523595888  0.019686787715514204  0.511367160886536  1.0000
  O   O30       1.0  0.611562905954777  0.9111240336813609  0.5362748015593013  1.0000
  O   O31       1.0  0.14597059520720987  0.830794458525162  0.6109521038291845  1.0000
  O   O32       1.0  0.3738991284044317  0.8012587570862452  0.7336987036509726  1.0000
  O   O33       1.0  0.41249507806489316  0.007486531730918998  0.9237368100537751  1.0000
  O   O34       1.0  0.5174453516149029  0.8999446932960143  0.9472909398507812  1.0000
  O   O35       1.0  0.6436950475491441  0.1859335500262773  0.4793649270317388  1.0000
  O   O36       1.0  0.7121150802766749  0.9803139313706243  0.9886346401369792  1.0000
  O   O37       1.0  0.6115710258808419  0.08887581793130289  0.9637250516319823  1.0000
  O   O38       1.0  0.14595685272880837  0.16920944868865465  0.8890460571501961  1.0000
  O   O39       1.0  0.3739053254849053  0.1987401972912579  0.7663012061224492  1.0000
  O   O40       1.0  0.41249375826937745  0.9925000700345877  0.5762616951920734  1.0000
  O   O41       1.0  0.5174327508740574  0.10004915668012163  0.5527106096895338  1.0000
  O   O42       1.0  0.643725181118725  0.81407176702146  0.0206376334945162  1.0000
  O   O43       1.0  0.787890064148172  0.5196847425829249  0.9886390388574996  1.0000
  O   O44       1.0  0.8884299119749242  0.41112145063578975  0.9637282936020669  1.0000
  O   O45       1.0  0.35403140935869704  0.3308076974510357  0.8890424518282528  1.0000
  O   O46       1.0  0.12609851361187197  0.30125981243450894  0.7662997565134476  1.0000
  O   O47       1.0  0.0875060270891623  0.5074938430570273  0.5762625235712449  1.0000
  O   O48       1.0  0.9825656634594606  0.3999511354653862  0.5527041204163012  1.0000
  O   O49       1.0  0.8563142857316562  0.685934658616553  0.020633201737318505  1.0000
  O   O50       1.0  0.7878793121730469  0.4803137471396041  0.511360678502264  1.0000
  O   O51       1.0  0.8884292199828534  0.5888767533163134  0.5362726444070489  1.0000
  O   O52       1.0  0.35403224877750716  0.669203194426501  0.6109541599873225  1.0000
  O   O53       1.0  0.12610289958602997  0.6987381572652256  0.73370346905687  1.0000
  O   O54       1.0  0.08750362280148488  0.4924945677752605  0.9237370162278751  1.0000
  O   O55       1.0  0.9825778975170393  0.6000432677572788  0.9472929397070261  1.0000
  O   O56       1.0  0.8562879905794814  0.31405980698019687  0.4793616344104734  1.0000
