data_image0
_chemical_formula_structural       Cd4H36C16N4Cl8O12
_chemical_formula_sum              "Cd4 H36 C16 N4 Cl8 O12"
_cell_length_a       7.246843415433553
_cell_length_b       8.74917571368986
_cell_length_c       14.299860814023438
_cell_angle_alpha    90.00010303325408
_cell_angle_beta     89.9997929596675
_cell_angle_gamma    110.78960738807758

_space_group_name_H-M_alt    "P 1"
_space_group_IT_number       1

loop_
  _space_group_symop_operation_xyz
  'x, y, z'

loop_
  _atom_site_type_symbol
  _atom_site_label
  _atom_site_symmetry_multiplicity
  _atom_site_fract_x
  _atom_site_fract_y
  _atom_site_fract_z
  _atom_site_occupancy
  Cd  Cd1       1.0  0.9572295139386571  0.14151664635452477  0.24917364841507353  1.0000
  Cd  Cd2       1.0  0.5427651047567184  0.8584846312577027  0.7491730055330877  1.0000
  Cd  Cd3       1.0  0.042766110167555466  0.8584834322187618  0.7508273295705623  1.0000
  Cd  Cd4       1.0  0.4572301852485837  0.14151789170697526  0.2508251752242003  1.0000
  H   H1        1.0  0.133178028012118  0.18379592586442325  0.891583483113749  1.0000
  H   H2        1.0  0.36682042285576705  0.8162030854320789  0.3915822512371889  1.0000
  H   H3        1.0  0.866818976319273  0.8162041534480409  0.10841819417811391  1.0000
  H   H4        1.0  0.6331786299352873  0.1837921058322465  0.6084159295125176  1.0000
  H   H5        1.0  0.07886506809842334  0.36532762947549463  0.9022466757585904  1.0000
  H   H6        1.0  0.42113278857046055  0.6346701691247246  0.40224444098345213  1.0000
  H   H7        1.0  0.9211314131719989  0.6346712272715183  0.0977557008405796  1.0000
  H   H8        1.0  0.5788648839954149  0.365325021400416  0.5977530404600202  1.0000
  H   H9        1.0  0.21108803369080692  0.46010318339899214  0.09810801055999721  1.0000
  H   H10       1.0  0.2889109949811799  0.5398955555156706  0.5981086542033154  1.0000
  H   H11       1.0  0.7889117311002637  0.5398968973905482  0.9018922681143026  1.0000
  H   H12       1.0  0.7110915302625787  0.46010452675191266  0.40189232377593953  1.0000
  H   H13       1.0  0.28068164382589333  0.585515595953346  0.9956524168917937  1.0000
  H   H14       1.0  0.219318539045574  0.4144859575413804  0.49565240627345736  1.0000
  H   H15       1.0  0.7193158835687969  0.4144857059242497  0.0043478617852557  1.0000
  H   H16       1.0  0.7806826059683374  0.5855141239876573  0.5043492710145828  1.0000
  H   H17       1.0  0.4407836911518431  0.49325877219489905  0.8637677169211884  1.0000
  H   H18       1.0  0.059218417756575534  0.5067451043577619  0.3637681053378473  1.0000
  H   H19       1.0  0.5592152164726869  0.506742530421235  0.1362318624470902  1.0000
  H   H20       1.0  0.9407823931494267  0.4932574215636478  0.6362328726443707  1.0000
  H   H21       1.0  0.4786825128708116  0.3041926782554114  0.8745194289697836  1.0000
  H   H22       1.0  0.021319524297702327  0.6958112082499143  0.3745214977095657  1.0000
  H   H23       1.0  0.5213163947513878  0.6958086243610354  0.1254808497060012  1.0000
  H   H24       1.0  0.9786812866059692  0.30419131767182256  0.6254801795801513  1.0000
  H   H25       1.0  0.3481833029322203  0.2725752313284744  0.029394522733319706  1.0000
  H   H26       1.0  0.15181999076209257  0.7274258905934448  0.5293949302830683  1.0000
  H   H27       1.0  0.6518175079737818  0.7274272945929355  0.9706064552488913  1.0000
  H   H28       1.0  0.8481858179999834  0.2725754157169789  0.47060464907883676  1.0000
  H   H29       1.0  0.07839961125513643  0.13713130141226768  0.4412350682653  1.0000
  H   H30       1.0  0.4215976511576757  0.8628689776713685  0.9412386256872907  1.0000
  H   H31       1.0  0.9215987733224225  0.8628687786364679  0.5587610145652491  1.0000
  H   H32       1.0  0.5783998762323466  0.1371323242068669  0.058763051604778106  1.0000
  H   H33       1.0  0.8504991897070014  0.024568744246785505  0.4382195774954313  1.0000
  H   H34       1.0  0.6495014029369205  0.9754302676504808  0.9382202670248818  1.0000
  H   H35       1.0  0.14949934002075355  0.9754252244524083  0.5617800018690815  1.0000
  H   H36       1.0  0.35049888491278836  0.024571035704831  0.061780011649624114  1.0000
  C   C1        1.0  0.9665219308419709  0.18712743907956758  0.01577209290501  1.0000
  C   C2        1.0  0.5334770055558026  0.8128736239692743  0.5157665209590476  1.0000
  C   C3        1.0  0.03348440095074088  0.8128750898005209  0.9842358781471603  1.0000
  C   C4        1.0  0.4665379417752008  0.18712646494254412  0.4842225687811421  1.0000
  C   C5        1.0  0.12012416861237096  0.2747893592505407  0.9416099071608599  1.0000
  C   C6        1.0  0.3798753287076693  0.7252096990903709  0.44160994789773167  1.0000
  C   C7        1.0  0.8798742159511908  0.725210720800135  0.058390371514718716  1.0000
  C   C8        1.0  0.6201261504258186  0.27478793804468893  0.5583889321586072  1.0000
  C   C9        1.0  0.32152687257510604  0.5032197383079267  0.042481517147152204  1.0000
  C   C10       1.0  0.17847305028918484  0.4967801716841367  0.5424823165085471  1.0000
  C   C11       1.0  0.6784720350494241  0.4967815643082005  0.9575180622211195  1.0000
  C   C12       1.0  0.8215294749522427  0.5032199105837661  0.45751936077822114  1.0000
  C   C13       1.0  0.4784919282514579  0.4126924576382721  0.9130268577013398  1.0000
  C   C14       1.0  0.02150794871375443  0.5873102412052233  0.41302880459982566  1.0000
  C   C15       1.0  0.5215069793730719  0.5873088449778547  0.08697272166693179  1.0000
  C   C16       1.0  0.978492339131286  0.41269106215073487  0.5869728726896924  1.0000
  N   N1        1.0  0.31839277480722933  0.3585646442255311  0.9853668402044917  1.0000
  N   N2        1.0  0.181606430567861  0.6414344546176878  0.48536785267538834  1.0000
  N   N3        1.0  0.6816056097563322  0.6414354358251445  0.0146334384710869  1.0000
  N   N4        1.0  0.8183955716172664  0.35856440508411686  0.5146331253036678  1.0000
  Cl  Cl1       1.0  0.8063214494979078  0.3688800076009287  0.21899320174501472  1.0000
  Cl  Cl2       1.0  0.6936744166656583  0.6311236872088984  0.7189955220649651  1.0000
  Cl  Cl3       1.0  0.1936762668498347  0.6311249612344838  0.7810056783189055  1.0000
  Cl  Cl4       1.0  0.3063222535624918  0.3688788364952841  0.2810040573060633  1.0000
  Cl  Cl5       1.0  0.6158313011024674  0.91668108714412  0.23886031130601995  1.0000
  Cl  Cl6       1.0  0.8841673381205695  0.08331651618231459  0.7388644635960306  1.0000
  Cl  Cl7       1.0  0.38416741757600903  0.08331654851321699  0.7611385687528696  1.0000
  Cl  Cl8       1.0  0.11583328383005667  0.9166823427816055  0.2611386123068229  1.0000
  O   O1        1.0  0.03563828971566349  0.15091518757596836  0.0902687623566507  1.0000
  O   O2        1.0  0.4643703077012733  0.8490896606041717  0.5902659315823158  1.0000
  O   O3        1.0  0.9643720376163787  0.8490934548692692  0.9097336142352148  1.0000
  O   O4        1.0  0.5356394965838049  0.1509177592736748  0.4097329484718132  1.0000
  O   O5        1.0  0.7869536412893083  0.15670685781103802  0.9946433078127159  1.0000
  O   O6        1.0  0.7130486233710375  0.8432873182630659  0.49463749515661  1.0000
  O   O7        1.0  0.21304212796243863  0.8432871094133529  0.0053625653219029  1.0000
  O   O8        1.0  0.2869466228593965  0.1567054263903671  0.5053571890577119  1.0000
  O   O9        1.0  0.945667303880626  0.1336903514633151  0.4190795042585124  1.0000
  O   O10       1.0  0.5543353197568308  0.8663098660213961  0.9190781494672394  1.0000
  O   O11       1.0  0.05433384113795379  0.8663097300650833  0.5809207744145156  1.0000
  O   O12       1.0  0.4456641109309984  0.13369265915986256  0.08092003128622591  1.0000
