data_image0
_chemical_formula_structural       LuH9C5N2O8
_chemical_formula_sum              "Lu1 H9 C5 N2 O8"
_cell_length_a       6.488036344076735
_cell_length_b       6.601551777959363
_cell_length_c       6.601321352854929
_cell_angle_alpha    64.6530644530045
_cell_angle_beta     73.23170568578077
_cell_angle_gamma    73.2284598387561

_space_group_name_H-M_alt    "P 1"
_space_group_IT_number       1

loop_
  _space_group_symop_operation_xyz
  'x, y, z'

loop_
  _atom_site_type_symbol
  _atom_site_label
  _atom_site_symmetry_multiplicity
  _atom_site_fract_x
  _atom_site_fract_y
  _atom_site_fract_z
  _atom_site_occupancy
  Lu  Lu1       1.0  3.2235167502405215e-05  0.1850659734119731  0.8149606784313618  1.0000
  H   H1        1.0  0.5976134557825716  0.5400062762334696  0.018520569749654263  1.0000
  H   H2        1.0  0.4023851651404299  0.9815083148781485  0.45996543999807216  1.0000
  H   H3        1.0  0.46772892128479526  0.44199019332588574  0.3129474640628798  1.0000
  H   H4        1.0  0.5322586965752478  0.686964570833773  0.558083524840569  1.0000
  H   H5        1.0  0.17322725025726982  0.7212729599346089  0.2671797168732583  1.0000
  H   H6        1.0  0.8267997863763412  0.7327960339593317  0.27870285165575104  1.0000
  H   H7        1.0  0.13140499792572066  0.7126824943918281  0.6569303535021404  1.0000
  H   H8        1.0  0.8685617936059771  0.34304348538111645  0.2873704621799718  1.0000
  H   H9        1.0  0.49999915051298416  0.0973582830627677  0.9027287213211395  1.0000
  C   C1        1.0  0.29298754069353816  0.7177144410923686  0.11095485845140741  1.0000
  C   C2        1.0  0.7070365186648926  0.889124588725508  0.28220863260359846  1.0000
  C   C3        1.0  0.9635012628469611  0.7133423842457062  0.7609214638749577  1.0000
  C   C4        1.0  0.0364701730261245  0.2390434057009329  0.28667357968758017  1.0000
  C   C5        1.0  0.5000092591295909  0.2526660445801809  0.7473426313387961  1.0000
  N   N1        1.0  0.46620729993935583  0.552690739775322  0.1476267082658183  1.0000
  N   N2        1.0  0.5338114708832079  0.8523253718608997  0.4473214340398782  1.0000
  O   O1        1.0  0.26005245285766426  0.8623922161370103  0.9173508724702514  1.0000
  O   O2        1.0  0.7398967584409846  0.08277076760551688  0.13753883186390686  1.0000
  O   O3        1.0  0.6694263380123217  0.34359212277081497  0.6686495101937099  1.0000
  O   O4        1.0  0.3305919210667411  0.3313606475543693  0.6563519940248526  1.0000
  O   O5        1.0  0.8767772168095362  0.5440433681128525  0.806008361704585  1.0000
  O   O6        1.0  0.12323386371797802  0.19396313087287345  0.45598135157707287  1.0000
  O   O7        1.0  0.8710558027340197  0.8758309199507578  0.8266837143855954  1.0000
  O   O8        1.0  0.1289198257075412  0.17325193120580454  0.1242053815272754  1.0000
