data_image0
_chemical_formula_structural       Pr4Ag4H20C36N4O36
_chemical_formula_sum              "Pr4 Ag4 H20 C36 N4 O36"
_cell_length_a       9.65516316698694
_cell_length_b       11.168144146688045
_cell_length_c       13.337868313207029
_cell_angle_alpha    112.63609555160014
_cell_angle_beta     89.99797885491179
_cell_angle_gamma    115.60981138116256

_space_group_name_H-M_alt    "P 1"
_space_group_IT_number       1

loop_
  _space_group_symop_operation_xyz
  'x, y, z'

loop_
  _atom_site_type_symbol
  _atom_site_label
  _atom_site_symmetry_multiplicity
  _atom_site_fract_x
  _atom_site_fract_y
  _atom_site_fract_z
  _atom_site_occupancy
  Pr  Pr1       1.0  0.9317935795813455  0.7362995205167165  0.8165836421514285  1.0000
  Pr  Pr2       1.0  0.19564803301346959  0.2638704863107363  0.683507874422304  1.0000
  Pr  Pr3       1.0  0.06821101136758755  0.2637047454463398  0.1834178720824653  1.0000
  Pr  Pr4       1.0  0.8043519243934583  0.7361348698042177  0.3164947463165362  1.0000
  Ag  Ag1       1.0  0.7142818908065038  0.5074290925113017  0.9954187289843193  1.0000
  Ag  Ag2       1.0  0.2069082709398344  0.49276962011082037  0.5046128737955726  1.0000
  Ag  Ag3       1.0  0.28571732311830533  0.4925685620838535  0.004582871477723001  1.0000
  Ag  Ag4       1.0  0.7930872909029459  0.5072269445288312  0.4953876203330978  1.0000
  H   H1        1.0  0.0678882790226396  0.8772986448749337  0.6527859622651067  1.0000
  H   H2        1.0  0.1905240425321466  0.1228341565555269  0.8472678991131489  1.0000
  H   H3        1.0  0.9321115698982325  0.12270235107430236  0.3472122328400077  1.0000
  H   H4        1.0  0.8094758103642761  0.8771668473095033  0.152729548817355  1.0000
  H   H5        1.0  0.8913471141356838  0.7997273661333182  0.6065674939828086  1.0000
  H   H6        1.0  0.09143160579681361  0.2002926958907523  0.8934445969275729  1.0000
  H   H7        1.0  0.10865216993438762  0.2002725002078378  0.3934333305976523  1.0000
  H   H8        1.0  0.9085687179518164  0.7997071783416416  0.10655548045682656  1.0000
  H   H9        1.0  0.5202312023661761  0.8572050172188526  0.8458905600316344  1.0000
  H   H10       1.0  0.6633607419363445  0.14301483525031947  0.654257025230372  1.0000
  H   H11       1.0  0.4797726610028691  0.14279157888753954  0.1541069452270136  1.0000
  H   H12       1.0  0.3366328067190096  0.8569839174370769  0.34574493458345046  1.0000
  H   H13       1.0  0.8807861330069215  0.3063676534916127  0.9563053227412157  1.0000
  H   H14       1.0  0.5743936184650238  0.6936501318507169  0.5435829411443578  1.0000
  H   H15       1.0  0.1192142066439316  0.6936322524039225  0.04369176594473594  1.0000
  H   H16       1.0  0.4256025042529998  0.3063475544812276  0.45641567068357597  1.0000
  H   H17       1.0  0.4164901543740172  0.21844941502548212  0.9250859031112597  1.0000
  H   H18       1.0  0.19824736619650446  0.7818880337384754  0.5749178355882948  1.0000
  H   H19       1.0  0.583507440533971  0.7815450011453534  0.07490938945920074  1.0000
  H   H20       1.0  0.8017497419570532  0.2181074804018479  0.4250778162267181  1.0000
  C   C1        1.0  0.27472180837374055  0.9222100020656393  0.8517659287530321  1.0000
  C   C2        1.0  0.3528233399895838  0.0781377562204213  0.6483797235942603  1.0000
  C   C3        1.0  0.7252799796137382  0.0777865861740707  0.1482323237231213  1.0000
  C   C4        1.0  0.6471860631326722  0.9218719915024566  0.3516243338868534  1.0000
  C   C5        1.0  0.4464990713325818  0.023843487520736097  0.8784549315542804  1.0000
  C   C6        1.0  0.42294798547811024  0.976459192572548  0.6216555940543387  1.0000
  C   C7        1.0  0.5535005870302996  0.9761509127694269  0.12154185532250487  1.0000
  C   C8        1.0  0.5770496517462362  0.023537379933792096  0.3783441528568261  1.0000
  C   C9        1.0  0.5574708715764062  0.9736332544269217  0.872075045111707  1.0000
  C   C10       1.0  0.5840894449471107  0.026569562298028898  0.6280075295893612  1.0000
  C   C11       1.0  0.4425331161809254  0.026367733508337196  0.12792389708222632  1.0000
  C   C12       1.0  0.415911357604834  0.9734291981333028  0.3719936828997207  1.0000
  C   C13       1.0  0.7158884986197336  0.07605216960888578  0.9034860486080805  1.0000
  C   C14       1.0  0.6400017779555683  0.9240617207139934  0.5964986753543542  1.0000
  C   C15       1.0  0.28410964126126714  0.9239433365911012  0.09651035036009141  1.0000
  C   C16       1.0  0.35999482356577056  0.0759348518168963  0.4035010715782549  1.0000
  C   C17       1.0  0.7580901092717767  0.2239938190546482  0.9338510847975601  1.0000
  C   C18       1.0  0.5341735076868231  0.77611887130449  0.5660785881216839  1.0000
  C   C19       1.0  0.2419117528365148  0.77600498884685  0.06614564462240215  1.0000
  C   C20       1.0  0.46582109654931986  0.22387992093727851  0.4339196357976363  1.0000
  C   C21       1.0  0.49890099217578415  0.1741480787204921  0.9145488959779584  1.0000
  C   C22       1.0  0.3249542485282716  0.8261532668188776  0.5854785596659298  1.0000
  C   C23       1.0  0.501098187383782  0.8258474353707326  0.08544675579415885  1.0000
  C   C24       1.0  0.6750434667924451  0.17384553326503036  0.41451891701443344  1.0000
  C   C25       1.0  0.841723975286854  0.0338961525100103  0.9122805412861439  1.0000
  C   C26       1.0  0.8079850390724983  0.9661468623410765  0.5876989307656827  1.0000
  C   C27       1.0  0.1582866501208358  0.9661201829316042  0.0877256715764503  1.0000
  C   C28       1.0  0.1920188694605045  0.0338705395541794  0.4123106301685837  1.0000
  C   C29       1.0  0.5515998218619629  0.5408519995382618  0.8178699908561241  1.0000
  C   C30       1.0  0.010968737765040365  0.45938398756635485  0.682260926757536  1.0000
  C   C31       1.0  0.44838420695725745  0.45914014187943025  0.182132055271623  1.0000
  C   C32       1.0  0.9890379600831026  0.5406037773139687  0.3177381876138626  1.0000
  C   C33       1.0  0.5466176383349933  0.5307656592418721  0.6982582510088733  1.0000
  C   C34       1.0  0.015952800420386454  0.46942644116364113  0.8018553084891168  1.0000
  C   C35       1.0  0.45336425688407195  0.4692242863104922  0.3017430766941231  1.0000
  C   C36       1.0  0.9840543961088529  0.5305602494945418  0.19814120511389896  1.0000
  N   N1        1.0  0.6515150786670247  0.27203823927506227  0.9389979107409446  1.0000
  N   N2        1.0  0.37956577455498314  0.7281609986109528  0.5609439683065673  1.0000
  N   N3        1.0  0.34848050305353684  0.727958364943511  0.060998847514667866  1.0000
  N   N4        1.0  0.6204308428685864  0.27183560558307107  0.4390527899276009  1.0000
  O   O1        1.0  0.22465052021044582  0.7867216794159119  0.8248419749576572  1.0000
  O   O2        1.0  0.4382253735912727  0.2136248559009601  0.6752353408215513  1.0000
  O   O3        1.0  0.7753495970779696  0.21327156749426723  0.17515968289686873  1.0000
  O   O4        1.0  0.5617748839876597  0.7863728145012202  0.3247647652698191  1.0000
  O   O5        1.0  0.18013090024304293  0.9771005322809927  0.8594052089453259  1.0000
  O   O6        1.0  0.20337361751690253  0.023263364695708298  0.640808116106605  1.0000
  O   O7        1.0  0.8198698017739546  0.0228938838161952  0.1405900835607952  1.0000
  O   O8        1.0  0.7966293305618632  0.9767376153483123  0.3591915732833897  1.0000
  O   O9        1.0  0.8127462746771174  0.9030393808537908  0.8554322618269056  1.0000
  O   O10       1.0  0.9099227591524938  0.09696653250391307  0.6445566191081227  1.0000
  O   O11       1.0  0.1872559338950879  0.09695390558621139  0.1445656601116667  1.0000
  O   O12       1.0  0.09006293639023245  0.9030289423275232  0.35544276881586256  1.0000
  O   O13       1.0  0.9717567092907659  0.13715416984089046  0.9788924336513819  1.0000
  O   O14       1.0  0.8346720443511585  0.8628214487399287  0.5210629574626608  1.0000
  O   O15       1.0  0.02824362638453686  0.8628457281388576  0.021105402209180075  1.0000
  O   O16       1.0  0.1653314526761775  0.1371806292490376  0.4789370911504351  1.0000
  O   O17       1.0  0.6857996971597444  0.6140928934425743  0.8823517855310499  1.0000
  O   O18       1.0  0.07192350619833122  0.3861347940990072  0.6178098775111778  1.0000
  O   O19       1.0  0.31421497706136137  0.3859211826601267  0.11765968617500279  1.0000
  O   O20       1.0  0.9280702793069296  0.6138727184987471  0.3821971976970531  1.0000
  O   O21       1.0  0.6773051538060385  0.5950239925682369  0.6738211480694076  1.0000
  O   O22       1.0  0.08232245319204166  0.40517413953874376  0.8263180742390193  1.0000
  O   O23       1.0  0.3227130296457901  0.40498467282032635  0.32618105564635164  1.0000
  O   O24       1.0  0.9176693668324775  0.5948356560961727  0.17368150055902729  1.0000
  O   O25       1.0  0.4230691048521181  0.47212630297462255  0.8414429775970335  1.0000
  O   O26       1.0  0.9511927610788721  0.5281368834465924  0.65865558523398  1.0000
  O   O27       1.0  0.576945484736271  0.5278834604570761  0.15855958542761783  1.0000
  O   O28       1.0  0.048801138302771094  0.4718729279708  0.3413424951719434  1.0000
  O   O29       1.0  0.412620443988807  0.4564366823629342  0.635604514107584  1.0000
  O   O30       1.0  0.9561907606660756  0.5437463319224419  0.8644821337952847  1.0000
  O   O31       1.0  0.5873987314349024  0.5435718959274426  0.3644059085074574  1.0000
  O   O32       1.0  0.04379839924829548  0.4562622866587844  0.13552455356867202  1.0000
  O   O33       1.0  0.967999747280878  0.7942283995232058  0.6516381029405878  1.0000
  O   O34       1.0  0.173593624489861  0.20583751997293825  0.8483666910884582  1.0000
  O   O35       1.0  0.03199741511571114  0.20576929469997643  0.3483597616912917  1.0000
  O   O36       1.0  0.8264071899887568  0.794161264205755  0.1516322798767861  1.0000
