data_image0
_chemical_formula_structural       H32Pb2C44Br4N8
_chemical_formula_sum              "H32 Pb2 C44 Br4 N8"
_cell_length_a       4.157694642227134
_cell_length_b       16.090646106810592
_cell_length_c       17.416848528380804
_cell_angle_alpha    113.79429031849627
_cell_angle_beta     89.99899138197136
_cell_angle_gamma    89.99982062034312

_space_group_name_H-M_alt    "P 1"
_space_group_IT_number       1

loop_
  _space_group_symop_operation_xyz
  'x, y, z'

loop_
  _atom_site_type_symbol
  _atom_site_label
  _atom_site_symmetry_multiplicity
  _atom_site_fract_x
  _atom_site_fract_y
  _atom_site_fract_z
  _atom_site_occupancy
  H   H1        1.0  0.8594605053032325  0.782190397078601  0.23287218551524094  1.0000
  H   H2        1.0  0.8594603365553796  0.21780800489908364  0.2671266572936162  1.0000
  H   H3        1.0  0.140531567887102  0.21780692943796956  0.7671233766157926  1.0000
  H   H4        1.0  0.14052452075039673  0.7821941611909153  0.7328775561443662  1.0000
  H   H5        1.0  0.2953250340621737  0.9708814705863202  0.4174965638288198  1.0000
  H   H6        1.0  0.2953455620223551  0.029123525203267796  0.0825122435246044  1.0000
  H   H7        1.0  0.7046742544425015  0.029118629510300295  0.5825046010480364  1.0000
  H   H8        1.0  0.7046513213456933  0.9708765606742559  0.9174877678069819  1.0000
  H   H9        1.0  0.2756313916648168  0.874572830658778  0.5002733112306998  1.0000
  H   H10       1.0  0.2756225098729885  0.1254279271949272  0.9997343907262672  1.0000
  H   H11       1.0  0.7243871381819886  0.12542864909182327  0.4997300782010115  1.0000
  H   H12       1.0  0.7243623476900539  0.8745707790172618  0.00026339603099497086  1.0000
  H   H13       1.0  0.871436126985259  0.6790103114160788  0.3094047633289492  1.0000
  H   H14       1.0  0.8714234618135991  0.320987387935901  0.19059492131459171  1.0000
  H   H15       1.0  0.1285679718483408  0.32098912372087096  0.6905973079471366  1.0000
  H   H16       1.0  0.1285710163886904  0.6790120187704362  0.8094048428839146  1.0000
  H   H17       1.0  0.3918116547469666  0.7322334985185677  0.510798427485625  1.0000
  H   H18       1.0  0.3918138094391709  0.2677647992238903  0.9892032919966167  1.0000
  H   H19       1.0  0.6081900389924398  0.26776590817640766  0.48920133669341936  1.0000
  H   H20       1.0  0.6081878843028363  0.7322366307731372  0.010796060049337067  1.0000
  H   H21       1.0  0.4021371678565373  0.28623242813594635  0.38724194552140295  1.0000
  H   H22       1.0  0.40214218935662427  0.7137727826558803  0.11275615077151711  1.0000
  H   H23       1.0  0.5978741466547178  0.7137662851460432  0.6127564179403747  1.0000
  H   H24       1.0  0.5978522887554903  0.2862280037347206  0.8872458380337491  1.0000
  H   H25       1.0  0.3450241778027774  0.370788576528895  0.2967752924570135  1.0000
  H   H26       1.0  0.3450452526252974  0.6292134892403425  0.20322764399134738  1.0000
  H   H27       1.0  0.6549678953451377  0.6292087642105528  0.7032214232257843  1.0000
  H   H28       1.0  0.654970872145924  0.370785931654801  0.7967732737005377  1.0000
  H   H29       1.0  0.0718145764237121  0.5217266736948288  0.35059134851171336  1.0000
  H   H30       1.0  0.0718198234579219  0.4782788264978136  0.14940251504854268  1.0000
  H   H31       1.0  0.9281871174138061  0.47827202537942515  0.649405861424249  1.0000
  H   H32       1.0  0.9282059221408404  0.5217192075864858  0.850595601234744  1.0000
  Pb  Pb1       1.0  0.5808786663894523  0.999999559359253  0.2500007327276066  1.0000
  Pb  Pb2       1.0  0.41910378606871745  1.8208879807983368e-06  0.7499945819390774  1.0000
  C   C1        1.0  0.7338477283789118  0.8000874673204805  0.29257192339884597  1.0000
  C   C2        1.0  0.7338497577642967  0.1999099716700883  0.2074271028347781  1.0000
  C   C3        1.0  0.266146749879077  0.19991124598800525  0.7074264401083497  1.0000
  C   C4        1.0  0.2661495307164259  0.8000935100785255  0.7925741441880946  1.0000
  C   C5        1.0  0.41988564940152884  0.9055814727509741  0.395721495504091  1.0000
  C   C6        1.0  0.41990377103427784  0.09441696863295587  0.10428037813548488  1.0000
  C   C7        1.0  0.5801136391879852  0.09441859889989249  0.6042773622692366  1.0000
  C   C8        1.0  0.5801099486082606  0.9055831101066332  0.8957190563748014  1.0000
  C   C9        1.0  0.40909226486786576  0.8521169392404461  0.4414221633266279  1.0000
  C   C10       1.0  0.4091082685509733  0.147878826530544  0.05857935676910129  1.0000
  C   C11       1.0  0.5909022132680591  0.1478858633407611  0.5585788365696658  1.0000
  C   C12       1.0  0.5909054512613849  0.8521157974749372  0.9414163702970768  1.0000
  C   C13       1.0  0.7398955556206205  0.7430005697266254  0.3348465975743551  1.0000
  C   C14       1.0  0.7398975759041947  0.2569948269263662  0.165152808162965  1.0000
  C   C15       1.0  0.26009892250475986  0.2569995374890013  0.6651551440913579  1.0000
  C   C16       1.0  0.2601017127729008  0.7430018417381845  0.8348442371366929  1.0000
  C   C17       1.0  0.5758665814424618  0.7692539836158618  0.41160249897134094  1.0000
  C   C18       1.0  0.5758673447366361  0.23074194354327196  0.088398945295161  1.0000
  C   C19       1.0  0.42413511216694383  0.23074884028830667  0.5884002312331377  1.0000
  C   C20       1.0  0.4241511853939813  0.7692547179795638  0.9115975231767093  1.0000
  C   C21       1.0  0.5792828172133682  0.7154535353990638  0.4621952884576501  1.0000
  C   C22       1.0  0.5792770068538431  0.2845505524518188  0.0378108333975362  1.0000
  C   C23       1.0  0.42073330738801934  0.2845513402301946  0.537809336678329  1.0000
  C   C24       1.0  0.42072709216544985  0.7154447720780935  0.9621868711617977  1.0000
  C   C25       1.0  0.8181426473962787  0.6097453013463366  0.5046934312046858  1.0000
  C   C26       1.0  0.8181404323962482  0.39025372049664486  0.9953090366578222  1.0000
  C   C27       1.0  0.18186145159373981  0.39025475607407856  0.495304273003903  1.0000
  C   C28       1.0  0.18186126130607508  0.6097443491826978  0.004691963569754861  1.0000
  C   C29       1.0  0.29103098310501707  0.3532738965961996  0.41256410580307085  1.0000
  C   C30       1.0  0.291026667317638  0.6467262305173019  0.08743261284199375  1.0000
  C   C31       1.0  0.7089827365587241  0.6467261750319507  0.5874347519313261  1.0000
  C   C32       1.0  0.7089822419376688  0.3532731832777641  0.912567728093471  1.0000
  C   C33       1.0  0.2522803457794609  0.40066884098489897  0.3607711202551513  1.0000
  C   C34       1.0  0.2522752203025079  0.5993355187045637  0.13923017417744887  1.0000
  C   C35       1.0  0.7477285635660282  0.5993291931258965  0.6392269960735532  1.0000
  C   C36       1.0  0.7477312838506691  0.40066319458499317  0.8607681892973034  1.0000
  C   C37       1.0  0.10097134551184442  0.48421628154153495  0.3900640953017173  1.0000
  C   C38       1.0  0.1009477577824285  0.5157898772148997  0.10993562592722837  1.0000
  C   C39       1.0  0.8990351586704862  0.5157830967001259  0.6099333617608238  1.0000
  C   C40       1.0  0.8990587463176567  0.48421155277455336  0.8900637261057511  1.0000
  C   C41       1.0  0.9806670987813749  0.5235729500174813  0.4730838743888838  1.0000
  C   C42       1.0  0.9806476864736383  0.47642780141543983  0.02691645664443597  1.0000
  C   C43       1.0  0.019344215724544304  0.4764271145030179  0.5269144065761182  1.0000
  C   C44       1.0  0.0193467916862318  0.523571619513767  0.9730844611058346  1.0000
  Br  Br1       1.0  0.0741253584364543  0.1161196883409872  0.369681060031219  1.0000
  Br  Br2       1.0  0.07412457985583393  0.8838737145557475  0.1303193013078214  1.0000
  Br  Br3       1.0  0.9258234212020895  0.883891243077514  0.6303211753353892  1.0000
  Br  Br4       1.0  0.9258145785550342  0.11612996640776882  0.8696980956019544  1.0000
  N   N1        1.0  0.5792700808922078  0.8805854447231736  0.3226219462995558  1.0000
  N   N2        1.0  0.5792777174867254  0.11941452542815509  0.17737923209544695  1.0000
  N   N3        1.0  0.42072439727026273  0.11941599950808518  0.6773785593176314  1.0000
  N   N4        1.0  0.420721571086915  0.8805842020956333  0.8226202849505313  1.0000
  N   N5        1.0  0.7947900689229925  0.6541855977381488  0.45060167471235957  1.0000
  N   N6        1.0  0.7947922699111629  0.34581848385446523  0.049402954773725555  1.0000
  N   N7        1.0  0.2052092195868838  0.3458185489625619  0.5493986658983161  1.0000
  N   N8        1.0  0.20520701860952073  0.6541775625266197  0.9505984575934291  1.0000
