data_image0
_chemical_formula_structural       Cd4H28C32S4N12O16
_chemical_formula_sum              "Cd4 H28 C32 S4 N12 O16"
_cell_length_a       7.805590207653914
_cell_length_b       8.21583428830041
_cell_length_c       16.659143633006003
_cell_angle_alpha    90.00001743307206
_cell_angle_beta     90.00009134870719
_cell_angle_gamma    96.384835493213

_space_group_name_H-M_alt    "P 1"
_space_group_IT_number       1

loop_
  _space_group_symop_operation_xyz
  'x, y, z'

loop_
  _atom_site_type_symbol
  _atom_site_label
  _atom_site_symmetry_multiplicity
  _atom_site_fract_x
  _atom_site_fract_y
  _atom_site_fract_z
  _atom_site_occupancy
  Cd  Cd1       1.0  0.6200232046280548  0.054339262690937994  0.64200862240223  1.0000
  Cd  Cd2       1.0  0.8799770420523246  0.9456554718687541  0.1420034886178527  1.0000
  Cd  Cd3       1.0  0.3799720689150591  0.9456562787943668  0.3579921987063486  1.0000
  Cd  Cd4       1.0  0.1200233528221801  0.054340042995370715  0.8579919300540412  1.0000
  H   H1        1.0  0.6737798545108904  0.6713907648817142  0.7563080792971135  1.0000
  H   H2        1.0  0.8262172613391671  0.32860655566933883  0.25630761927114076  1.0000
  H   H3        1.0  0.32621700000369463  0.328607219430225  0.24369334208316928  1.0000
  H   H4        1.0  0.17378004412811524  0.671395102864004  0.7436938021095829  1.0000
  H   H5        1.0  0.530926714104119  0.649067663724054  0.67414473825513  1.0000
  H   H6        1.0  0.9690685263877088  0.3509271302240506  0.1741449865222648  1.0000
  H   H7        1.0  0.4690738310965514  0.3509290758829878  0.3258554825845152  1.0000
  H   H8        1.0  0.03092945814565702  0.6490696226931193  0.8258570351293033  1.0000
  H   H9        1.0  0.8018297832415939  0.4571106734437577  0.8009286517309989  1.0000
  H   H10       1.0  0.6981690734530944  0.542889135430478  0.3009281286578514  1.0000
  H   H11       1.0  0.19816963194352874  0.5428872975589699  0.19907276965022905  1.0000
  H   H12       1.0  0.30183139395174413  0.4571174087545984  0.6990714919115248  1.0000
  H   H13       1.0  0.8231628422414944  0.2861767364339158  0.7399783353585578  1.0000
  H   H14       1.0  0.6768383567328159  0.7138229969816337  0.2399736193846991  1.0000
  H   H15       1.0  0.17684056426913483  0.7138224393460674  0.2600242865661286  1.0000
  H   H16       1.0  0.32316437070312537  0.2861810844120781  0.760023600101519  1.0000
  H   H17       1.0  0.6202721469691853  0.7925186658734162  0.49950375155025034  1.0000
  H   H18       1.0  0.879732615081771  0.2074923481770412  0.9995048960536366  1.0000
  H   H19       1.0  0.37972967856674694  0.2074780670790233  0.5004964692898639  1.0000
  H   H20       1.0  0.12026529165147082  0.7925142093169484  0.0004941242438434  1.0000
  H   H21       1.0  0.8221449144693552  0.6226268029581946  0.4291730673201998  1.0000
  H   H22       1.0  0.6778576361977784  0.37738905165410597  0.9291794906533681  1.0000
  H   H23       1.0  0.17785352101132906  0.37737362417885123  0.5708259529770388  1.0000
  H   H24       1.0  0.3221392908450014  0.6226199619781808  0.07082493208249471  1.0000
  H   H25       1.0  0.1281746850118282  0.6371801335400491  0.477825374694568  1.0000
  H   H26       1.0  0.37182892062582346  0.3628272998294405  0.9778289368808685  1.0000
  H   H27       1.0  0.8718245798471217  0.36281661271976157  0.5221712445189015  1.0000
  H   H28       1.0  0.6281708677236892  0.6371841499748712  0.0221760861271747  1.0000
  C   C1        1.0  0.7532812952096961  0.7925075186890496  0.5186878596800639  1.0000
  C   C2        1.0  0.7467191109027098  0.20749198909459926  0.0186921260335069  1.0000
  C   C3        1.0  0.24671601025865908  0.2074941398445986  0.48131416197160354  1.0000
  C   C4        1.0  0.2532772926656435  0.7925023209977766  0.9813128969720566  1.0000
  C   C5        1.0  0.8664607538573748  0.6990626852376208  0.48007186387862083  1.0000
  C   C6        1.0  0.6335480802081151  0.30095073851573784  0.9800716407001745  1.0000
  C   C7        1.0  0.13354062071834252  0.30093037349126933  0.5199241550644088  1.0000
  C   C8        1.0  0.3664531387802512  0.6990619293704583  0.0199255787861148  1.0000
  C   C9        1.0  0.035017956288285676  0.705684469671361  0.5079907615874149  1.0000
  C   C10       1.0  0.46497711331675623  0.2943188436883517  0.0079952005869188  1.0000
  C   C11       1.0  0.9649828895475139  0.29431471941661863  0.49200945925252176  1.0000
  C   C12       1.0  0.5350179321237294  0.7056852776375849  0.9920110229607602  1.0000
  C   C13       1.0  0.086640239868558  0.8020473595073695  0.574941407777068  1.0000
  C   C14       1.0  0.41336388163735194  0.1979547507920572  0.07493979230344651  1.0000
  C   C15       1.0  0.9133627156797033  0.1979481420484674  0.4250558117086173  1.0000
  C   C16       1.0  0.5866367360829088  0.8020530181328809  0.9250586277241695  1.0000
  C   C17       1.0  0.9640626403153975  0.891565333859937  0.610727489137119  1.0000
  C   C18       1.0  0.5359350839415385  0.10843060685652972  0.1107273846700281  1.0000
  C   C19       1.0  0.0359329338606997  0.10843265710569483  0.3892721314298414  1.0000
  C   C20       1.0  0.4640646318787063  0.891569813627136  0.8892740367114842  1.0000
  C   C21       1.0  0.27188916022250714  0.8096313225147542  0.603585205542231  1.0000
  C   C22       1.0  0.22811318231083533  0.19036592468459898  0.10358525387888311  1.0000
  C   C23       1.0  0.7281123646793759  0.190362960957053  0.3964156155685502  1.0000
  C   C24       1.0  0.7718900738800799  0.8096320263543079  0.8964161675037448  1.0000
  C   C25       1.0  0.9998306746004176  0.9910805633896943  0.6862578024482886  1.0000
  C   C26       1.0  0.5001777910718843  0.008906821265085798  0.1862564568527461  1.0000
  C   C27       1.0  0.00017695133836069995  0.0089112373269202  0.3137406175807413  1.0000
  C   C28       1.0  0.49982531479609094  0.9910899050318278  0.8137419631749837  1.0000
  C   C29       1.0  0.6683572366787374  0.4541094014269404  0.6965414840850885  1.0000
  C   C30       1.0  0.8316343155812337  0.5458964646415938  0.19654406071948222  1.0000
  C   C31       1.0  0.33164458885934783  0.5458873315261101  0.3034599372969353  1.0000
  C   C32       1.0  0.1683621605024044  0.4541088747674565  0.8034567603902403  1.0000
  S   S1        1.0  0.5900084078200794  0.34971608682099037  0.6115965051989677  1.0000
  S   S2        1.0  0.9099939899363036  0.6502761539409931  0.11159495247236613  1.0000
  S   S3        1.0  0.40999326740044495  0.6502794213915876  0.388404916182914  1.0000
  S   S4        1.0  0.09000640494465272  0.349719360924972  0.8884040678252347  1.0000
  N   N1        1.0  0.8023859391532254  0.8878565047580977  0.5815962802855879  1.0000
  N   N2        1.0  0.6976180046059142  0.1121491775594876  0.08159449415768451  1.0000
  N   N3        1.0  0.1976133257078772  0.11214024150232402  0.4184015394697839  1.0000
  N   N4        1.0  0.30238374312881433  0.8878573599694519  0.9184021250574048  1.0000
  N   N5        1.0  0.6283097515313191  0.6059991571883218  0.7070246122420158  1.0000
  N   N6        1.0  0.8716941181622886  0.3939919494817233  0.20702479527670903  1.0000
  N   N7        1.0  0.37168936301760175  0.3939963643331695  0.2929762088679695  1.0000
  N   N8        1.0  0.1283062767251195  0.606003565386075  0.7929778266466059  1.0000
  N   N9        1.0  0.7654592383375559  0.3896275998666638  0.7512694182474249  1.0000
  N   N10       1.0  0.7345490818338051  0.6103672061722207  0.2512647296940713  1.0000
  N   N11       1.0  0.23453987621029174  0.6103679216545216  0.2487308025916164  1.0000
  N   N12       1.0  0.2654554546880803  0.3896307382108546  0.7487342906052277  1.0000
  O   O1        1.0  0.9196469623043841  0.11418797478207669  0.6974305530379823  1.0000
  O   O2        1.0  0.5803472315943097  0.8858080743019984  0.19742639134477  1.0000
  O   O3        1.0  0.08034906282548349  0.885813690405264  0.3025696678003627  1.0000
  O   O4        1.0  0.4196550448900211  0.1141923328706156  0.8025714284119729  1.0000
  O   O5        1.0  0.1064514039027458  0.9372702612298767  0.7348464030249531  1.0000
  O   O6        1.0  0.39355283958690995  0.06272833789385861  0.2348453537904689  1.0000
  O   O7        1.0  0.8935465806220151  0.06272649168484891  0.2651508164589984  1.0000
  O   O8        1.0  0.6064502662832182  0.937268388403666  0.7651542667791631  1.0000
  O   O9        1.0  0.3681508914318812  0.9392544357008887  0.5842451204115093  1.0000
  O   O10       1.0  0.13185040210399282  0.060745247913430896  0.0842438788938011  1.0000
  O   O11       1.0  0.63184957597511  0.060752108484798804  0.4157557006997692  1.0000
  O   O12       1.0  0.8681521750197662  0.9392576087413431  0.915756341947038  1.0000
  O   O13       1.0  0.3167393941488967  0.6863815823090749  0.6399970487569818  1.0000
  O   O14       1.0  0.183260067223884  0.3136120411050315  0.1399970819586684  1.0000
  O   O15       1.0  0.6832634836067655  0.3136237238257138  0.3600013712712808  1.0000
  O   O16       1.0  0.8167394982831058  0.686387154639391  0.8600067405065062  1.0000
