data_image0
_chemical_formula_structural       Zn2H23C27N2O13F3
_chemical_formula_sum              "Zn2 H23 C27 N2 O13 F3"
_cell_length_a       9.713605053118169
_cell_length_b       11.163808518414704
_cell_length_c       11.059181707835966
_cell_angle_alpha    83.6172552124291
_cell_angle_beta     81.65692394562781
_cell_angle_gamma    85.35094452550938

_space_group_name_H-M_alt    "P 1"
_space_group_IT_number       1

loop_
  _space_group_symop_operation_xyz
  'x, y, z'

loop_
  _atom_site_type_symbol
  _atom_site_label
  _atom_site_symmetry_multiplicity
  _atom_site_fract_x
  _atom_site_fract_y
  _atom_site_fract_z
  _atom_site_occupancy
  Zn  Zn1       1.0  0.37151548907982596  0.5065334606067536  0.5134305571006763  1.0000
  Zn  Zn2       1.0  0.6576087712086716  0.5171275068535053  0.4651807544753268  1.0000
  H   H1        1.0  0.6880999907880678  0.8925162411594768  0.3802770328969843  1.0000
  H   H2        1.0  0.22423538133140397  0.35332149052666034  0.9366857364915475  1.0000
  H   H3        1.0  0.17257477726682413  0.6534470304049123  0.3673604261694122  1.0000
  H   H4        1.0  0.11909297577032162  0.25722555374503037  0.6660731159361575  1.0000
  H   H5        1.0  0.8629676601397874  0.2584017675923249  0.6296864888733822  1.0000
  H   H6        1.0  0.8210876572814526  0.3684422442517033  0.7384990149358046  1.0000
  H   H7        1.0  0.6694517748850469  0.6211552919455416  0.8370404779985492  1.0000
  H   H8        1.0  0.6741921052184949  0.6321930596484365  0.0595471835494408  1.0000
  H   H9        1.0  0.18941090473632016  0.9767976653686788  0.6258798758912363  1.0000
  H   H10       1.0  0.3341505390687373  0.8995930702123404  0.6912757330793369  1.0000
  H   H11       1.0  0.2298340726963275  0.8184659010017871  0.6098620308117901  1.0000
  H   H12       1.0  0.593648093481299  0.20796922057328973  0.7249945461764042  1.0000
  H   H13       1.0  0.7086307564665048  0.07879173101798638  0.6847541063703134  1.0000
  H   H14       1.0  0.5597141876755528  0.06184603804188531  0.8009448634346228  1.0000
  H   H15       1.0  0.26139181770761155  0.10863880747982078  0.13539394204234872  1.0000
  H   H16       1.0  0.19321932487558505  0.16353029450883844  0.2804216851927066  1.0000
  H   H17       1.0  0.35271328335693397  0.07030175657158107  0.26568916266250403  1.0000
  H   H18       1.0  0.1140023407357873  0.48625243619545694  0.031176667918423103  1.0000
  H   H19       1.0  0.17555697246096705  0.5649867154358431  0.1432249512884809  1.0000
  H   H20       1.0  0.013165182305272097  0.49269615894317553  0.1779662586814652  1.0000
  H   H21       1.0  0.18130898471908805  0.15159380618811724  0.9374102024459817  1.0000
  H   H22       1.0  0.32874285253115687  0.055361840307576  0.8843281594580931  1.0000
  H   H23       1.0  0.27768065486527854  0.18462567059312107  0.7868144471714303  1.0000
  C   C1        1.0  0.5042154416572656  0.4945617704875929  0.7290382758088256  1.0000
  C   C2        1.0  0.5108192819491393  0.49302175677247834  0.8633298934688226  1.0000
  C   C3        1.0  0.6006925496101515  0.5672742419358912  0.9049238221134744  1.0000
  C   C4        1.0  0.6021634598436306  0.5748747912272806  0.030147746065388503  1.0000
  C   C5        1.0  0.5118150744757274  0.5107608487859921  0.1208741518636245  1.0000
  C   C6        1.0  0.42505380327722253  0.4354725232197013  0.0785906372548197  1.0000
  C   C7        1.0  0.31802433078850356  0.3401611993006597  0.1193084329864362  1.0000
  C   C8        1.0  0.3231133506142142  0.32749236586165864  0.9726871394738197  1.0000
  C   C9        1.0  0.9288042393918232  0.441583556851569  0.5601427204634106  1.0000
  C   C10       1.0  0.9627906344876817  0.5903374916999269  0.40944534557706913  1.0000
  C   C11       1.0  0.1034837830280182  0.5918474806590978  0.42522352240438727  1.0000
  C   C12       1.0  0.5478221970018566  0.2776732119155554  0.4978325442179711  1.0000
  C   C13       1.0  0.0668169742710916  0.4425094069309807  0.5785691339969716  1.0000
  C   C14       1.0  0.05275485158083627  0.3400938670927616  0.6813624725513137  1.0000
  C   C15       1.0  0.895092619543675  0.34074972137473486  0.6602421888026413  1.0000
  C   C16       1.0  0.5146066699410807  0.5202366385106246  0.2539768601487111  1.0000
  C   C17       1.0  0.4944331742465664  0.7469501590102752  0.4815914928513436  1.0000
  C   C18       1.0  0.5961879051347834  0.9442204354867415  0.42071947838485363  1.0000
  C   C19       1.0  0.48355723836593256  0.8827051481025523  0.47161677312377753  1.0000
  C   C20       1.0  0.5995405148245608  0.0738675126748731  0.4155687428304303  1.0000
  C   C21       1.0  0.5585317558384589  0.14185670641408174  0.509683374366773  1.0000
  C   C22       1.0  0.4262514673323849  0.4252587817544582  0.9541799572626032  1.0000
  C   C23       1.0  0.27321302364107675  0.9053908221105402  0.6142391780738521  1.0000
  C   C24       1.0  0.59959683586019  0.11088701198092822  0.7133820039661601  1.0000
  C   C25       1.0  0.28884039732293587  0.140952923592252  0.21873484608008203  1.0000
  C   C26       1.0  0.1200966177516349  0.48595998380937294  0.12996424273688229  1.0000
  C   C27       1.0  0.2858063516720364  0.14946716578759836  0.8828864457922592  1.0000
  N   N1        1.0  0.8724755942917426  0.5149735245887754  0.4737076545756409  1.0000
  N   N2        1.0  0.15742026388858926  0.515088674411146  0.5119000496570223  1.0000
  O   O1        1.0  0.3830085306737344  0.5056155433996709  0.6962769784856988  1.0000
  O   O2        1.0  0.6195200990378992  0.4879302136623592  0.6579978479159081  1.0000
  O   O3        1.0  0.4265999806233154  0.3244698361167409  0.5322387004818978  1.0000
  O   O4        1.0  0.657349018951649  0.33348899756608563  0.4596558123940894  1.0000
  O   O5        1.0  0.40108881888286857  0.5040013066625876  0.32542905844539405  1.0000
  O   O6        1.0  0.6300418280635894  0.5434912969857705  0.28544241047031704  1.0000
  O   O7        1.0  0.3825687554550611  0.6932846640057165  0.4860995590248365  1.0000
  O   O8        1.0  0.616506769454112  0.69647425106659  0.48416045957418413  1.0000
  O   O9        1.0  0.3580616020372318  0.9432704511109479  0.5008720612985158  1.0000
  O   O10       1.0  0.5132690941955643  0.0861308071526139  0.6245801370967428  1.0000
  O   O11       1.0  0.37347758117946467  0.24256842745459298  0.18904911051066617  1.0000
  O   O12       1.0  0.18479071663887228  0.37664183009960084  0.1811089874111786  1.0000
  O   O13       1.0  0.3802845094547393  0.21496250673710904  0.9335281135150097  1.0000
  F   F1        1.0  0.9136198627437294  0.6689417742314205  0.32325115058627324  1.0000
  F   F2        1.0  0.0670684027207784  0.373776336653492  0.7967152139950642  1.0000
  F   F3        1.0  0.6501338729629039  0.13009805022508658  0.3031408399147111  1.0000
