data_image0
_chemical_formula_structural       Zr6H4C60N18O32
_chemical_formula_sum              "Zr6 H4 C60 N18 O32"
_cell_length_a       16.569642062377202
_cell_length_b       16.569796594539756
_cell_length_c       16.573474634049862
_cell_angle_alpha    92.70383760347558
_cell_angle_beta     92.72852827180078
_cell_angle_gamma    92.71107965040828

_space_group_name_H-M_alt    "P 1"
_space_group_IT_number       1

loop_
  _space_group_symop_operation_xyz
  'x, y, z'

loop_
  _atom_site_type_symbol
  _atom_site_label
  _atom_site_symmetry_multiplicity
  _atom_site_fract_x
  _atom_site_fract_y
  _atom_site_fract_z
  _atom_site_occupancy
  Zr  Zr1       1.0  0.8004225167119899  0.9577917530008335  0.8402636300064046  1.0000
  Zr  Zr2       1.0  0.7483965730798231  0.8432984396562803  0.006950559846039479  1.0000
  Zr  Zr3       1.0  0.9998331082633103  0.9915542452263038  0.9252854097674117  1.0000
  Zr  Zr4       1.0  0.9150543879504054  0.7911556515440596  0.8924387131426885  1.0000
  Zr  Zr5       1.0  0.8334511892918429  0.0427039843825696  0.04054261110103851  1.0000
  Zr  Zr6       1.0  0.9487954601205217  0.8763694328347429  0.09169552042935437  1.0000
  H   H1        1.0  0.7493071070858972  0.7920570364211629  0.8412870900487945  1.0000
  H   H2        1.0  0.8818421830136458  0.10768021370347472  0.8955306931293947  1.0000
  H   H3        1.0  0.0649254576809142  0.8465746318868953  0.9737623480759368  1.0000
  H   H4        1.0  0.8037910325909365  0.924805145005628  0.15670226764067507  1.0000
  C   C1        1.0  0.9408262564087835  0.19653761668773484  0.5554487939476829  1.0000
  C   C2        1.0  0.9381073940586901  0.18012511969912742  0.4192444136734039  1.0000
  C   C3        1.0  0.911103346564147  0.30118077505128593  0.4784861239170581  1.0000
  C   C4        1.0  0.8162659917674661  0.6352383902393514  0.3740973425525879  1.0000
  C   C5        1.0  0.8485077475790277  0.5343048838127801  0.4549679824800634  1.0000
  C   C6        1.0  0.8243587365541885  0.6581277756878094  0.5098296488203502  1.0000
  C   C7        1.0  0.1538431544151138  0.506490706983577  0.0331681519610569  1.0000
  C   C8        1.0  0.2585732220976383  0.42957235211032696  0.003641689829315493  1.0000
  C   C9        1.0  0.1374481504949685  0.370239659730359  0.030351097213475994  1.0000
  C   C10       1.0  0.5921651283113647  0.3249516339303185  0.907930239669632  1.0000
  C   C11       1.0  0.49152720591079907  0.40604218441735906  0.9405494900680935  1.0000
  C   C12       1.0  0.615415120636321  0.4606595944362439  0.9163045678607985  1.0000
  C   C13       1.0  0.4637109602591992  0.9833724200346555  0.2457281769573001  1.0000
  C   C14       1.0  0.3867800047164351  0.9535902126972575  0.35031826808710775  1.0000
  C   C15       1.0  0.32744971412304114  0.9808410157973598  0.2293583573029778  1.0000
  C   C16       1.0  0.2821469694951588  0.8588233012843178  0.6842465797822683  1.0000
  C   C17       1.0  0.41790648608797204  0.8667088697789611  0.7071814345877598  1.0000
  C   C18       1.0  0.3630945058564947  0.8908462674983968  0.5833415655611133  1.0000
  C   C19       1.0  0.9352139838922682  0.06413280265041986  0.754752848544868  1.0000
  C   C20       1.0  0.6217540522367032  0.8792719709773424  0.8551425504085942  1.0000
  C   C21       1.0  0.8364931524801662  0.8058901895321995  0.7137620808205867  1.0000
  C   C22       1.0  0.7193508602878326  0.12280446487706342  0.9081307799207465  1.0000
  C   C23       1.0  0.81641896954617  0.762434620569316  0.1719651389694903  1.0000
  C   C24       1.0  0.12357570655109379  0.9646110083702555  0.0819963079671666  1.0000
  C   C25       1.0  0.7632912941502425  0.6645563836371196  0.9286226142508766  1.0000
  C   C26       1.0  0.662925302914104  0.9782205672387436  0.11317894180578492  1.0000
  C   C27       1.0  0.9901728815747932  0.16628666515366325  0.013573927674656318  1.0000
  C   C28       1.0  0.08001326236126967  0.859075713823337  0.8114144589716474  1.0000
  C   C29       1.0  0.021429216432991893  0.7058111036841268  0.0274166992963671  1.0000
  C   C30       1.0  0.9218182526610762  0.033010418652224906  0.21525812914997997  1.0000
  C   C31       1.0  0.20486057889797138  0.8494814779423268  0.7179086969323336  1.0000
  C   C32       1.0  0.1444802213764191  0.8487676416770712  0.7568578257138086  1.0000
  C   C33       1.0  0.48668951545575817  0.8648963233899283  0.7623570757188105  1.0000
  C   C34       1.0  0.5446163382515293  0.867856947390621  0.8104233242789648  1.0000
  C   C35       1.0  0.19885361399568782  0.9809123051928452  0.12895861906032022  1.0000
  C   C36       1.0  0.2570936677532885  0.9842504155063095  0.1766354081576225  1.0000
  C   C37       1.0  0.5392330342818354  0.9902228462993822  0.2081803937222944  1.0000
  C   C38       1.0  0.5976009297923214  0.9896752054159992  0.1664269404338796  1.0000
  C   C39       1.0  0.3797746274024476  0.93189365906548  0.4323567594991431  1.0000
  C   C40       1.0  0.37247863833854916  0.9124356583013908  0.5015865684905165  1.0000
  C   C41       1.0  0.6257672624734879  0.2476184603962679  0.8984130264826078  1.0000
  C   C42       1.0  0.6647556729144742  0.18727346576587686  0.8978170726720832  1.0000
  C   C43       1.0  0.6706460178893251  0.5293874168301614  0.9145357120206157  1.0000
  C   C44       1.0  0.7186269818540297  0.5873710993764975  0.9173359808680104  1.0000
  C   C45       1.0  0.03715423118776331  0.2415345849434374  0.0299197880265325  1.0000
  C   C46       1.0  0.0847054252847173  0.29986531140990985  0.033454123065134005  1.0000
  C   C47       1.0  0.074639629413177  0.640476377073334  0.0391192340891351  1.0000
  C   C48       1.0  0.1163321335475018  0.5820345933031988  0.039884308532244  1.0000
  C   C49       1.0  0.40984740952358567  0.4154571890386265  0.9623719813983058  1.0000
  C   C50       1.0  0.340624337948384  0.4225795503189574  0.9819668224544741  1.0000
  C   C51       1.0  0.8067942631210983  0.668926443171003  0.2968247073616368  1.0000
  C   C52       1.0  0.8061327028239731  0.7078672820895949  0.23643796778609527  1.0000
  C   C53       1.0  0.8252043890423552  0.7612288318144709  0.6365780715310265  1.0000
  C   C54       1.0  0.8225025840491823  0.7132518770171503  0.5786035512907901  1.0000
  C   C55       1.0  0.9414134998537591  0.1274331572717743  0.3488814500142752  1.0000
  C   C56       1.0  0.9380857302724978  0.07990156863090192  0.2905479285784125  1.0000
  C   C57       1.0  0.9475673070080431  0.15902184740124886  0.6309907917407996  1.0000
  C   C58       1.0  0.9468173812542703  0.1173321399141827  0.6894097039644649  1.0000
  C   C59       1.0  0.8700897796764836  0.4525210796073368  0.46426782855944276  1.0000
  C   C60       1.0  0.8894699296858022  0.3832315724281372  0.4714275462893553  1.0000
  N   N1        1.0  0.9519401280493724  0.1467894570473263  0.4906738401735923  1.0000
  N   N2        1.0  0.9179804555900687  0.2570117656906562  0.40882741020313057  1.0000
  N   N3        1.0  0.9211561751208209  0.27439349827492526  0.5538640563476066  1.0000
  N   N4        1.0  0.835364385010692  0.5574750298500887  0.378582821966944  1.0000
  N   N5        1.0  0.8445788511599517  0.5817105343023672  0.5230309105200561  1.0000
  N   N6        1.0  0.8082258677108243  0.6881800307740278  0.4371933441219937  1.0000
  N   N7        1.0  0.23175307643862203  0.5049356702134772  0.01368040173252179  1.0000
  N   N8        1.0  0.21439910479939783  0.35986872307266543  0.010457828724618402  1.0000
  N   N9        1.0  0.10405287215954219  0.4416815117913586  0.044083599801147996  1.0000
  N   N10       1.0  0.5144709452050407  0.329573845505081  0.927115728789289  1.0000
  N   N11       1.0  0.5390955472296355  0.4739933483107492  0.9367729252467996  1.0000
  N   N12       1.0  0.645243711712901  0.3879943794180178  0.8999244109891222  1.0000
  N   N13       1.0  0.4621589597804102  0.96353259693025  0.3234981762601166  1.0000
  N   N14       1.0  0.31708545659626  0.9606451547635403  0.3062360305755263  1.0000
  N   N15       1.0  0.39887774417190497  0.9946623800547131  0.196042716959056  1.0000
  N   N16       1.0  0.3452439556943929  0.850730129816867  0.7372169522058697  1.0000
  N   N17       1.0  0.4311401059958441  0.8868336224463748  0.6307788859356266  1.0000
  N   N18       1.0  0.2866770206646835  0.8778451868136088  0.6064727874482756  1.0000
  O   O1        1.0  0.9933205865752935  0.05574055782831521  0.8058189712489962  1.0000
  O   O2        1.0  0.6330970095468728  0.8482605389157668  0.9230620240248939  1.0000
  O   O3        1.0  0.8053684248061472  0.8737597932949728  0.7250864178814496  1.0000
  O   O4        1.0  0.7292611009417626  0.07304495488768482  0.8493986147370761  1.0000
  O   O5        1.0  0.7544985334757826  0.12477630324671912  0.9788120207632645  1.0000
  O   O6        1.0  0.878506422323042  0.7683690211591525  0.7656058478658494  1.0000
  O   O7        1.0  0.6735897987881857  0.9212335209660838  0.8176058116480647  1.0000
  O   O8        1.0  0.8638524267725174  0.030695513364108307  0.7540798889947737  1.0000
  O   O9        1.0  0.7746506169664827  0.9553527747692386  0.9618729579791463  1.0000
  O   O10       1.0  0.9125057535176709  0.9128035856749861  0.866591973102743  1.0000
  O   O11       1.0  0.7848425463289814  0.8275942409853844  0.8767870863195526  1.0000
  O   O12       1.0  0.8796609099114006  0.05316462425617632  0.9145500146735799  1.0000
  O   O13       1.0  0.7576199588085332  0.7723518221785856  0.12222886531659331  1.0000
  O   O14       1.0  0.11257764281333489  0.9943730986410699  0.013403812568753889  1.0000
  O   O15       1.0  0.8311895411666298  0.6758570511061491  0.8975973210293163  1.0000
  O   O16       1.0  0.7139611321404757  0.036316482421668204  0.10480682366355148  1.0000
  O   O17       1.0  0.9216131740106522  0.15533724035957872  0.0433561622733478  1.0000
  O   O18       1.0  0.030309936272281807  0.8003192756991455  0.8214219726337717  1.0000
  O   O19       1.0  0.013025595230459408  0.7569391008445694  0.08541635677502062  1.0000
  O   O20       1.0  0.9516810058147342  0.9644682479460304  0.2042682391022836  1.0000
  O   O21       1.0  0.9879899916426779  0.7050514734413156  0.9560507382750031  1.0000
  O   O22       1.0  0.8749072323368027  0.06802537148549702  0.1656870630054428  1.0000
  O   O23       1.0  0.725717769160987  0.7164434475924468  0.9705163970757482  1.0000
  O   O24       1.0  0.08195219871755202  0.9298245284160277  0.8464453495606038  1.0000
  O   O25       1.0  0.0251617632413925  0.11669150699600556  0.9666797534487515  1.0000
  O   O26       1.0  0.6622366858884662  0.9068730260710609  0.07966912304910778  1.0000
  O   O27       1.0  0.8871104368687173  0.7975441810930448  0.173897099476072  1.0000
  O   O28       1.0  0.0739825851526632  0.9177675114552174  0.11702418759825409  1.0000
  O   O29       1.0  0.9404634261152294  0.9833135232999414  0.032239165856793796  1.0000
  O   O30       1.0  0.8700504786564593  0.8175624536166523  0.004440072184799194  1.0000
  O   O31       1.0  0.010398966409361787  0.865579128773895  0.9716124682076952  1.0000
  O   O32       1.0  0.8227611450976299  0.9226267507128656  0.1021832244679359  1.0000
