data_image0
_chemical_formula_structural       Hg2H36C44N8Cl4
_chemical_formula_sum              "Hg2 H36 C44 N8 Cl4"
_cell_length_a       11.195330838154254
_cell_length_b       11.195241442218633
_cell_length_c       14.55828375324503
_cell_angle_alpha    105.36638659790964
_cell_angle_beta     105.36680575272527
_cell_angle_gamma    100.15558788314628

_space_group_name_H-M_alt    "P 1"
_space_group_IT_number       1

loop_
  _space_group_symop_operation_xyz
  'x, y, z'

loop_
  _atom_site_type_symbol
  _atom_site_label
  _atom_site_symmetry_multiplicity
  _atom_site_fract_x
  _atom_site_fract_y
  _atom_site_fract_z
  _atom_site_occupancy
  Hg  Hg1       1.0  0.6254588387145289  0.3745445504629572  0.7500015584096003  1.0000
  Hg  Hg2       1.0  0.3745426180130026  0.6254554099944869  0.2499971349795871  1.0000
  H   H1        1.0  0.3071047683589754  0.31803203923929146  0.7449019417825439  1.0000
  H   H2        1.0  0.6819636525026028  0.6928957411082878  0.755099447599413  1.0000
  H   H3        1.0  0.6929031792085568  0.6819679628633677  0.2550994682553521  1.0000
  H   H4        1.0  0.3180359358472771  0.3071041935826031  0.24490160401853694  1.0000
  H   H5        1.0  0.10182771009097281  0.3446031858935541  0.7771975284441197  1.0000
  H   H6        1.0  0.6553953999704804  0.8981746735167062  0.7228026465437479  1.0000
  H   H7        1.0  0.8981812392325849  0.6554006681709978  0.222802818635536  1.0000
  H   H8        1.0  0.344601847909793  0.101823338245957  0.2771947810777746  1.0000
  H   H9        1.0  0.1004109535283249  0.5313489790400538  0.9112408314048608  1.0000
  H   H10       1.0  0.46864986273919124  0.8995923375462662  0.588757542808885  1.0000
  H   H11       1.0  0.8995956492654003  0.4686529460290527  0.08875726298453653  1.0000
  H   H12       1.0  0.5313471309144406  0.10040470743390982  0.4112410076185497  1.0000
  H   H13       1.0  0.30241913511862606  0.7029488849846428  0.01882359539407471  1.0000
  H   H14       1.0  0.2970474431067771  0.6975818948114564  0.48117590773239266  1.0000
  H   H15       1.0  0.6975858535241031  0.2970539811003973  0.9811757344181656  1.0000
  H   H16       1.0  0.7029476791390934  0.30241512136856125  0.5188256865768749  1.0000
  H   H17       1.0  0.719445703479991  0.6481280439108444  0.9624702299330039  1.0000
  H   H18       1.0  0.35187304692185245  0.28055354107478786  0.5375274921573023  1.0000
  H   H19       1.0  0.28055792523837647  0.35187672997260927  0.03752921249616746  1.0000
  H   H20       1.0  0.6481265474882535  0.7194463996833135  0.4624721881544716  1.0000
  H   H21       1.0  0.6947450526143372  0.8214769181153727  0.09615476929149482  1.0000
  H   H22       1.0  0.17852098102403602  0.3052554083181462  0.4038459091070409  1.0000
  H   H23       1.0  0.30525602473409214  0.17852878086712562  0.9038477733279746  1.0000
  H   H24       1.0  0.8214774280007049  0.6947435558078112  0.5961553874719455  1.0000
  H   H25       1.0  0.5558982883606659  0.7885502839041081  0.131229527051694  1.0000
  H   H26       1.0  0.21144721999640131  0.4441020940598577  0.3687699920886018  1.0000
  H   H27       1.0  0.44410113454055994  0.21145254431817043  0.8687679639567206  1.0000
  H   H28       1.0  0.7885486467487368  0.5558978042659604  0.6312323477214362  1.0000
  H   H29       1.0  0.46693905574121436  0.964042909723787  0.15400059118330486  1.0000
  H   H30       1.0  0.03595289913742052  0.5330650152272867  0.3460004622406672  1.0000
  H   H31       1.0  0.5330614819480461  0.035957053018414314  0.8459958530548448  1.0000
  H   H32       1.0  0.964041288919617  0.46693198806945446  0.6540023111829852  1.0000
  H   H33       1.0  0.6093055927404977  0.864992072533866  0.9040464012396328  1.0000
  H   H34       1.0  0.13500860198295334  0.3906926154118651  0.5959526121832823  1.0000
  H   H35       1.0  0.39069611821368266  0.1350088547060651  0.09595116934364256  1.0000
  H   H36       1.0  0.8649888728529691  0.6093063358308087  0.4040498635100818  1.0000
  C   C1        1.0  0.4187593994716039  0.49685025097800667  0.8639034415986087  1.0000
  C   C2        1.0  0.5031494338428502  0.5812409084682955  0.6360998632244659  1.0000
  C   C3        1.0  0.5812465021491705  0.5031526067550587  0.1360995086708456  1.0000
  C   C4        1.0  0.49684661653162016  0.4187561145277812  0.3639019232766002  1.0000
  C   C5        1.0  0.305258482752734  0.4015459007100901  0.8032044695770111  1.0000
  C   C6        1.0  0.5984488716032318  0.6947408395872684  0.6967941238893828  1.0000
  C   C7        1.0  0.6947441593601554  0.5984550363795053  0.1967926075449782  1.0000
  C   C8        1.0  0.401547249368555  0.3052600255210365  0.30320709311473587  1.0000
  C   C9        1.0  0.19235641293741418  0.4170095413477312  0.8222735029199697  1.0000
  C   C10       1.0  0.5829869855011438  0.8076421431410947  0.6777282737684444  1.0000
  C   C11       1.0  0.8076499295694434  0.5829914108716849  0.17772708558151604  1.0000
  C   C12       1.0  0.4170102502586844  0.19235585648713283  0.3222718964654163  1.0000
  C   C13       1.0  0.19125890908537  0.5243530484334186  0.8990854578318872  1.0000
  C   C14       1.0  0.47564208770084804  0.8087421949692767  0.6009147990440623  1.0000
  C   C15       1.0  0.8087471913152842  0.475646949137939  0.10091351086317245  1.0000
  C   C16       1.0  0.5243537881346256  0.1912577124573644  0.39908548380672215  1.0000
  C   C17       1.0  0.30322601114803405  0.6205319712371492  0.9592525686643965  1.0000
  C   C18       1.0  0.37946680890079426  0.6967769526895253  0.5407523099805758  1.0000
  C   C19       1.0  0.6967796453364272  0.3794699288142596  0.04074944745171644  1.0000
  C   C20       1.0  0.620530911071441  0.3032229562348191  0.4592510998661296  1.0000
  C   C21       1.0  0.4163798707332731  0.6046034531716772  0.9403004681194175  1.0000
  C   C22       1.0  0.3953923605463602  0.5836208578484587  0.5597003637237349  1.0000
  C   C23       1.0  0.5836255466751014  0.39539749526527873  0.05969924253719235  1.0000
  C   C24       1.0  0.604602329903756  0.4163780729460313  0.44030153539426203  1.0000
  C   C25       1.0  0.6156110286796732  0.6136256185205227  0.940001568966977  1.0000
  C   C26       1.0  0.38637311320190554  0.3843858003667364  0.5599990475891232  1.0000
  C   C27       1.0  0.3843930257742302  0.38637723468124097  0.05999893995964097  1.0000
  C   C28       1.0  0.6136252958228425  0.6156131637592213  0.4400022489898631  1.0000
  C   C29       1.0  0.5893175842124946  0.7993750435308582  0.06861219981522027  1.0000
  C   C30       1.0  0.20062010461550273  0.41068392883300203  0.4313871474654007  1.0000
  C   C31       1.0  0.4106843658177795  0.2006268353235114  0.9313876762275652  1.0000
  C   C32       1.0  0.7993776183868422  0.5893159831249477  0.56861557672822  1.0000
  C   C33       1.0  0.5438948276819318  0.9040006595034031  0.03337479974312179  1.0000
  C   C34       1.0  0.0959984514793746  0.45610283626259474  0.4666240397384485  1.0000
  C   C35       1.0  0.45610341589414827  0.09600119815393526  0.9666229362263292  1.0000
  C   C36       1.0  0.9039976049553148  0.5438941928006926  0.5333763754564484  1.0000
  C   C37       1.0  0.48128057636930777  0.9799148363416633  0.08638888992569346  1.0000
  C   C38       1.0  0.0200810404446798  0.5187208789066132  0.4136102605589684  1.0000
  C   C39       1.0  0.5187185398886172  0.020083201187546296  0.9136061794670738  1.0000
  C   C40       1.0  0.9799122285740866  0.48127612667489217  0.5863902637136391  1.0000
  C   C41       1.0  0.5620421918308907  0.9246584955358941  0.9467828749226681  1.0000
  C   C42       1.0  0.0753381029660147  0.43795426325773684  0.5532152486051274  1.0000
  C   C43       1.0  0.43795623840463804  0.0753404898253081  0.05321362208473349  1.0000
  C   C44       1.0  0.92465608509103  0.5620427400390041  0.446787524818518  1.0000
  N   N1        1.0  0.5435537463339699  0.6765039840877094  0.9871543035217343  1.0000
  N   N2        1.0  0.32349167189142497  0.4564481409878809  0.5128462428640148  1.0000
  N   N3        1.0  0.4564521613470235  0.3234988797125737  0.012847275441544117  1.0000
  N   N4        1.0  0.6765030185586911  0.5435507898066093  0.4871556562539753  1.0000
  N   N5        1.0  0.545062304606205  0.5059025626325209  0.8665603793476251  1.0000
  N   N6        1.0  0.4940970494434467  0.45493807186533525  0.6334392182956065  1.0000
  N   N7        1.0  0.4549429261427208  0.49410125810057093  0.13344057027104134  1.0000
  N   N8        1.0  0.5059011144449812  0.5450599345789585  0.3665611441300385  1.0000
  Cl  Cl1       1.0  0.8443385050103205  0.5054334061067253  0.808196209343606  1.0000
  Cl  Cl2       1.0  0.4945640135238846  0.15566562394286618  0.6918082046142757  1.0000
  Cl  Cl3       1.0  0.15566448315045278  0.4945617590881282  0.19180456073202373  1.0000
  Cl  Cl4       1.0  0.5054240942649956  0.8443400038836302  0.30818616209545263  1.0000
