data_image0
_chemical_formula_structural       Ni3H60C60N6O24
_chemical_formula_sum              "Ni3 H60 C60 N6 O24"
_cell_length_a       8.105293143916152
_cell_length_b       16.930646854388897
_cell_length_c       16.93061817011437
_cell_angle_alpha    119.9815713498589
_cell_angle_beta     90.00176187451764
_cell_angle_gamma    90.00059683991917

_space_group_name_H-M_alt    "P 1"
_space_group_IT_number       1

loop_
  _space_group_symop_operation_xyz
  'x, y, z'

loop_
  _atom_site_type_symbol
  _atom_site_label
  _atom_site_symmetry_multiplicity
  _atom_site_fract_x
  _atom_site_fract_y
  _atom_site_fract_z
  _atom_site_occupancy
  Ni  Ni1       1.0  0.6664688860695805  4.798522866161094e-05  0.5138622835159053  1.0000
  Ni  Ni2       1.0  0.3335528267015704  0.5138360357237985  4.195449674436159e-05  1.0000
  Ni  Ni3       1.0  0.9999761684891554  0.48610651025848745  0.48610214089060133  1.0000
  H   H1        1.0  0.38925562855941837  0.31725666545320763  0.7718009527302172  1.0000
  H   H2        1.0  0.5640458000385921  0.0881596436444666  0.7938369091839946  1.0000
  H   H3        1.0  0.4609085382744524  0.16337178215232465  0.954355743132524  1.0000
  H   H4        1.0  0.9527229736201831  0.034474888479358874  0.43032256830473153  1.0000
  H   H5        1.0  0.32636532642802507  0.13809936816830518  0.482942762773135  1.0000
  H   H6        1.0  0.1775772173232468  0.21427134680521928  0.4775213379147729  1.0000
  H   H7        1.0  0.16391998397377716  0.09452239780569724  0.3997353116240134  1.0000
  H   H8        1.0  0.2370797899111423  0.1897169462053867  0.6510627318136031  1.0000
  H   H9        1.0  0.019373392349876898  0.19036328027983276  0.6691266026148526  1.0000
  H   H10       1.0  0.10843147261900299  0.2711343433419628  0.6421724590910358  1.0000
  H   H11       1.0  0.05628583547837711  0.45443985767158074  0.6828090501389213  1.0000
  H   H12       1.0  0.2310895645184914  0.7056190670481398  0.9116613565922478  1.0000
  H   H13       1.0  0.1277405901733601  0.7907720885642037  0.8362972693931  1.0000
  H   H14       1.0  0.6197535258453399  0.39585471901628466  0.9656404294604215  1.0000
  H   H15       1.0  0.9930720657830461  0.3446496878689799  0.8618790554833423  1.0000
  H   H16       1.0  0.8442711441413877  0.2630825093857538  0.7857540392111702  1.0000
  H   H17       1.0  0.830579955309922  0.3050991761455891  0.905530171527218  1.0000
  H   H18       1.0  0.9035125721046242  0.4611246498440805  0.8100052829462641  1.0000
  H   H19       1.0  0.6857301775297627  0.47821809687232525  0.8091891981202791  1.0000
  H   H20       1.0  0.7752202561853706  0.3705836222814014  0.7286735588444628  1.0000
  H   H21       1.0  0.7225250589095754  0.22823580292580198  0.5454715502483083  1.0000
  H   H22       1.0  0.8975722617013061  0.20618680940845727  0.29438621939085863  1.0000
  H   H23       1.0  0.7938969776282009  0.04577704045061639  0.20910075471174852  1.0000
  H   H24       1.0  0.2864200561782795  0.5696831528451864  0.6038883312423452  1.0000
  H   H25       1.0  0.659616456943212  0.5172100535006835  0.655300595582368  1.0000
  H   H26       1.0  0.5108354536417608  0.5227312582700635  0.7369195996286636  1.0000
  H   H27       1.0  0.49712551535677824  0.6004020795766607  0.6947834323475917  1.0000
  H   H28       1.0  0.5700788502016179  0.3488956683719735  0.5392246068775323  1.0000
  H   H29       1.0  0.3523204442658709  0.3309656741567508  0.5218735632648546  1.0000
  H   H30       1.0  0.4413036464870572  0.3582141658470519  0.6296665008585336  1.0000
  H   H31       1.0  0.6107758668322135  0.7717834202769751  0.3172654577516739  1.0000
  H   H32       1.0  0.4358650162713786  0.7938187836431823  0.08818807088242417  1.0000
  H   H33       1.0  0.5389402915801896  0.9543500054142343  0.16340126862245116  1.0000
  H   H34       1.0  0.04727330313451011  0.43032631870178756  0.034459239593516613  1.0000
  H   H35       1.0  0.6736557999025479  0.48294210525236986  0.13805766159604357  1.0000
  H   H36       1.0  0.8224048352168438  0.4775388069920226  0.21426285272415413  1.0000
  H   H37       1.0  0.8361083333353818  0.39974581168229417  0.09451421403471019  1.0000
  H   H38       1.0  0.7631217477644086  0.6511267234919202  0.18957848422795118  1.0000
  H   H39       1.0  0.980893070272856  0.6691142581441838  0.19046839986621222  1.0000
  H   H40       1.0  0.8913054191731788  0.6421614966362696  0.2711201770153053  1.0000
  H   H41       1.0  0.9437167719010374  0.682807331698136  0.4544297323374451  1.0000
  H   H42       1.0  0.769096624807922  0.9117037115974895  0.7056167262209102  1.0000
  H   H43       1.0  0.8724620357580335  0.8363386288744151  0.7907755841237147  1.0000
  H   H44       1.0  0.38022981366421504  0.9656758206242982  0.3959269745762699  1.0000
  H   H45       1.0  0.006906214117663001  0.8618819435991868  0.34469540367300777  1.0000
  H   H46       1.0  0.15572170647656952  0.7858013730953104  0.26312065426922987  1.0000
  H   H47       1.0  0.16938368712116167  0.9055772060684859  0.305173355166403  1.0000
  H   H48       1.0  0.09643007959103038  0.8099190664182175  0.46105473279866516  1.0000
  H   H49       1.0  0.314193400719084  0.8092200025871323  0.478291820577269  1.0000
  H   H50       1.0  0.22493996466469213  0.7286651510751695  0.3705947300655979  1.0000
  H   H51       1.0  0.27742330728877823  0.5454547005953927  0.22823878229039718  1.0000
  H   H52       1.0  0.1022626109347016  0.29437723457796494  0.20616596861148648  1.0000
  H   H53       1.0  0.2059155814098474  0.20908754929021  0.04576329632062941  1.0000
  H   H54       1.0  0.7136494168924302  0.6039602822692984  0.5697085416048964  1.0000
  H   H55       1.0  0.34047024831296824  0.655415108621689  0.5172998297621517  1.0000
  H   H56       1.0  0.4892695935915867  0.7370163715232465  0.5227856578728236  1.0000
  H   H57       1.0  0.5030204551455242  0.6948777859635128  0.6004575115535857  1.0000
  H   H58       1.0  0.4298137107759814  0.5393695729444445  0.348982153653978  1.0000
  H   H59       1.0  0.6475287337372251  0.5218850217407507  0.33099159454135935  1.0000
  H   H60       1.0  0.5587718582028814  0.6297256612022011  0.35824155953591946  1.0000
  C   C1        1.0  0.4860540433059697  0.19798130039037432  0.772800482225847  1.0000
  C   C2        1.0  0.4021313918333433  0.2807669153544553  0.8092618461818902  1.0000
  C   C3        1.0  0.36150068147905057  0.28035562542056863  0.9524956964554433  1.0000
  C   C4        1.0  0.5010030587639778  0.15370385185591573  0.8238098851168518  1.0000
  C   C5        1.0  0.333328046423219  0.32149951769098095  0.8974782971776705  1.0000
  C   C6        1.0  0.4412975149496461  0.195606123334457  0.9130841499720361  1.0000
  C   C7        1.0  0.5695476484875216  0.16214018900302551  0.6809529176066461  1.0000
  C   C8        1.0  0.9668537643304945  0.0780340675041914  0.5044772866544208  1.0000
  C   C9        1.0  0.19668164501615593  0.14642846480517588  0.46957885458316184  1.0000
  C   C10       1.0  0.1154695517316924  0.20124234495567342  0.6302641993865946  1.0000
  C   C11       1.0  0.15299414881587842  0.5747441841519958  0.8019833544068717  1.0000
  C   C12       1.0  0.06901112887268822  0.5283686937830936  0.7192200413487129  1.0000
  C   C13       1.0  0.0281404347011502  0.6719186730680776  0.7194865022796791  1.0000
  C   C14       1.0  0.16793807198107663  0.6700026669584743  0.8461553549930301  1.0000
  C   C15       1.0  1.7592685743800008e-05  0.5757789073394977  0.6784322590614809  1.0000
  C   C16       1.0  0.10809776641027473  0.7173020135560506  0.8041831130399828  1.0000
  C   C17       1.0  0.2365545084165532  0.5188005019375481  0.8379045404990819  1.0000
  C   C18       1.0  0.6337883216068078  0.4263855718675841  0.9220057905532784  1.0000
  C   C19       1.0  0.8633811578854562  0.32297986613749424  0.8535615821431719  1.0000
  C   C20       1.0  0.7820445497684075  0.4286684324852601  0.7984929818824114  1.0000
  C   C21       1.0  0.8194914737376848  0.22722076141745623  0.4252142546495818  1.0000
  C   C22       1.0  0.7353704811971794  0.1908007956628808  0.4715444238320714  1.0000
  C   C23       1.0  0.6944494122744871  0.0476396329672539  0.32793767738839114  1.0000
  C   C24       1.0  0.834348301458661  0.17623899789063563  0.3299530244069615  1.0000
  C   C25       1.0  0.6663815030099799  0.10263349791382131  0.4240816130290526  1.0000
  C   C26       1.0  0.7743756566580445  0.08702146053033742  0.2825899683583373  1.0000
  C   C27       1.0  0.903160088948546  0.31899347046597637  0.48116619779059994  1.0000
  C   C28       1.0  0.30038866892545707  0.49555003837179623  0.573480706541055  1.0000
  C   C29       1.0  0.529930472025015  0.5305832689717889  0.6769685590601142  1.0000
  C   C30       1.0  0.4484843028652179  0.3698494609853285  0.5715084265378964  1.0000
  C   C31       1.0  0.5139047931448745  0.7727814059495869  0.1980013745099783  1.0000
  C   C32       1.0  0.5978544941711945  0.8092498910382916  0.28078469645498677  1.0000
  C   C33       1.0  0.6384169781860365  0.952497644150597  0.2803772397679367  1.0000
  C   C34       1.0  0.49893137605713633  0.8237964871311262  0.1537302939616581  1.0000
  C   C35       1.0  0.6666260628232763  0.8974815919088358  0.3215224633918298  1.0000
  C   C36       1.0  0.5585978308931487  0.9130856537052664  0.19563533815487943  1.0000
  C   C37       1.0  0.43043067822993214  0.6809253444572292  0.1621536679643399  1.0000
  C   C38       1.0  0.033153460980287305  0.5044785787625019  0.07802018606828659  1.0000
  C   C39       1.0  0.8033318752486025  0.4695886247756889  0.14641013981812281  1.0000
  C   C40       1.0  0.884590965441767  0.6302727210523216  0.2012271078862113  1.0000
  C   C41       1.0  0.8470872733383035  0.8020016655915826  0.5747407179324854  1.0000
  C   C42       1.0  0.9310317377417193  0.7192220605728109  0.5283556102123228  1.0000
  C   C43       1.0  0.971935414448538  0.7194945973447133  0.6719111460686237  1.0000
  C   C44       1.0  0.8322144010480487  0.8461805663369192  0.6700001200271687  1.0000
  C   C45       1.0  2.346285808130001e-05  0.6784331570491278  0.5757634908722126  1.0000
  C   C46       1.0  0.8920413517089901  0.804205715502384  0.7173036845857085  1.0000
  C   C47       1.0  0.7635520095645207  0.8379173360399578  0.5187928615822059  1.0000
  C   C48       1.0  0.3662043549848519  0.9220119722568115  0.4264347418472598  1.0000
  C   C49       1.0  0.1366008396725036  0.8535919967402847  0.3230305657978505  1.0000
  C   C50       1.0  0.21795924182619333  0.7984835647273981  0.4286814039044557  1.0000
  C   C51       1.0  0.1804346952049087  0.4251877330577258  0.22721324946793692  1.0000
  C   C52       1.0  0.26457459654935894  0.4715168031102692  0.19079287789210755  1.0000
  C   C53       1.0  0.3054568789920041  0.3279207926845018  0.0476380341150248  1.0000
  C   C54       1.0  0.16552504645014918  0.32993712194721075  0.17623102620578388  1.0000
  C   C55       1.0  0.33356547021643485  0.42405034452290374  0.10262723549194425  1.0000
  C   C56       1.0  0.2254896781719467  0.2825775896992795  0.08701822221271271  1.0000
  C   C57       1.0  0.09676220829159381  0.4811505220376944  0.31898946867242733  1.0000
  C   C58       1.0  0.6996259753978792  0.5735388271656775  0.4955826229032427  1.0000
  C   C59       1.0  0.4701650576223741  0.6770671396721823  0.5306482853868104  1.0000
  C   C60       1.0  0.5514696384392508  0.5715783671362119  0.3698896284627154  1.0000
  N   N1        1.0  0.08997983987705989  0.13722792981589294  0.5336270671529348  1.0000
  N   N2        1.0  0.7567105469448876  0.39619431428381097  0.8626814667762376  1.0000
  N   N3        1.0  0.42323179875022277  0.46646661477234375  0.603785537410687  1.0000
  N   N4        1.0  0.9100618168745387  0.5336357150972548  0.13722082215832646  1.0000
  N   N5        1.0  0.24327849492743076  0.862694848683333  0.39624308024416194  1.0000
  N   N6        1.0  0.5768014021404254  0.6038651717009742  0.4665125293990331  1.0000
  O   O1        1.0  0.6253684421219602  0.21813702837555848  0.6608642548901216  1.0000
  O   O2        1.0  0.2387281570903497  0.3952301308991509  0.9274813306065541  1.0000
  O   O3        1.0  0.5717812999328231  0.07342385742475689  0.6344055412443909  1.0000
  O   O4        1.0  0.8679538505179352  0.07000945672965034  0.5580071283923971  1.0000
  O   O5        1.0  0.292215845257182  0.44269367153651024  0.7819538670902162  1.0000
  O   O6        1.0  0.9053711458021355  0.5320379612985063  0.6047346963261688  1.0000
  O   O7        1.0  0.2390391674223764  0.5610406524469838  0.9266272828844182  1.0000
  O   O8        1.0  0.5350149664820449  0.4879757500508362  0.9300429778336508  1.0000
  O   O9        1.0  0.9590969491214167  0.33902931214590387  0.5571969542976519  1.0000
  O   O10       1.0  0.5717080484110538  0.07262689465703433  0.467803244078496  1.0000
  O   O11       1.0  0.9054372063807322  0.3655405630181079  0.43896966598128984  1.0000
  O   O12       1.0  0.20159764513307726  0.44198253239178337  0.5119177184671245  1.0000
  O   O13       1.0  0.3745397837601772  0.6608532711364461  0.21813303324513114  1.0000
  O   O14       1.0  0.7612548392819747  0.9274933370523896  0.39524962827685794  1.0000
  O   O15       1.0  0.4282877676691967  0.6343732956000493  0.07343114666296205  1.0000
  O   O16       1.0  0.1320613908341315  0.5580027879150647  0.06998385547389323  1.0000
  O   O17       1.0  0.7079210895914088  0.7819736142529977  0.4426826021152409  1.0000
  O   O18       1.0  0.09463884453751349  0.6047249424676338  0.532021164166956  1.0000
  O   O19       1.0  0.7610233189263128  0.9266478557136111  0.5610627642367733  1.0000
  O   O20       1.0  0.4650286533292558  0.9300304149366454  0.48800898257750464  1.0000
  O   O21       1.0  0.04087983340029671  0.5571843244301959  0.3390339216679763  1.0000
  O   O22       1.0  0.4282567551176726  0.4677757567086616  0.0726394347195765  1.0000
  O   O23       1.0  0.0944457866695672  0.4389384627287  0.36552513110429175  1.0000
  O   O24       1.0  0.7983419994229237  0.5119392136830712  0.44200155191209944  1.0000
