data_image0
_chemical_formula_structural       Mn2H28C28N16O8
_chemical_formula_sum              "Mn2 H28 C28 N16 O8"
_cell_length_a       8.11601815669935
_cell_length_b       7.865336125050332
_cell_length_c       12.87387497005217
_cell_angle_alpha    89.99976384007283
_cell_angle_beta     98.27444674890737
_cell_angle_gamma    89.99983593491072

_space_group_name_H-M_alt    "P 1"
_space_group_IT_number       1

loop_
  _space_group_symop_operation_xyz
  'x, y, z'

loop_
  _atom_site_type_symbol
  _atom_site_label
  _atom_site_symmetry_multiplicity
  _atom_site_fract_x
  _atom_site_fract_y
  _atom_site_fract_z
  _atom_site_occupancy
  Mn  Mn1       1.0  0.004698749000169796  0.0029472270449701996  0.9988718226744308  1.0000
  Mn  Mn2       1.0  0.49532511139403823  0.5029550633616892  0.0011385654721322884  1.0000
  H   H1        1.0  0.9194413821742701  0.3678919797628453  0.9505973593237798  1.0000
  H   H2        1.0  0.5805630586135635  0.8679016987815089  0.049404257093257783  1.0000
  H   H3        1.0  0.07514664362720681  0.6295710829225242  0.04428396046468209  1.0000
  H   H4        1.0  0.42487197924136677  0.1295651403324384  0.9557254614293097  1.0000
  H   H5        1.0  0.9732333017977981  0.5805186442641173  0.8168932687093643  1.0000
  H   H6        1.0  0.5267567216820411  0.08053545190801258  0.18310525071749587  1.0000
  H   H7        1.0  0.021974512933454107  0.41903968566916205  0.1787790147423962  1.0000
  H   H8        1.0  0.47805969064879866  0.919030473446284  0.8212297077390003  1.0000
  H   H9        1.0  0.1501594027501199  0.17084093924042779  0.6397387058207257  1.0000
  H   H10       1.0  0.3498265652023562  0.6708511964910497  0.36025773435871844  1.0000
  H   H11       1.0  0.8560944962832482  0.8326688780233908  0.3576246490060129  1.0000
  H   H12       1.0  0.6438863148244708  0.33267263030094085  0.642372824095041  1.0000
  H   H13       1.0  0.07989249065656881  0.9707737057505668  0.7778811640665706  1.0000
  H   H14       1.0  0.4201140321739914  0.4707834484142524  0.22211572233010904  1.0000
  H   H15       1.0  0.9289998055076939  0.031061669444618197  0.21946341450286863  1.0000
  H   H16       1.0  0.5709829877929593  0.5310595918739053  0.7805417041235216  1.0000
  H   H17       1.0  0.22841581636510713  0.8448208875256071  0.604848518997535  1.0000
  H   H18       1.0  0.2715799277895599  0.34484111958090585  0.3951565469418055  1.0000
  H   H19       1.0  0.7708171738739581  0.1604752662327371  0.3920386755333566  1.0000
  H   H20       1.0  0.7291651706214141  0.6604702802459455  0.6079565405408544  1.0000
  H   H21       1.0  0.009389806879411803  0.8993658376441047  0.5795482052120136  1.0000
  H   H22       1.0  0.49060816167834537  0.39938114515735634  0.42044904801714  1.0000
  H   H23       1.0  0.9890341336290052  0.10449235775875822  0.4219095150806352  1.0000
  H   H24       1.0  0.5109484793708958  0.6045024740799646  0.5780937265770447  1.0000
  H   H25       1.0  0.0970379927304705  0.7443348353732375  0.5001578346071935  1.0000
  H   H26       1.0  0.4029639643004971  0.24434021136632816  0.4998372932518576  1.0000
  H   H27       1.0  0.8980171969089881  0.2604095376223867  0.4989671978977625  1.0000
  H   H28       1.0  0.6019700325566221  0.7604092215041477  0.5010334416856493  1.0000
  C   C1        1.0  0.9708413009892425  0.32843653369928205  0.8809528758564722  1.0000
  C   C2        1.0  0.5291580854090725  0.8284514261358993  0.1190407185473035  1.0000
  C   C3        1.0  0.027935532558473104  0.6708687784476622  0.11499613793179007  1.0000
  C   C4        1.0  0.4720792713130351  0.17087039905506168  0.8850127936480517  1.0000
  C   C5        1.0  0.0009604543550735989  0.44680388452663067  0.8062393456024706  1.0000
  C   C6        1.0  0.4990360644606469  0.9468201624230801  0.19375215035214666  1.0000
  C   C7        1.0  0.9981926218982836  0.5533774216432976  0.19031651493985885  1.0000
  C   C8        1.0  0.5018373740284829  0.053368760152039806  0.8096893194765611  1.0000
  C   C9        1.0  0.0712992558029626  0.39298157665549377  0.7187162150509179  1.0000
  C   C10       1.0  0.4286974034084139  0.893006892289122  0.281277072182874  1.0000
  C   C11       1.0  0.9311332319165972  0.6089936682369127  0.2786166985662248  1.0000
  C   C12       1.0  0.5688855077608466  0.10900141459573119  0.7213910755733436  1.0000
  C   C13       1.0  0.09837506733305901  0.21834435962500007  0.707615066261333  1.0000
  C   C14       1.0  0.4016170753599084  0.7183697799956619  0.292384017272802  1.0000
  C   C15       1.0  0.906331132107539  0.7840377285430832  0.2894862515139707  1.0000
  C   C16       1.0  0.5936697751800043  0.2840479234167432  0.7105169774484849  1.0000
  C   C17       1.0  0.061681056346067506  0.1071208869548457  0.7844764609678874  1.0000
  C   C18       1.0  0.4383211179083021  0.6071361354715492  0.21551615373616068  1.0000
  C   C19       1.0  0.9439083728132617  0.8943051054920943  0.2123493523111293  1.0000
  C   C20       1.0  0.5560824275478639  0.3943102190210226  0.7876564591402014  1.0000
  C   C21       1.0  0.12038953574059261  0.5138867436562649  0.6402491993485953  1.0000
  C   C22       1.0  0.3796054200271399  0.013907808942796902  0.35974631515534833  1.0000
  C   C23       1.0  0.8807844517438567  0.489530273004668  0.3575518046295512  1.0000
  C   C24       1.0  0.6192285030079178  0.9895346363437482  0.6424523380043893  1.0000
  C   C25       1.0  0.10179831171441835  0.7982637706508199  0.5788250181805805  1.0000
  C   C26       1.0  0.39819978516604937  0.2982731635659235  0.4211687860927355  1.0000
  C   C27       1.0  0.8969101620211719  0.20629496857769417  0.42062646216960786  1.0000
  C   C28       1.0  0.6030808661110214  0.7062919252443295  0.5793723893671652  1.0000
  N   N1        1.0  0.1314929711741684  0.1722134565208293  0.08834943743060818  1.0000
  N   N2        1.0  0.3685150946344677  0.6722134637594337  0.9116332941092862  1.0000
  N   N3        1.0  0.8378595105858438  0.8170237227351506  0.8859533071974821  1.0000
  N   N4        1.0  0.6621237450018996  0.31703749494379  0.1140405502792561  1.0000
  N   N5        1.0  0.22681676615329854  0.27527179045953426  0.061837813685173194  1.0000
  N   N6        1.0  0.27318750969210026  0.7752747379650631  0.9381519389007236  1.0000
  N   N7        1.0  0.7658474233417039  0.7114771826996458  0.9276768220395721  1.0000
  N   N8        1.0  0.734153708856077  0.21149070418284308  0.07233061438746796  1.0000
  N   N9        1.0  0.18676211155249692  0.8851151076119947  0.9610551418186617  1.0000
  N   N10       1.0  0.31323487295055946  0.38514993919515916  0.03895374195437279  1.0000
  N   N11       1.0  0.7950143514565654  0.09776882824726842  0.03104634187520359  1.0000
  N   N12       1.0  0.7049994156067997  0.597770761636461  0.968960289963597  1.0000
  N   N13       1.0  0.005394686196687796  0.16030491574817057  0.8735486128340922  1.0000
  N   N14       1.0  0.49460232256841874  0.6603213688231903  0.1264394657960395  1.0000
  N   N15       1.0  0.9983035483156683  0.8397174543323872  0.12299287601310739  1.0000
  N   N16       1.0  0.5016974467646733  0.3397277105572911  0.877020225189035  1.0000
  O   O1        1.0  0.20716091995877411  0.47571532525510196  0.5730954259837018  1.0000
  O   O2        1.0  0.2928356946983969  0.9757346038566864  0.42690372478927685  1.0000
  O   O3        1.0  0.7909919174274407  0.5289349602917711  0.4227893693246471  1.0000
  O   O4        1.0  0.7090156718693947  0.028938548622107898  0.5772123779570748  1.0000
  O   O5        1.0  0.0583157637110361  0.6712545981944443  0.6515792619867611  1.0000
  O   O6        1.0  0.44166889653646285  0.17127157691556497  0.3484139606234392  1.0000
  O   O7        1.0  0.9450382254292081  0.33255781602258594  0.3489047928193329  1.0000
  O   O8        1.0  0.5549650886334447  0.8325611969809968  0.6510992089627264  1.0000
