data_image0
_chemical_formula_structural       Cu2H60C32S4Br2
_chemical_formula_sum              "Cu2 H60 C32 S4 Br2"
_cell_length_a       8.384583821930349
_cell_length_b       10.230375556333872
_cell_length_c       10.674680960282549
_cell_angle_alpha    75.5349047755905
_cell_angle_beta     77.33047075598749
_cell_angle_gamma    87.38845005687648

_space_group_name_H-M_alt    "P 1"
_space_group_IT_number       1

loop_
  _space_group_symop_operation_xyz
  'x, y, z'

loop_
  _atom_site_type_symbol
  _atom_site_label
  _atom_site_symmetry_multiplicity
  _atom_site_fract_x
  _atom_site_fract_y
  _atom_site_fract_z
  _atom_site_occupancy
  Cu  Cu1       1.0  0.0435943108260588  0.16135450983938426  0.46689733889868285  1.0000
  Cu  Cu2       1.0  0.9564051087282835  0.8386495186206985  0.5331025325193864  1.0000
  H   H1        1.0  0.9259623011632101  0.5133285397819378  0.175449528757305  1.0000
  H   H2        1.0  0.07403828335095142  0.4866724542220453  0.8245508791148737  1.0000
  H   H3        1.0  0.1674386103026535  0.46870088749910377  0.35969858589405856  1.0000
  H   H4        1.0  0.8325632156757764  0.531301110070693  0.640301364686188  1.0000
  H   H5        1.0  0.9911535587955953  0.5701770167710477  0.37225046190962274  1.0000
  H   H6        1.0  0.008849508967117002  0.42982598062037164  0.6277480954302277  1.0000
  H   H7        1.0  0.2370836014689317  0.7142761983528132  0.259978400685725  1.0000
  H   H8        1.0  0.7629194481277183  0.2857257783005521  0.7400175972452558  1.0000
  H   H9        1.0  0.10594226218523059  0.7223497099788857  0.15032521598729437  1.0000
  H   H10       1.0  0.8940571200769369  0.277652288237654  0.8496723444584262  1.0000
  H   H11       1.0  0.3929990914226167  0.6935881699945696  0.0360334631698294  1.0000
  H   H12       1.0  0.6070015141377497  0.3064138110497297  0.9639610805750889  1.0000
  H   H13       1.0  0.4094805716041706  0.5451928587828405  0.15940861668225637  1.0000
  H   H14       1.0  0.5905175319015613  0.45480610562435686  0.8405870900830549  1.0000
  H   H15       1.0  0.3509636216049472  0.4844800453513045  0.9622435074842315  1.0000
  H   H16       1.0  0.649033277728698  0.5155199457336082  0.03775496754536789  1.0000
  H   H17       1.0  0.17759656594354573  0.589127971504645  0.9670608996518126  1.0000
  H   H18       1.0  0.8224015372421718  0.410870996646743  0.0329357430619552  1.0000
  H   H19       1.0  0.22510092622276553  0.3301985461273985  0.1754217705311447  1.0000
  H   H20       1.0  0.774898455719388  0.669803455833339  0.8245767258630397  1.0000
  H   H21       1.0  0.0903091276380508  0.35072711937029066  0.06693004933893582  1.0000
  H   H22       1.0  0.9096889927536793  0.6492728807517311  0.9330719606290643  1.0000
  H   H23       1.0  0.7006435245619826  0.291087326336573  0.5227096159003395  1.0000
  H   H24       1.0  0.2993570589921362  0.7089136788999895  0.47729359981721603  1.0000
  H   H25       1.0  0.7753217405322204  0.45836078588519064  0.4532181954202912  1.0000
  H   H26       1.0  0.22467637857945283  0.5416392292136081  0.5467875583415491  1.0000
  H   H27       1.0  0.6291200780303116  0.47678935078717183  0.2653322692521769  1.0000
  H   H28       1.0  0.3708804672715971  0.5232096354384341  0.7346714433384064  1.0000
  H   H29       1.0  0.4952930731160805  0.4554479783086832  0.4212590182656797  1.0000
  H   H30       1.0  0.5047050472756567  0.5445520218133381  0.5787429917023204  1.0000
  H   H31       1.0  0.42094472415301  0.3143173156047254  0.2773371428593379  1.0000
  H   H32       1.0  0.5790546370629527  0.6856836955714982  0.722666281713643  1.0000
  H   H33       1.0  0.6079245886805963  0.23011075597282374  0.28026165495990807  1.0000
  H   H34       1.0  0.3920735320311479  0.7698892404050071  0.7197394190596356  1.0000
  H   H35       1.0  0.5138734293183304  0.15716396941601835  0.5368068441133573  1.0000
  H   H36       1.0  0.4861258939654292  0.842835019005058  0.46319614138418796  1.0000
  H   H37       1.0  0.40743941956102253  0.0836443225969745  0.4430905502530464  1.0000
  H   H38       1.0  0.5925623111068815  0.9163526237012363  0.5569097065612995  1.0000
  H   H39       1.0  0.0858871051798502  0.169654032375135  0.7560981024754839  1.0000
  H   H40       1.0  0.9141121804917276  0.8303429295465963  0.2439035079981692  1.0000
  H   H41       1.0  0.29937177432426404  0.3206560792797433  0.7754341305231449  1.0000
  H   H42       1.0  0.7006238838651271  0.6793429044951581  0.2245638658499303  1.0000
  H   H43       1.0  0.45248941455914593  0.20065028921059272  0.7443927309353741  1.0000
  H   H44       1.0  0.5475111712350796  0.7993506898166202  0.2556039331429716  1.0000
  H   H45       1.0  0.36918151408738  0.18004426134075405  0.9860898110387312  1.0000
  H   H46       1.0  0.6308203131711138  0.8199577212522726  0.013906395747674985  1.0000
  H   H47       1.0  0.16235102327377152  0.1617205192189175  0.9831573118600901  1.0000
  H   H48       1.0  0.837647117844142  0.8382804716876179  0.016839769929113433  1.0000
  H   H49       1.0  0.27743355525775126  0.9388014594801106  0.06479772186276013  1.0000
  H   H50       1.0  0.7225670487025369  0.06120054028515651  0.9352015016244479  1.0000
  H   H51       1.0  0.4368098206233526  0.9642380712813505  0.9212054392394934  1.0000
  H   H52       1.0  0.5631907256385986  0.035760903711676  0.07879546550571344  1.0000
  H   H53       1.0  0.07132754652820951  0.9437869443570578  0.924917821907144  1.0000
  H   H54       1.0  0.928677889406373  0.056212003133119  0.07508131146789758  1.0000
  H   H55       1.0  0.2194449369670011  0.8204972606177704  0.8968634688820247  1.0000
  H   H56       1.0  0.7805567742547765  0.1794986799191562  0.10313797231729184  1.0000
  H   H57       1.0  0.3691776411507491  0.9816513044969  0.6941412696749013  1.0000
  H   H58       1.0  0.6308216827730461  0.0183476764357877  0.30585984392573107  1.0000
  H   H59       1.0  0.1638034629924974  0.9604543666345365  0.6833493096291007  1.0000
  H   H60       1.0  0.8361946382731277  0.039544623982010293  0.3166529487754204  1.0000
  C   C1        1.0  0.015515596702307703  0.4515129372632744  0.2260640595952808  1.0000
  C   C2        1.0  0.9844849881318751  0.5484880529965109  0.7739354123284415  1.0000
  C   C3        1.0  0.087971838805899  0.5342383707322115  0.30133635679558773  1.0000
  C   C4        1.0  0.9120299686864471  0.4657626098437149  0.6986619703242524  1.0000
  C   C5        1.0  0.1873449271724752  0.6542440373413925  0.20481956951563524  1.0000
  C   C6        1.0  0.8126520104133875  0.3457579727544839  0.795178408640936  1.0000
  C   C7        1.0  0.32301033274412555  0.6068420920842216  0.10547194667282869  1.0000
  C   C8        1.0  0.676990290662289  0.3931609134423296  0.8945260924294162  1.0000
  C   C9        1.0  0.25248036238671295  0.5231233048457257  0.029695399997045478  1.0000
  C   C10       1.0  0.7475177596050955  0.4768766765553281  0.9703019302286648  1.0000
  C   C11       1.0  0.14750465778811872  0.4047070571653322  0.12308600390073819  1.0000
  C   C12       1.0  0.8524935008558358  0.5952949619676531  0.8769155091942409  1.0000
  C   C13       1.0  0.7323597464048817  0.36943853697131596  0.4294809696764403  1.0000
  C   C14       1.0  0.26763961481108817  0.6305624742049076  0.5705224548965404  1.0000
  C   C15       1.0  0.5884238060759159  0.40371982841740817  0.36116155938255906  1.0000
  C   C16       1.0  0.4115755360139418  0.5962801732533337  0.6388421136269358  1.0000
  C   C17       1.0  0.5122935193034267  0.28130884351531893  0.33837645907649977  1.0000
  C   C18       1.0  0.48770702663851045  0.7186901352218911  0.6616253816171636  1.0000
  C   C19       1.0  0.4342060216853199  0.17854283441565144  0.4650030236026481  1.0000
  C   C20       1.0  0.5657944668782875  0.8214531158051273  0.5349995624005501  1.0000
  C   C21       1.0  0.2159546621709154  0.15177688070012613  0.7172975776949642  1.0000
  C   C22       1.0  0.7840422559688206  0.8482241236344593  0.2827015848465777  1.0000
  C   C23       1.0  0.3222859558201421  0.2119559698560778  0.7886917373677136  1.0000
  C   C24       1.0  0.6777145914018519  0.7880429939043623  0.21130635953211652  1.0000
  C   C25       1.0  0.2880923103391595  0.13968974727043812  0.9362658358066939  1.0000
  C   C26       1.0  0.7119070524768817  0.8603112451848246  0.06373290902399731  1.0000
  C   C27       1.0  0.3076884707615832  0.986814009192379  0.958112882202201  1.0000
  C   C28       1.0  0.692310871968303  0.013185984989973998  0.041888918910380823  1.0000
  C   C29       1.0  0.20185873094020934  0.9299044913631391  0.8840444803418847  1.0000
  C   C30       1.0  0.7981441834936122  0.07009043372863741  0.1159570004385202  1.0000
  C   C31       1.0  0.240676841554901  0.00033527059242290005  0.7364667794514617  1.0000
  C   C32       1.0  0.7593236859009521  0.9996626911509311  0.2635334377817955  1.0000
  S   S1        1.0  0.9036788703814267  0.2990711288020762  0.3304548846010533  1.0000
  S   S2        1.0  0.0963204914745717  0.7009298748857659  0.6695466680750145  1.0000
  S   S3        1.0  0.24026196876115344  0.2418112765573355  0.542764907875359  1.0000
  S   S4        1.0  0.7597385972669316  0.7581887004527772  0.45723387653641356  1.0000
  Br  Br1       1.0  0.8267719845906072  0.024611616187463894  0.645773650455979  1.0000
  Br  Br2       1.0  0.17322716943831304  0.975378252986559  0.35422314743405536  1.0000
