data_image0
_chemical_formula_structural       Sr4H24C32S4O32
_chemical_formula_sum              "Sr4 H24 C32 S4 O32"
_cell_length_a       6.894110715001246
_cell_length_b       12.970897090624094
_cell_length_c       12.863847510104101
_cell_angle_alpha    115.68691534453096
_cell_angle_beta     90.0000535637355
_cell_angle_gamma    89.99993759980609

_space_group_name_H-M_alt    "P 1"
_space_group_IT_number       1

loop_
  _space_group_symop_operation_xyz
  'x, y, z'

loop_
  _atom_site_type_symbol
  _atom_site_label
  _atom_site_symmetry_multiplicity
  _atom_site_fract_x
  _atom_site_fract_y
  _atom_site_fract_z
  _atom_site_occupancy
  Sr  Sr1       1.0  0.7803078519060166  0.4086879271041113  0.27097569591968096  1.0000
  Sr  Sr2       1.0  0.280308404604412  0.5913116487478549  0.229025762929048  1.0000
  Sr  Sr3       1.0  0.2196933343253065  0.5913118026418048  0.7290256717963146  1.0000
  Sr  Sr4       1.0  0.7196942321390908  0.40868893340415  0.770975197166308  1.0000
  H   H1        1.0  0.0892733061687636  0.37365652662446536  0.45217703250161634  1.0000
  H   H2        1.0  0.5892733682158138  0.6263439863018406  0.047823959637305784  1.0000
  H   H3        1.0  0.9107249790345264  0.6263440555285059  0.5478239275930648  1.0000
  H   H4        1.0  0.4107249169868012  0.3736565927624582  0.9521762217401033  1.0000
  H   H5        1.0  0.8723330146643209  0.3554333477564243  0.4851562194833576  1.0000
  H   H6        1.0  0.3723330856100873  0.6445670366272084  0.014844081491439452  1.0000
  H   H7        1.0  0.12766527053884863  0.6445663758127793  0.5148435907976463  1.0000
  H   H8        1.0  0.6276651995938777  0.35543354861444243  0.9851576573205137  1.0000
  H   H9        1.0  0.04086942291776549  0.7949200575564745  0.6624154258153467  1.0000
  H   H10       1.0  0.5408723061172509  0.20507990224992056  0.8375850167391903  1.0000
  H   H11       1.0  0.9591317633134437  0.20507881360566677  0.3375847920869788  1.0000
  H   H12       1.0  0.4591288801128499  0.794920679902404  0.1624159433559385  1.0000
  H   H13       1.0  0.012138509182946698  0.09618059927851869  0.8196226125139532  1.0000
  H   H14       1.0  0.5121396808415711  0.9038193639959644  0.6803754850017469  1.0000
  H   H15       1.0  0.9878597760189933  0.9038199766970932  0.1803767901461838  1.0000
  H   H16       1.0  0.4878600548748864  0.09617950098914461  0.3196231754658072  1.0000
  H   H17       1.0  0.3208511503344127  0.9448279284612371  0.009674325817265107  1.0000
  H   H18       1.0  0.8208531569910563  0.05517247565040861  0.49032518051671303  1.0000
  H   H19       1.0  0.6791442338413918  0.0551726506037014  0.9903258555596963  1.0000
  H   H20       1.0  0.1791436776985975  0.944826389335347  0.5096734799503861  1.0000
  H   H21       1.0  0.3964702778924832  0.1400895211785738  0.1644803497190921  1.0000
  H   H22       1.0  0.8964689084639232  0.8599099970124868  0.33551958762497236  1.0000
  H   H23       1.0  0.6035280073106932  0.8599102023906298  0.835519460561912  1.0000
  H   H24       1.0  0.10352937673980732  0.1400888710616215  0.6644798515596264  1.0000
  C   C1        1.0  0.12931100453029387  0.213129027855274  0.9841815463187231  1.0000
  C   C2        1.0  0.6293092300011053  0.7868708896655646  0.5158181448736698  1.0000
  C   C3        1.0  0.8706887311856092  0.7868706926249304  0.015817485245236282  1.0000
  C   C4        1.0  0.37069050571614076  0.2131288369919915  0.4841824441248335  1.0000
  C   C5        1.0  0.0955938541018782  0.10507484006920718  0.8948844495113235  1.0000
  C   C6        1.0  0.5955920122806903  0.8949250831292941  0.6051128951001983  1.0000
  C   C7        1.0  0.904405881614025  0.8949248804109969  0.10511458205262865  1.0000
  C   C8        1.0  0.4044062729218041  0.10507463735122972  0.39488613646353343  1.0000
  C   C9        1.0  0.1675742387852068  0.008376136048518399  0.9040915247234337  1.0000
  C   C10       1.0  0.6675721819048803  0.9916263217331077  0.5959069554415136  1.0000
  C   C11       1.0  0.8324269474428688  0.9916244368377818  0.09590709921988594  1.0000
  C   C12       1.0  0.3324261032958304  0.008375106648926997  0.4040920395977565  1.0000
  C   C13       1.0  0.2708499969811129  0.0212088040260525  0.002812305939165997  1.0000
  C   C14       1.0  0.7708515647387911  0.9787924746529556  0.49718677730803057  1.0000
  C   C15       1.0  0.7291497387342291  0.9787917719492468  0.9971870967211913  1.0000
  C   C16       1.0  0.22914962149052093  0.021207245826929004  0.5028122542561491  1.0000
  C   C17       1.0  0.3107405299452354  0.1293681660315542  0.0893432524432072  1.0000
  C   C18       1.0  0.8107392689910355  0.8706313901554877  0.4106566583838215  1.0000
  C   C19       1.0  0.6892606562835155  0.8706324099434183  0.9106561502173777  1.0000
  C   C20       1.0  0.18926046672800112  0.12936662860056464  0.5893439671391364  1.0000
  C   C21       1.0  0.24069513037394327  0.2265218418732431  0.0809414444344796  1.0000
  C   C22       1.0  0.7406940840139242  0.773476883685902  0.4190565161959086  1.0000
  C   C23       1.0  0.759304605341285  0.7734778755182817  0.9190568084122078  1.0000
  C   C24       1.0  0.2593056517044445  0.22652113198147114  0.5809433306097773  1.0000
  C   C25       1.0  0.2847036682574354  0.3434332987720693  0.17480982742463871  1.0000
  C   C26       1.0  0.7847026994786647  0.6565671244497153  0.3251904464453829  1.0000
  C   C27       1.0  0.7152975179725517  0.6565664247964875  0.8251899828568128  1.0000
  C   C28       1.0  0.21529848675211136  0.3434334607912887  0.6748112923670178  1.0000
  C   C29       1.0  0.1364814985901077  0.8899861886014263  0.8143548682090155  1.0000
  C   C30       1.0  0.6364828629892189  0.11001542746485883  0.6856432312427643  1.0000
  C   C31       1.0  0.8635211381526064  0.1100135318781312  0.1856441633553914  1.0000
  C   C32       1.0  0.36351687272545513  0.8899851454217611  0.3143553927003282  1.0000
  S   S1        1.0  0.024466313277081007  0.33667001011719583  0.9787160563322531  1.0000
  S   S2        1.0  0.5244662530748059  0.6633308124549161  0.5212847522445898  1.0000
  S   S3        1.0  0.9755334224396109  0.6633305720354485  0.021284903762655443  1.0000
  S   S4        1.0  0.4755334826424403  0.33666891420264017  0.47871583675390633  1.0000
  O   O1        1.0  0.8561884157649117  0.3683163983333417  0.05756502136632956  1.0000
  O   O2        1.0  0.3561892561396007  0.6316839962941928  0.44243605333218033  1.0000
  O   O3        1.0  0.14381131995234142  0.6316833283242148  0.942435567632174  1.0000
  O   O4        1.0  0.6438119300905001  0.368316585858139  0.5575649067629485  1.0000
  O   O5        1.0  0.9604922750386109  0.34217772158382326  0.41962122868108764  1.0000
  O   O6        1.0  0.4604924325595121  0.6578217682319049  0.08037872846584541  1.0000
  O   O7        1.0  0.0395074606786352  0.657822005073733  0.5803793603174086  1.0000
  O   O8        1.0  0.539507303156512  0.342178810832067  0.919621452911791  1.0000
  O   O9        1.0  0.1781719435851414  0.42510756694031937  0.020361662164944453  1.0000
  O   O10       1.0  0.6781714112818238  0.5748929096743112  0.47964013618837953  1.0000
  O   O11       1.0  0.8218277921315504  0.5748930152123322  0.9796392979299569  1.0000
  O   O12       1.0  0.32182687392393217  0.42510596766582853  0.5203616391480352  1.0000
  O   O13       1.0  0.9679889496260615  0.3037749681965849  0.8591093354406141  1.0000
  O   O14       1.0  0.46798913322737684  0.6962248023081229  0.640891239225759  1.0000
  O   O15       1.0  0.0320107860899554  0.6962256108673869  0.14089084593701517  1.0000
  O   O16       1.0  0.5320106024917735  0.3037740750316971  0.359110536110876  1.0000
  O   O17       1.0  0.14974500290098552  0.39828522051058  0.24298703275765368  1.0000
  O   O18       1.0  0.6497454791016536  0.6017135577126568  0.2570140146102844  1.0000
  O   O19       1.0  0.8502547328169358  0.6017145092356557  0.7570143349581145  1.0000
  O   O20       1.0  0.3502557071295556  0.3982853134494846  0.742986203292034  1.0000
  O   O21       1.0  0.45350277454056703  0.3833727768077893  0.1765996932882103  1.0000
  O   O22       1.0  0.9535033353837221  0.6166275716007447  0.32340063279327314  1.0000
  O   O23       1.0  0.5464984116894128  0.6166269467607747  0.8234001169932412  1.0000
  O   O24       1.0  0.0464993013622461  0.3833713057384287  0.6766011425438164  1.0000
  O   O25       1.0  0.053158132199065705  0.8802413934910052  0.7171440796033509  1.0000
  O   O26       1.0  0.5531625464604844  0.11976111499918567  0.7828543651725681  1.0000
  O   O27       1.0  0.9468416035175126  0.11975833007787172  0.2828557306778734  1.0000
  O   O28       1.0  0.44684154079316585  0.8802403102928833  0.2171438511503323  1.0000
  O   O29       1.0  0.18738736664104755  0.8067585386159096  0.8310192435335181  1.0000
  O   O30       1.0  0.687394332811664  0.1932439165597586  0.6689808001957616  1.0000
  O   O31       1.0  0.8126123690749767  0.19324204044806234  0.1689809378441183  1.0000
  O   O32       1.0  0.3126097544421  0.8067583673160784  0.33101856594081613  1.0000
