data_image0
_chemical_formula_structural       Zn4H56C84N14O22
_chemical_formula_sum              "Zn4 H56 C84 N14 O22"
_cell_length_a       16.489603695708944
_cell_length_b       17.87382434868213
_cell_length_c       31.333093725965476
_cell_angle_alpha    90.24646086655618
_cell_angle_beta     90.06335980681934
_cell_angle_gamma    89.9518497322221

_space_group_name_H-M_alt    "P 1"
_space_group_IT_number       1

loop_
  _space_group_symop_operation_xyz
  'x, y, z'

loop_
  _atom_site_type_symbol
  _atom_site_label
  _atom_site_symmetry_multiplicity
  _atom_site_fract_x
  _atom_site_fract_y
  _atom_site_fract_z
  _atom_site_occupancy
  Zn  Zn1       1.0  0.5821213224208535  0.4986881352051993  0.502764868210285  1.0000
  Zn  Zn2       1.0  0.41304710726218014  0.5001637968378246  0.4974124303756042  1.0000
  Zn  Zn3       1.0  0.41786439562145017  0.5008614513951314  0.9260143728320502  1.0000
  Zn  Zn4       1.0  0.5868829772764883  0.5020511671483728  0.9313563602973363  1.0000
  H   H1        1.0  0.28811828830134806  0.5760332153101259  0.55042176617512  1.0000
  H   H2        1.0  0.1352765954783735  0.581643778670532  0.5528369432840563  1.0000
  H   H3        1.0  0.2841762821481524  0.4172634382475804  0.4539149025582105  1.0000
  H   H4        1.0  0.7120886113870313  0.5821262581122253  0.5479037916220479  1.0000
  H   H5        1.0  0.708101430505522  0.417419036191795  0.45463697179702933  1.0000
  H   H6        1.0  0.8609068872959683  0.41307786241315353  0.4514732739845115  1.0000
  H   H7        1.0  0.6302684539885774  0.732788726731705  0.502587639850006  1.0000
  H   H8        1.0  0.6350055212827002  0.8731128198118651  0.5027860997778859  1.0000
  H   H9        1.0  0.370286540991927  0.7400434208968107  0.5011325534125461  1.0000
  H   H10       1.0  0.6268179539013516  0.2630877296338952  0.5030518624526721  1.0000
  H   H11       1.0  0.36669602840898113  0.2614310108014875  0.5017495217096197  1.0000
  H   H12       1.0  0.3676284945262296  0.12109259953070506  0.5018907324093362  1.0000
  H   H13       1.0  0.3658544194804066  0.5041377766709655  0.0635895662398838  1.0000
  H   H14       1.0  0.3638036181465409  0.5067680652559399  0.1437027296425697  1.0000
  H   H15       1.0  0.625857812391196  0.5046700020995799  0.06545188906606113  1.0000
  H   H16       1.0  0.37402083670090763  0.5019526423068895  0.3633192218888794  1.0000
  H   H17       1.0  0.6340256143100476  0.5018672073710915  0.365262072275641  1.0000
  H   H18       1.0  0.6361554030576714  0.5057045355473945  0.2851827198058245  1.0000
  H   H19       1.0  0.711601848978468  0.5775648909599905  0.8785166658461564  1.0000
  H   H20       1.0  0.8644117053110918  0.5833582675605694  0.8761491897280962  1.0000
  H   H21       1.0  0.7159700540743685  0.41973518258672005  0.974738231983338  1.0000
  H   H22       1.0  0.28768945054206796  0.5838783631888373  0.8809695243560043  1.0000
  H   H23       1.0  0.292110403930387  0.42014297504900344  0.9739753768098255  1.0000
  H   H24       1.0  0.13932494349500502  0.41561690313555005  0.9770876195327673  1.0000
  H   H25       1.0  0.3698354720621566  0.7351819453117798  0.9254307559690389  1.0000
  H   H26       1.0  0.365410850438245  0.8755015118960396  0.9248307027171876  1.0000
  H   H27       1.0  0.6298342902700043  0.7416004395011268  0.9268413565344249  1.0000
  H   H28       1.0  0.3731305019084559  0.26538478075901384  0.9253289974103183  1.0000
  H   H29       1.0  0.6332375751614948  0.2632219571071913  0.9270494482605686  1.0000
  H   H30       1.0  0.6322617236808271  0.1229009204799567  0.9263078902502998  1.0000
  H   H31       1.0  0.0620753276983876  0.40874071328855155  0.4437351646854069  1.0000
  H   H32       1.0  0.15321066898684427  0.3756852524290934  0.42424343118491953  1.0000
  H   H33       1.0  0.9349692276424834  0.5980862392320601  0.5537598508140462  1.0000
  H   H34       1.0  0.8434976774589984  0.6320201255554704  0.5734047738956463  1.0000
  H   H35       1.0  0.3624234457690392  0.9449309856219792  0.4964664278846769  1.0000
  H   H36       1.0  0.3063550764154926  0.8642916044518143  0.49349232040432883  1.0000
  H   H37       1.0  0.643092578921177  0.05859456986007668  0.4966394874674053  1.0000
  H   H38       1.0  0.6960066341241884  0.14113870705304518  0.49498830338271926  1.0000
  H   H39       1.0  0.6377290626920952  0.4980762635967648  0.1822883676543725  1.0000
  H   H40       1.0  0.6923564169142011  0.4926358293798357  0.135826182273199  1.0000
  H   H41       1.0  0.3622643405786619  0.4973237074048026  0.24643098650186354  1.0000
  H   H42       1.0  0.3076478547138208  0.49098031238915485  0.2928266861047177  1.0000
  H   H43       1.0  0.9380723494596526  0.4115691055086898  0.9849478151752109  1.0000
  H   H44       1.0  0.8470353060965436  0.37865212319668  0.004383924435323599  1.0000
  H   H45       1.0  0.06488044411580059  0.5998558833749499  0.8751501622445019  1.0000
  H   H46       1.0  0.1563588180635094  0.6335147744612327  0.8556205416890637  1.0000
  H   H47       1.0  0.6380282389553288  0.9466288722278262  0.9309025044501383  1.0000
  H   H48       1.0  0.6940362152743802  0.8659593980054364  0.934176774915727  1.0000
  H   H49       1.0  0.35676465789808987  0.060940314966344965  0.9309421388361088  1.0000
  H   H50       1.0  0.3038934505215423  0.1435783992907815  0.9329331785854296  1.0000
  H   H51       1.0  0.2898902952799459  0.5005986466140299  0.6464154693525757  1.0000
  H   H52       1.0  0.3144592918506391  0.500743379570224  0.7397360516814686  1.0000
  H   H53       1.0  0.3809463691722713  0.5002794748522132  0.8170320150013668  1.0000
  H   H54       1.0  0.7100312108813681  0.5008559772875215  0.7823166973273104  1.0000
  H   H55       1.0  0.68547170755258  0.5002731698395023  0.6890052652294827  1.0000
  H   H56       1.0  0.6189440835004377  0.4990759704421704  0.6116804028903857  1.0000
  C   C1        1.0  0.49611860833746857  0.6454290443582519  0.5013883960772176  1.0000
  C   C2        1.0  0.4961947759722492  0.5021074477126675  0.5859360887474665  1.0000
  C   C3        1.0  0.496483140421141  0.35331927536517316  0.501503847390552  1.0000
  C   C4        1.0  0.5004691576147309  0.4985019279668847  0.4161981986655476  1.0000
  C   C5        1.0  0.5038809082355938  0.6474202765483239  0.9269937884444347  1.0000
  C   C6        1.0  0.5036681856997447  0.5026570794388546  0.8428025067786606  1.0000
  C   C7        1.0  0.5036416115028075  0.35536652218647186  0.927369036040574  1.0000
  C   C8        1.0  0.4993423089218469  0.5015070791637013  0.0125885321211641  1.0000
  C   C9        1.0  0.25018794085793417  0.542738067574717  0.5291519302891389  1.0000
  C   C10       1.0  0.16628490393588186  0.5446772041440865  0.5304475491405327  1.0000
  C   C11       1.0  0.12059387976935912  0.49887241270863536  0.5027518637790749  1.0000
  C   C12       1.0  0.16283781584704124  0.45007925368985713  0.4743280324477155  1.0000
  C   C13       1.0  0.24801353075164206  0.45275038673928225  0.475084778275253  1.0000
  C   C14       1.0  0.035184590266617  0.49999127051354003  0.5023844688331209  1.0000
  C   C15       1.0  0.9610893430767078  0.49777320048912765  0.5001196593023778  1.0000
  C   C16       1.0  0.875694535495292  0.4982872969517158  0.5001350557826498  1.0000
  C   C17       1.0  0.8334176764470199  0.5476953011039001  0.528289424795709  1.0000
  C   C18       1.0  0.7480734415712006  0.5454907630433465  0.5273008798687828  1.0000
  C   C19       1.0  0.7460214863305197  0.4528456945426736  0.4747786585381065  1.0000
  C   C20       1.0  0.8299049723465471  0.45108669314325295  0.4732977351976971  1.0000
  C   C21       1.0  0.4997004779575107  0.7291582334205343  0.5019523515753122  1.0000
  C   C22       1.0  0.5749444685557491  0.7660468282534081  0.5025680780386139  1.0000
  C   C23       1.0  0.577147860907516  0.8435534894225536  0.5026361357535407  1.0000
  C   C24       1.0  0.505082084321458  0.886253353192252  0.5023351123574287  1.0000
  C   C25       1.0  0.42863771678114665  0.8486778244587891  0.5020334247201674  1.0000
  C   C26       1.0  0.42771841057417953  0.7702837050838266  0.5016248337967468  1.0000
  C   C27       1.0  0.5060252962437488  0.9651330249446768  0.5020117784430624  1.0000
  C   C28       1.0  0.4995126476639983  0.03350993536488288  0.5018396517036479  1.0000
  C   C29       1.0  0.49800266306668567  0.11238534450841084  0.5020350642387328  1.0000
  C   C30       1.0  0.5728494260756706  0.1525071842895683  0.5023612871300287  1.0000
  C   C31       1.0  0.5706370705714505  0.23091937116056724  0.502402926877906  1.0000
  C   C32       1.0  0.4970574813474614  0.26953229586693783  0.5019405787236764  1.0000
  C   C33       1.0  0.42331737884043014  0.2300924090819975  0.5017605514554333  1.0000
  C   C34       1.0  0.42426022601104313  0.15259899242285252  0.501887493217275  1.0000
  C   C35       1.0  0.450225777788404  0.5025603807594405  0.7681956743638099  1.0000
  C   C36       1.0  0.5966915639731171  0.5029441396393037  0.7780731820520614  1.0000
  C   C37       1.0  0.6072853957467929  0.502430821843795  0.7340980943132607  1.0000
  C   C38       1.0  0.5402583004022078  0.5024483931136671  0.7056467725882456  1.0000
  C   C39       1.0  0.5497003792104637  0.5020418920174591  0.6605396364061136  1.0000
  C   C40       1.0  0.40322942698161773  0.5027754206166292  0.6506667478051682  1.0000
  C   C41       1.0  0.3926392438050429  0.5025384716797274  0.6946381047021362  1.0000
  C   C42       1.0  0.45966929713952  0.5026165719270635  0.7230912526687021  1.0000
  C   C43       1.0  0.517218123126199  0.5029209672609977  0.7961267467924529  1.0000
  C   C44       1.0  0.4827000684713952  0.5025154948650368  0.6326118608724016  1.0000
  C   C45       1.0  0.4964081551846603  0.5034967800374515  0.06040927952027891  1.0000
  C   C46       1.0  0.42182495135528336  0.5045126289536338  0.082064806166656  1.0000
  C   C47       1.0  0.4210997484449948  0.5061297562985769  0.1263206257330864  1.0000
  C   C48       1.0  0.49399038047478433  0.5067647822462645  0.1500242939901  1.0000
  C   C49       1.0  0.5696863284629785  0.5063687232725795  0.12794320973866752  1.0000
  C   C50       1.0  0.569090673646663  0.5046380631719739  0.08327582605323161  1.0000
  C   C51       1.0  0.49516386014223457  0.5069574205902824  0.1950072462808308  1.0000
  C   C52       1.0  0.5048377951703958  0.5066190331217155  0.23384575307706973  1.0000
  C   C53       1.0  0.5059643478176455  0.5056171786463038  0.2788229584983597  1.0000
  C   C54       1.0  0.43024997508171486  0.5047309017904738  0.3008754146360176  1.0000
  C   C55       1.0  0.43081267698190123  0.5022727157061196  0.3455195913045586  1.0000
  C   C56       1.0  0.503468192926185  0.5009338153752266  0.3683951473010509  1.0000
  C   C57       1.0  0.5780785317737199  0.5024054276860779  0.3467733950998735  1.0000
  C   C58       1.0  0.5788369054729403  0.5046996426923654  0.3025362814201742  1.0000
  C   C59       1.0  0.749621555641312  0.544491968148179  0.8997261530151306  1.0000
  C   C60       1.0  0.8335219342150496  0.5465307548914992  0.898451327305118  1.0000
  C   C61       1.0  0.87934801423026  0.5010346905992618  0.9260703838992728  1.0000
  C   C62       1.0  0.8372204899343176  0.45246555883392847  0.954395909314343  1.0000
  C   C63       1.0  0.7520427939170062  0.4550390149244092  0.953634934923862  1.0000
  C   C64       1.0  0.964770510704952  0.5021722230010749  0.9264180195498355  1.0000
  C   C65       1.0  0.038877215284713884  0.4998931652431578  0.9286231173718988  1.0000
  C   C66       1.0  0.12428563787363345  0.5004079537922973  0.9285837157126551  1.0000
  C   C67       1.0  0.16646570632612168  0.5495796739024639  0.9005344210384365  1.0000
  C   C68       1.0  0.2518141866050314  0.547426401709309  0.9015194450901447  1.0000
  C   C69       1.0  0.2540816460845577  0.45530568308841846  0.9538819149242387  1.0000
  C   C70       1.0  0.17019320706847202  0.453475601772382  0.9553394773983612  1.0000
  C   C71       1.0  0.5004130654135324  0.7311335449121966  0.9261132124202192  1.0000
  C   C72       1.0  0.42523703995182427  0.7682359395948237  0.9253614345682095  1.0000
  C   C73       1.0  0.4231965949461555  0.8457456350961219  0.9250711532840372  1.0000
  C   C74       1.0  0.4953296545270548  0.8882308944525472  0.9252992665640605  1.0000
  C   C75       1.0  0.5717105856879741  0.8504363002801224  0.9256551568964825  1.0000
  C   C76       1.0  0.5724714412228806  0.7720455377917754  0.9262807347237897  1.0000
  C   C77       1.0  0.4943887493271646  0.9671264163524919  0.9255727405588203  1.0000
  C   C78       1.0  0.5004769967868725  0.035525497579833094  0.9258508483325159  1.0000
  C   C79       1.0  0.501898222176159  0.11441805063642356  0.9259473987146123  1.0000
  C   C80       1.0  0.42706438846356315  0.1546949792408227  0.925690855719303  1.0000
  C   C81       1.0  0.4293064912895305  0.23310802097145694  0.9259618401357204  1.0000
  C   C82       1.0  0.5029200581479502  0.2715672019234885  0.9267021998100731  1.0000
  C   C83       1.0  0.5766225366818531  0.23198409305709322  0.9268462021758667  1.0000
  C   C84       1.0  0.5756476882789557  0.15450304639496437  0.9263766452799373  1.0000
  N   N1        1.0  0.28935640786340144  0.4978000013536457  0.5012895685491827  1.0000
  N   N2        1.0  0.7066403330058931  0.49952477981663873  0.5016476299271417  1.0000
  N   N3        1.0  0.7105770008528794  0.4997617470847116  0.9274893488315001  1.0000
  N   N4        1.0  0.2933468823629966  0.5017536049625588  0.9271048346133669  1.0000
  N   N5        1.0  0.12242205514432672  0.4013498563370346  0.4480661763099719  1.0000
  N   N6        1.0  0.8738612835314612  0.5942042058431125  0.5554593136921611  1.0000
  N   N7        1.0  0.35778116904312174  0.8897312436206019  0.5035475222865315  1.0000
  N   N8        1.0  0.6452283229755764  0.1138541932681321  0.5041436097275636  1.0000
  N   N9        1.0  0.6412959493272936  0.5101541802793006  0.15071372344140604  1.0000
  N   N10       1.0  0.3586514401499771  0.5088106526410526  0.27813190097125334  1.0000
  N   N11       1.0  0.8777622575827522  0.4040262475050581  0.980576201500547  1.0000
  N   N12       1.0  0.125982249075534  0.5958576052372564  0.8734491933828537  1.0000
  N   N13       1.0  0.6426315941178872  0.8912435542572578  0.924022129697825  1.0000
  N   N14       1.0  0.35466869073813  0.11618243373950315  0.9236669926537361  1.0000
  O   O1        1.0  0.5634816996354175  0.6106180299345992  0.5055002310890231  1.0000
  O   O2        1.0  0.42691047505370966  0.615100137183482  0.49683170419628914  1.0000
  O   O3        1.0  0.43580470455401615  0.504394810162587  0.5612892635369775  1.0000
  O   O4        1.0  0.5707849159779101  0.49935019674269615  0.5721491853453387  1.0000
  O   O5        1.0  0.4278699984700652  0.38537671389060063  0.4984989475748449  1.0000
  O   O6        1.0  0.5650228109325754  0.3864901936462599  0.5041243088215523  1.0000
  O   O7        1.0  0.5676023985364081  0.49815729740982545  0.43633351375567037  1.0000
  O   O8        1.0  0.43007816809925714  0.497168297075049  0.4330891242706727  1.0000
  O   O9        1.0  0.43641378884440485  0.612668081176714  0.9233268141319684  1.0000
  O   O10       1.0  0.5731066172119982  0.6170307615379114  0.9313844570846612  1.0000
  O   O11       1.0  0.56406349904114  0.504336450371113  0.8674723296362857  1.0000
  O   O12       1.0  0.429051646543222  0.500635789038327  0.8565647747153662  1.0000
  O   O13       1.0  0.5722669027050529  0.3872266533830312  0.9308084350302581  1.0000
  O   O14       1.0  0.4352048620712807  0.3887085338067279  0.9244836782287253  1.0000
  O   O15       1.0  0.4321843752248499  0.5008087645695767  0.9924724639050171  1.0000
  O   O16       1.0  0.5697153456950446  0.5007979638924666  0.9956668792750777  1.0000
  O   O17       1.0  0.3347016841050845  0.502770533133038  0.6258586439198269  1.0000
  O   O18       1.0  0.3130760163622455  0.5021399682780083  0.7080914926954167  1.0000
  O   O19       1.0  0.37305148781313596  0.5019678380352628  0.7840816918803242  1.0000
  O   O20       1.0  0.665216156100705  0.5030956118937694  0.8028825989523158  1.0000
  O   O21       1.0  0.6868457677156956  0.5019179289912401  0.720650800639639  1.0000
  O   O22       1.0  0.6268620049898246  0.5010298376470458  0.6446350606217379  1.0000
