data_image0
_chemical_formula_structural       Zn4H52C40N20O16
_chemical_formula_sum              "Zn4 H52 C40 N20 O16"
_cell_length_a       7.185148682005958
_cell_length_b       9.137611946
_cell_length_c       19.0252
_cell_angle_alpha    90.0
_cell_angle_beta     90.89610484252945
_cell_angle_gamma    90.0

_space_group_name_H-M_alt    "P 1"
_space_group_IT_number       1

loop_
  _space_group_symop_operation_xyz
  'x, y, z'

loop_
  _atom_site_type_symbol
  _atom_site_label
  _atom_site_symmetry_multiplicity
  _atom_site_fract_x
  _atom_site_fract_y
  _atom_site_fract_z
  _atom_site_occupancy
  Zn  Zn1       1.0  0.6617610488322185  0.2970415045025163  0.8395019632286848  1.0000
  Zn  Zn2       1.0  0.3382375698165633  0.7970386620749608  0.1604980811743317  1.0000
  Zn  Zn3       1.0  0.3990830008240637  0.7925309197629176  0.6653483461874572  1.0000
  Zn  Zn4       1.0  0.6009142258948332  0.2925282903012842  0.3346511643755647  1.0000
  H   H1        1.0  0.7817203500718577  0.3057013163294613  0.6756345634977805  1.0000
  H   H2        1.0  0.21827966050680916  0.8057006626575784  0.32436706598252835  1.0000
  H   H3        1.0  0.49019177136362674  0.6068511152333826  0.7995886161270249  1.0000
  H   H4        1.0  0.5098096311449254  0.1068462970160837  0.2004109191000012  1.0000
  H   H5        1.0  0.7437192723161417  0.4383420989718587  0.5499254924179198  1.0000
  H   H6        1.0  0.2562793463326472  0.9383392565443031  0.45007455198508944  1.0000
  H   H7        1.0  0.6827485676191005  0.6269603079946791  0.5495206956716316  1.0000
  H   H8        1.0  0.3172472671699112  0.1269609616665619  0.4504793322887082  1.0000
  H   H9        1.0  0.3524463900696801  0.5750101920557071  0.540538588466795  1.0000
  H   H10       1.0  0.6475494447193313  0.0750097513497536  0.4594609138748922  1.0000
  H   H11       1.0  0.23539065456750316  0.398978422540246  0.7317169377060111  1.0000
  H   H12       1.0  0.7646149237306974  0.8989788632461994  0.2682841990409841  1.0000
  H   H13       1.0  0.9211736293331398  0.3598719249004105  0.9316318988447848  1.0000
  H   H14       1.0  0.07882359738575673  0.8598712712285277  0.0683681373368898  1.0000
  H   H15       1.0  0.9391963374676779  0.1859917022131796  0.9098778689126803  1.0000
  H   H16       1.0  0.06080228118110401  0.6859910485412968  0.090122175490329  1.0000
  H   H17       1.0  0.2127523069385191  0.3016466464420802  0.8691670620799243  1.0000
  H   H18       1.0  0.7872463117102697  0.801644898392361  0.1308335079417375  1.0000
  H   H19       1.0  0.0760202505999246  0.447267844613279  0.8338447149874995  1.0000
  H   H20       1.0  0.923976976118972  0.9472660965635598  0.1661558468128277  1.0000
  H   H21       1.0  0.4494499836668454  0.2626583416086774  0.5702686512685631  1.0000
  H   H22       1.0  0.5505514188417067  0.7626609710703036  0.4297298327211649  1.0000
  H   H23       1.0  0.0377783689743225  0.1900605990124404  0.6409112752086727  1.0000
  H   H24       1.0  0.9622286012537629  0.6900621340962303  0.3590893441410046  1.0000
  H   H25       1.0  0.2819145190013047  0.1542766324867983  0.6487705262711927  1.0000
  H   H26       1.0  0.7180952350865513  0.6542781675705882  0.3512301095211541  1.0000
  H   H27       1.0  0.6005342290365763  0.1016983436691916  0.7047879986465873  1.0000
  H   H28       1.0  0.3994685654018611  0.6016976899973088  0.2952120704204333  1.0000
  H   H29       1.0  0.2935385254603347  0.9500392500034067  0.9469338150266252  1.0000
  H   H30       1.0  0.7064587012585621  0.45004099805312586  0.05306516991774401  1.0000
  H   H31       1.0  0.3473741975733731  0.1382352421469335  0.9452901828078311  1.0000
  H   H32       1.0  0.652625813005294  0.6382334940972143  0.0547093441978674  1.0000
  H   H33       1.0  0.6682460501605194  0.1010537551229902  0.976874959364558  1.0000
  H   H34       1.0  0.3317539604181477  0.6010552902067801  0.0231256188784457  1.0000
  H   H35       1.0  0.2996685846682824  0.8023453002082661  0.8264588050862969  1.0000
  H   H36       1.0  0.7003314259103846  0.3023426707466328  0.1735412475380542  1.0000
  H   H37       1.0  0.0962227209323885  0.8119451825974906  0.5928443665966158  1.0000
  H   H38       1.0  0.9037745057865154  0.3119469306472098  0.40715566958506594  1.0000
  H   H39       1.0  0.09741421291285952  0.6543405471073171  0.6339395397955983  1.0000
  H   H40       1.0  0.9025885815255708  0.1543422951570363  0.3660605292714223  1.0000
  H   H41       1.0  0.8345301698605851  0.8005100285750331  0.6704763676448806  1.0000
  H   H42       1.0  0.1654684487881966  0.3005117766247523  0.3295236767581287  1.0000
  H   H43       1.0  0.9909942242309315  0.9431950110086261  0.6947495433409898  1.0000
  H   H44       1.0  0.009003002487965303  0.4431945703026656  0.3052499672220321  1.0000
  H   H45       1.0  0.8941520945002852  0.9366396877628985  0.8069669052105155  1.0000
  H   H46       1.0  0.10584652414849673  0.4366392470569451  0.1930331391924938  1.0000
  H   H47       1.0  0.6090848543123286  0.7859383876707255  0.9400255174276212  1.0000
  H   H48       1.0  0.3909137643364532  0.2859390413426084  0.0599740013567427  1.0000
  H   H49       1.0  0.07304152064874363  0.7424270192355564  0.9026232443662536  1.0000
  H   H50       1.0  0.9269584899299235  0.2424265785296029  0.09737680825809748  1.0000
  H   H51       1.0  0.8419700350891193  0.6731463358643239  0.8901327194885199  1.0000
  H   H52       1.0  0.1580285835596626  0.1731458951583704  0.10986732491448949  1.0000
  C   C1        1.0  0.6992150981436327  0.4005510434925199  0.6888958591653989  1.0000
  C   C2        1.0  0.30078352050514934  0.9005514841984735  0.3111057620935753  1.0000
  C   C3        1.0  0.6301586727520032  0.50907283297758  0.6454340327678949  1.0000
  C   C4        1.0  0.3698385539668935  0.0090745810272992  0.3545660034137796  1.0000
  C   C5        1.0  0.5466512313074932  0.5542553163703801  0.7535141678149628  1.0000
  C   C6        1.0  0.45334738734128893  0.0542526869087538  0.2464858765880464  1.0000
  C   C7        1.0  0.47394655769061  0.46861040119726743  0.4524965755226873  1.0000
  C   C8        1.0  0.5260506690282868  0.9686152194145733  0.547502409421682  1.0000
  C   C9        1.0  0.6395082657810249  0.5179723135509064  0.5673765418147525  1.0000
  C   C10       1.0  0.3604861770781086  0.0179729672227893  0.4326234779242526  1.0000
  C   C11       1.0  0.4478311692120656  0.48361103821381596  0.5317422805707963  1.0000
  C   C12       1.0  0.552163273647068  0.9836125732976058  0.46825616231225103  1.0000
  C   C13       1.0  0.07795503313830922  0.3288583513677708  0.8440520932777956  1.0000
  C   C14       1.0  0.9220449774403578  0.8288576976958879  0.1559484849652009  1.0000
  C   C15       1.0  0.06330218725228323  0.2480385480795277  0.774367855795667  1.0000
  C   C16       1.0  0.9366978233263836  0.7480378944076449  0.2256316712100244  1.0000
  C   C17       1.0  0.17443108530953574  0.23951772223792736  0.6525335342328731  1.0000
  C   C18       1.0  0.8255758849185499  0.7395192573217173  0.347466033879499  1.0000
  C   C19       1.0  0.20978749628616813  0.3645164644421186  0.6011161002641359  1.0000
  C   C20       1.0  0.790215298152262  0.8645179995259156  0.3988844944215373  1.0000
  C   C21       1.0  0.5352276627517228  0.052266391133962  0.7498787958965494  1.0000
  C   C22       1.0  0.4647737397568292  0.5522646430842428  0.2501212649491293  1.0000
  C   C23       1.0  0.4352383795539582  0.0126094214419368  0.8562442535137009  1.0000
  C   C24       1.0  0.5647644148844791  0.5126087677700539  0.143755289934667  1.0000
  C   C25       1.0  0.40134627881501234  0.029293211572330297  0.9326661313782126  1.0000
  C   C26       1.0  0.5986523398337695  0.5292925579004475  0.0673333874061512  1.0000
  C   C27       1.0  0.5773641641920051  0.0049225115123974  0.9795050243095673  1.0000
  C   C28       1.0  0.4226330625268987  0.5049218578405146  0.0204944862534546  1.0000
  C   C29       1.0  0.508537407231195  0.9904973042723669  0.05472819507747321  1.0000
  C   C30       1.0  0.4914584275578236  0.49050124107776577  0.945271307264214  1.0000
  C   C31       1.0  0.3770167363772927  0.8999189338084861  0.8132600838721018  1.0000
  C   C32       1.0  0.6229874499910297  0.3999173987246962  0.1867399934162535  1.0000
  C   C33       1.0  0.9770387352166525  0.8239537906067227  0.6897315570777209  1.0000
  C   C34       1.0  0.022959883432129406  0.3239544442786055  0.3102679617066357  1.0000
  C   C35       1.0  0.9987403140338886  0.7528411187357733  0.7616534621359179  1.0000
  C   C36       1.0  0.0012596965447784  0.2528417724076562  0.23834606486977353  1.0000
  C   C37       1.0  0.8586425712364447  0.8924508994464161  0.9347626581782293  1.0000
  C   C38       1.0  0.1413560474123443  0.392451553118299  0.0652379118434396  1.0000
  C   C39       1.0  0.9295168570562213  0.7715648291549826  0.8869158136967954  1.0000
  C   C40       1.0  0.07048315352244573  0.2715654828268654  0.11308371330889601  1.0000
  N   N1        1.0  0.6468423443383957  0.4296790040114047  0.7570105082246528  1.0000
  N   N2        1.0  0.3531562743103863  0.9296761615838491  0.24299058741566879  1.0000
  N   N3        1.0  0.5318271780457666  0.6058508538900469  0.6871823661156853  1.0000
  N   N4        1.0  0.4681742244627857  0.1058471300505772  0.312818220348646  1.0000
  N   N5        1.0  0.17063807637637757  0.301285501755757  0.7230948831697148  1.0000
  N   N6        1.0  0.8293661099919449  0.8012859424617105  0.2769051941186405  1.0000
  N   N7        1.0  0.9205277738670861  0.2901119040364222  0.8894687375941999  1.0000
  N   N8        1.0  0.07947084478169593  0.7901112503645393  0.1105313068088094  1.0000
  N   N9        1.0  0.3677297801930451  0.3549756784561069  0.5643226963779638  1.0000
  N   N10       1.0  0.6322716223155069  0.8549772135399039  0.4356778900863675  1.0000
  N   N11       1.0  0.5377735025090615  0.1083215183408299  0.8154637084630068  1.0000
  N   N12       1.0  0.4622292919293685  0.6083186759132673  0.1845358349853541  1.0000
  N   N13       1.0  0.4385469968875882  0.9261599255924439  0.7459800666793157  1.0000
  N   N14       1.0  0.561454405620964  0.4261583905086539  0.2540199941663701  1.0000
  N   N15       1.0  0.11722555094799253  0.7657274177705631  0.641287489875829  1.0000
  N   N16       1.0  0.8827744596306745  0.2657280714424388  0.3587125627485221  1.0000
  N   N17       1.0  0.9239171231339753  0.82835756702422  0.8151263319725217  1.0000
  N   N18       1.0  0.0760814955148135  0.3283582206961029  0.184873186811835  1.0000
  N   N19       1.0  0.6807441885865304  0.8801347712648848  0.9539545395168362  1.0000
  N   N20       1.0  0.3192544300622515  0.3801343305589313  0.04604550488618029  1.0000
  O   O1        1.0  0.521453124622326  0.3398765474342014  0.43168934934018927  1.0000
  O   O2        1.0  0.4785427101666926  0.8398835544071801  0.5683106786201506  1.0000
  O   O3        1.0  0.4558124951653753  0.5793056250673061  0.4140487409275195  1.0000
  O   O4        1.0  0.5441902992730621  0.0793084674948616  0.5859523793768062  1.0000
  O   O5        1.0  0.9581224080967559  0.1402653130352149  0.7661194191451486  1.0000
  O   O6        1.0  0.04188038634167411  0.6402657537411685  0.23387854744726164  1.0000
  O   O7        1.0  0.0994297273845035  0.4698984839118268  0.5973279133935989  1.0000
  O   O8        1.0  0.9005744589838189  0.9699000189956166  0.4026763688439772  1.0000
  O   O9        1.0  0.4892243800944344  0.8588502167062799  0.0773266316682921  1.0000
  O   O10       1.0  0.5107714546945773  0.3588530591338355  0.9226728706733951  1.0000
  O   O11       1.0  0.0782918801701769  0.6327057916407597  0.7693074310318195  1.0000
  O   O12       1.0  0.9217081304084902  0.1327064453126425  0.23069209597387189  1.0000
  O   O13       1.0  0.960871469617125  0.9992873470619585  0.9506735323629912  1.0000
  O   O14       1.0  0.0391285409615421  0.4992880007338414  0.04932652026136  1.0000
  O   O15       1.0  0.4649894888888113  0.1049792884255609  0.0869584200878819  1.0000
  O   O16       1.0  0.5350077378300926  0.6049819178871942  0.9130421417124522  1.0000
