data_image0
_chemical_formula_structural       Zn8H64C80N32
_chemical_formula_sum              "Zn8 H64 C80 N32"
_cell_length_a       16.34630545772392
_cell_length_b       16.796603439403373
_cell_length_c       18.72545885577181
_cell_angle_alpha    88.84002234388907
_cell_angle_beta     88.2063477774329
_cell_angle_gamma    90.42465032035294

_space_group_name_H-M_alt    "P 1"
_space_group_IT_number       1

loop_
  _space_group_symop_operation_xyz
  'x, y, z'

loop_
  _atom_site_type_symbol
  _atom_site_label
  _atom_site_symmetry_multiplicity
  _atom_site_fract_x
  _atom_site_fract_y
  _atom_site_fract_z
  _atom_site_occupancy
  Zn  Zn1       1.0  0.641853707754116  0.5462343379232802  0.019910392098239502  1.0000
  Zn  Zn2       1.0  0.5192347248814215  0.40255458077963624  0.9822118005596323  1.0000
  Zn  Zn3       1.0  0.3649408990262942  0.5211577171061703  0.965199864331673  1.0000
  Zn  Zn4       1.0  0.4903351958912549  0.674283344729332  0.9927514883427689  1.0000
  Zn  Zn5       1.0  0.1169813724887661  0.958345585114422  0.4757565121378704  1.0000
  Zn  Zn6       1.0  0.9982625016200334  0.7858610102364949  0.48690033108431413  1.0000
  Zn  Zn7       1.0  0.8823522984013294  0.9171776179365451  0.4743613172812857  1.0000
  Zn  Zn8       1.0  0.9874618690779965  0.10461153665867327  0.5144921712062143  1.0000
  H   H1        1.0  0.7304594159517421  0.5723173633046273  0.8582510534275726  1.0000
  H   H2        1.0  0.8664237890933749  0.6277764856525464  0.4294231270986444  1.0000
  H   H3        1.0  0.7560866105099322  0.9923515458598257  0.3581891119325534  1.0000
  H   H4        1.0  0.06282551120420979  0.2398411857799019  0.40546855596121395  1.0000
  H   H5        1.0  0.8682505805688975  0.9894918379456353  0.6406182048778035  1.0000
  H   H6        1.0  0.14188116663098066  0.662208701665996  0.5276095472471738  1.0000
  H   H7        1.0  0.22584552816236683  0.9653757691644382  0.6185262697824356  1.0000
  H   H8        1.0  0.954104575406852  0.30763749996361156  0.5499517850259252  1.0000
  H   H9        1.0  0.3983463778161677  0.2592671700487798  0.2221554110355513  1.0000
  H   H10       1.0  0.0963536797122231  0.6698222167215989  0.128515745968663  1.0000
  H   H11       1.0  0.5253317371438158  0.7354085818614635  0.3002428621742226  1.0000
  H   H12       1.0  0.45854745443384104  0.24567321750934207  0.8899406042008522  1.0000
  H   H13       1.0  0.7424743640492366  0.3622036975768167  0.2605973693557857  1.0000
  H   H14       1.0  0.60387919564689  0.38018454065145585  0.7063748504784044  1.0000
  H   H15       1.0  0.8959983145255065  0.7415483697127028  0.904964667427926  1.0000
  H   H16       1.0  0.4572766162145214  0.7738696953777405  0.6891386892196678  1.0000
  H   H17       1.0  0.221706648647114  0.31205837881284976  0.7577637160660728  1.0000
  H   H18       1.0  0.9664728663079671  0.773353910880182  0.7934566292313079  1.0000
  H   H19       1.0  0.6806017946674955  0.2932510490875869  0.63631096145631  1.0000
  H   H20       1.0  0.15653456072882926  0.22371474627286858  0.6838837131183979  1.0000
  H   H21       1.0  0.38143593356560507  0.8160774340049244  0.589230967361047  1.0000
  H   H22       1.0  0.027110764632155296  0.7234539459087515  0.2311577154271163  1.0000
  H   H23       1.0  0.3621184084389241  0.5236401140065111  0.7977167360162696  1.0000
  H   H24       1.0  0.3295260002316951  0.17403932516710796  0.30618914446034035  1.0000
  H   H25       1.0  0.7996933932130403  0.2781043004600575  0.350421803168139  1.0000
  H   H26       1.0  0.6065662560864881  0.7628940925145001  0.4002401987151671  1.0000
  H   H27       1.0  0.25531868538644886  0.3768430404710869  0.2328928633870007  1.0000
  H   H28       1.0  0.2097560272105525  0.8162100659016573  0.13393795842462453  1.0000
  H   H29       1.0  0.604492518574098  0.5702403146872328  0.2990089922773437  1.0000
  H   H30       1.0  0.71035112065028  0.21055048646825722  0.1761240959576824  1.0000
  H   H31       1.0  0.7600838191877131  0.4752104636205414  0.7365451046360647  1.0000
  H   H32       1.0  0.7555342035272402  0.8404304172711148  0.8446313967455695  1.0000
  H   H33       1.0  0.3641223238232029  0.6146308166484574  0.684002499359501  1.0000
  H   H34       1.0  0.6076070703532465  0.814473162697702  0.9138972617042  1.0000
  H   H35       1.0  0.33459233202900407  0.1789246141706258  0.809632062054348  1.0000
  H   H36       1.0  0.8468198990103132  0.9122112997727853  0.7754091347144652  1.0000
  H   H37       1.0  0.8341843002225745  0.3983321012814116  0.6476944909557503  1.0000
  H   H38       1.0  0.2597020893375158  0.08332817140232855  0.7366401217415088  1.0000
  H   H39       1.0  0.2864580905673789  0.6571644811322342  0.6004991191443593  1.0000
  H   H40       1.0  0.10876140339919968  0.884737582082664  0.1924574296865913  1.0000
  H   H41       1.0  0.18457907500476267  0.28971644933195506  0.3074070410663907  1.0000
  H   H42       1.0  0.7252574155422238  0.13451662308504098  0.2753291410911913  1.0000
  H   H43       1.0  0.7103833896663191  0.6174576952651165  0.3597577105402436  1.0000
  H   H44       1.0  0.25278450794399987  0.4010623147745917  0.855875738298792  1.0000
  H   H45       1.0  0.2738046240140619  0.4934443072324015  0.1214015604375476  1.0000
  H   H46       1.0  0.5159560315385933  0.7324990820903989  0.8204171866651464  1.0000
  H   H47       1.0  0.8000503827628549  0.6614226806156082  0.9884051990470084  1.0000
  H   H48       1.0  0.5403353561989092  0.39939885308366735  0.8160565898071965  1.0000
  H   H49       1.0  0.7533389304844178  0.4454443012903155  0.1406651249939941  1.0000
  H   H50       1.0  0.45884113478606275  0.7079575023949474  0.16775580109686666  1.0000
  H   H51       1.0  0.19083148810523198  0.6015678794026229  0.03380181597685809  1.0000
  H   H52       1.0  0.47876532522926135  0.3327262745814039  0.1405316964520082  1.0000
  H   H53       1.0  0.7092551089417044  0.8332590673571045  0.4484335653195686  1.0000
  H   H54       1.0  0.8885835190871988  0.2032472615632912  0.4197875249828158  1.0000
  H   H55       1.0  0.25408353363246056  0.066668851681861  0.370103257324196  1.0000
  H   H56       1.0  0.6038486256703591  0.2527681137645885  0.0652101850309137  1.0000
  H   H57       1.0  0.9361518328152555  0.7866433238311286  0.3330498087468854  1.0000
  H   H58       1.0  0.2840135975509241  0.8804586580392451  0.5111383785208901  1.0000
  H   H59       1.0  0.0447963417850019  0.14728172625424205  0.660065625830029  1.0000
  H   H60       1.0  0.7607539533036842  0.17648142130435215  0.6652558829535735  1.0000
  H   H61       1.0  0.002183159394839199  0.7684961918127868  0.6655788204295519  1.0000
  H   H62       1.0  0.6108012362059938  0.49817861166770405  0.1800851025854087  1.0000
  H   H63       1.0  0.3551337691232845  0.8007078994913711  0.06342206429125952  1.0000
  H   H64       1.0  0.11800511616577579  0.9754038610317793  0.3119451539752873  1.0000
  C   C1        1.0  0.6783024851152388  0.5317544234657133  0.8589741925727096  1.0000
  C   C2        1.0  0.8385456663267802  0.6852704209763585  0.4388840573979422  1.0000
  C   C3        1.0  0.7956623586261671  0.036695824263745194  0.381144781507281  1.0000
  C   C4        1.0  0.1027115942203096  0.1883641414014078  0.40437881064016784  1.0000
  C   C5        1.0  0.9021066932281839  0.9342265160534706  0.6349517757387773  1.0000
  C   C6        1.0  0.16602597301142907  0.7220697963265365  0.5178962115323742  1.0000
  C   C7        1.0  0.1736471903116552  0.005070258760120798  0.6200682483810951  1.0000
  C   C8        1.0  0.9122371002908949  0.2638326435364959  0.5747522074612875  1.0000
  C   C9        1.0  0.3093439376172569  0.37274797720515096  0.8711159415324089  1.0000
  C   C10       1.0  0.47919260131112645  0.6785431482651417  0.8267707787836684  1.0000
  C   C11       1.0  0.7434492845831996  0.6921442045438296  0.9772507512165447  1.0000
  C   C12       1.0  0.41368931188284824  0.2931060620458864  0.8891271949334438  1.0000
  C   C13       1.0  0.5808357779867492  0.444219148370223  0.836928445066448  1.0000
  C   C14       1.0  0.7107074830809452  0.4071044554534282  0.1138180810893061  1.0000
  C   C15       1.0  0.49586891273950323  0.6554863177242537  0.1586545707859841  1.0000
  C   C16       1.0  0.24122241192215196  0.6440815187974208  0.0347114232126273  1.0000
  C   C17       1.0  0.4340831567638759  0.3770140052852399  0.1255333840811872  1.0000
  C   C18       1.0  0.7577613825855065  0.7894664919745011  0.4492415537295003  1.0000
  C   C19       1.0  0.8636647221208449  0.1440046669834132  0.41240629844853777  1.0000
  C   C20       1.0  0.20070156716158039  0.10053978404626918  0.38675206752675  1.0000
  C   C21       1.0  0.9789248367459679  0.835633084454798  0.3393480888252682  1.0000
  C   C22       1.0  0.23856926967879835  0.8330050915818459  0.5096788695711824  1.0000
  C   C23       1.0  0.4010091836334127  0.5716435916960807  0.8154620763331479  1.0000
  C   C24       1.0  0.081821225912492  0.09838518469108949  0.6407383769052829  1.0000
  C   C25       1.0  0.8133094935948292  0.195483743402427  0.6319499852714685  1.0000
  C   C26       1.0  0.9722752578216217  0.8224485698831286  0.6474961596696502  1.0000
  C   C27       1.0  0.6516383881057662  0.4805800502292426  0.8054782030910914  1.0000
  C   C28       1.0  0.3407357162077459  0.29783225324423757  0.8514948330988473  1.0000
  C   C29       1.0  0.4325224211164667  0.6380746044211918  0.7761896425358686  1.0000
  C   C30       1.0  0.7304268001469154  0.7590422457828296  0.9324838265257965  1.0000
  C   C31       1.0  0.35778128674883897  0.3955443953779676  0.158199987262023  1.0000
  C   C32       1.0  0.6895715476380458  0.32681100335715735  0.1290467264260116  1.0000
  C   C33       1.0  0.5388920101773705  0.6074982923392654  0.2077155575261571  1.0000
  C   C34       1.0  0.6449995835902413  0.7692756707775883  0.9390308392217149  1.0000
  C   C35       1.0  0.24508010990597023  0.718714574327677  0.06797290138018042  1.0000
  C   C36       1.0  0.0369204544896533  0.8693860764673075  0.2907143544980357  1.0000
  C   C37       1.0  0.7577508684433029  0.7102548611821786  0.4261524140624502  1.0000
  C   C38       1.0  0.8019236340792446  0.11901446560911208  0.36667955226077703  1.0000
  C   C39       1.0  0.17786907899353815  0.1785966352799306  0.3669118460990148  1.0000
  C   C40       1.0  0.9257769740460731  0.8778457180637104  0.6871012410927264  1.0000
  C   C41       1.0  0.2424536718103099  0.7539601698572723  0.5359234385277034  1.0000
  C   C42       1.0  0.15956455764023048  0.07287340721250499  0.6616380137518405  1.0000
  C   C43       1.0  0.8382787416301624  0.27476655807960526  0.6135738641912454  1.0000
  C   C44       1.0  0.3392582181794523  0.2812253098907361  0.24204909491749046  1.0000
  C   C45       1.0  0.32983015787143444  0.4594320115133357  0.115921036089226  1.0000
  C   C46       1.0  0.11613016520238519  0.7292654168377267  0.1440198298178998  1.0000
  C   C47       1.0  0.5650399378496758  0.6869353776417949  0.3174532325547617  1.0000
  C   C48       1.0  0.7401224102850036  0.298170301807147  0.2508698883236846  1.0000
  C   C49       1.0  0.6683406466300924  0.3974896202085745  0.6989838477134143  1.0000
  C   C50       1.0  0.8661874276626947  0.7843512163342508  0.8696068319313426  1.0000
  C   C51       1.0  0.41534675831623247  0.7292224127738576  0.6688269780664413  1.0000
  C   C52       1.0  0.24472187261540063  0.2510969929041238  0.7612727052763617  1.0000
  C   C53       1.0  0.9139743608153381  0.8108943183490354  0.8070360532507834  1.0000
  C   C54       1.0  0.71498551382993  0.3453692561907786  0.6533298293974426  1.0000
  C   C55       1.0  0.20309759982767872  0.19586548570313764  0.7165950468570302  1.0000
  C   C56       1.0  0.635475900473388  0.30856335211013425  0.074699960950575  1.0000
  C   C57       1.0  0.3674080306495  0.7555647051340698  0.6090409044681024  1.0000
  C   C58       1.0  0.06699887183246028  0.7652340140302202  0.20049382202623886  1.0000
  C   C59       1.0  0.29617822706699576  0.22797267649098524  0.2917791160792618  1.0000
  C   C60       1.0  0.7680476587606577  0.2473579308355482  0.3081967755075752  1.0000
  C   C61       1.0  0.6207475787923755  0.707376211764604  0.3730286398179317  1.0000
  C   C62       1.0  0.31410294149131357  0.35230428060673086  0.21500245106299326  1.0000
  C   C63       1.0  0.1881465076451718  0.7584568409759244  0.1156033050513443  1.0000
  C   C64       1.0  0.5669182431902797  0.6191843476445625  0.279193637630712  1.0000
  C   C65       1.0  0.7141065138812837  0.2743405392828534  0.1865445344054635  1.0000
  C   C66       1.0  0.6963062018015478  0.4552661659538799  0.7420792571375046  1.0000
  C   C67       1.0  0.5726541850104283  0.5478184270363472  0.1645549753947719  1.0000
  C   C68       1.0  0.7854128853027477  0.799647391652712  0.8817136194016727  1.0000
  C   C69       1.0  0.40527673061352226  0.6591652460706355  0.7057475886811487  1.0000
  C   C70       1.0  0.307110507719372  0.23804206135478972  0.8060557438018989  1.0000
  C   C71       1.0  0.8951493996455254  0.8704988499983416  0.7603059875882892  1.0000
  C   C72       1.0  0.7968480802378721  0.34568566872344764  0.6371324459524104  1.0000
  C   C73       1.0  0.21216573416155174  0.1159754096464667  0.7087931860720786  1.0000
  C   C74       1.0  0.3020439094773621  0.7175636539495824  0.5815134593697451  1.0000
  C   C75       1.0  0.0703870164300682  0.8415826426958402  0.2228967162151392  1.0000
  C   C76       1.0  0.21937065010138207  0.2361682353941603  0.3202432737831415  1.0000
  C   C77       1.0  0.7609733624976726  0.16679674815332388  0.31401783345588546  1.0000
  C   C78       1.0  0.32513541856337014  0.745402034289519  0.0493902400453692  1.0000
  C   C79       1.0  0.6937291304834119  0.6724239742598783  0.3867015758615082  1.0000
  C   C80       1.0  0.0707368460172049  0.9327144490209562  0.3291961885609709  1.0000
  N   N1        1.0  0.6283595731752597  0.5240784818342165  0.9175579724370024  1.0000
  N   N2        1.0  0.8826421072007166  0.7454755057919086  0.46632604363337293  1.0000
  N   N3        1.0  0.8497153523884792  0.0157696291442093  0.43133422287925777  1.0000
  N   N4        1.0  0.08322005656709308  0.12243169566771427  0.443313325408731  1.0000
  N   N5        1.0  0.9309592186335677  0.9126112796424762  0.5699698622607485  1.0000
  N   N6        1.0  0.1201891092721539  0.7779942791683467  0.48535462662623263  1.0000
  N   N7        1.0  0.11021618674464409  0.9937154090058655  0.5763710545859553  1.0000
  N   N8        1.0  0.9274000454006951  0.1848214235928864  0.5707236572906638  1.0000
  N   N9        1.0  0.35939478891724974  0.40879154153665803  0.9164763105424002  1.0000
  N   N10       1.0  0.47328926290340684  0.639649089460242  0.8905218848018779  1.0000
  N   N11       1.0  0.6721404709053758  0.6646415936616988  0.006616419053109701  1.0000
  N   N12       1.0  0.42454753662093475  0.3591360965848906  0.9272656574583492  1.0000
  N   N13       1.0  0.5686892285925894  0.4701187773656912  0.9038156127002637  1.0000
  N   N14       1.0  0.6713686704922494  0.4340709085377838  0.05605017270205081  1.0000
  N   N15       1.0  0.5065622082086136  0.626907223682899  0.0922384754490722  1.0000
  N   N16       1.0  0.31257902737709037  0.6281914993403389  0.00029230152985349785  1.0000
  N   N17       1.0  0.4482865938040916  0.4246010254888971  0.06812241354925422  1.0000
  N   N18       1.0  0.8315897881708947  0.8097173860583806  0.47219318038251856  1.0000
  N   N19       1.0  0.8919163824930295  0.08214491551474619  0.4500608534683082  1.0000
  N   N20       1.0  0.1440662281596801  0.06796902229643818  0.432349935934873  1.0000
  N   N21       1.0  0.9818884898601682  0.8734886853121322  0.4034092847805013  1.0000
  N   N22       1.0  0.1658249928719187  0.8473943759316426  0.48063409862029266  1.0000
  N   N23       1.0  0.42479598091660614  0.5741210199188413  0.8833422053094395  1.0000
  N   N24       1.0  0.0537469240339021  0.05158552753871248  0.5895384684447934  1.0000
  N   N25       1.0  0.8663709697327346  0.1422035040887693  0.6067329373812456  1.0000
  N   N26       1.0  0.9742871138057081  0.8435223358455344  0.5780099998915773  1.0000
  N   N27       1.0  0.6103987828664755  0.7130962890505897  0.9827864209128592  1.0000
  N   N28       1.0  0.38446692088617596  0.47547458956923083  0.06179358353534071  1.0000
  N   N29       1.0  0.6237881811179093  0.3727779962464837  0.0320600841487035  1.0000
  N   N30       1.0  0.5546934520856297  0.5611342589499984  0.0957708756440923  1.0000
  N   N31       1.0  0.36510110665302153  0.6916007937477457  0.009504251870240002  1.0000
  N   N32       1.0  0.0393306094600803  0.9334588490893051  0.39623125641954  1.0000
