data_image0
_chemical_formula_structural       Zn4H24C28N16O8
_chemical_formula_sum              "Zn4 H24 C28 N16 O8"
_cell_length_a       9.593551928150397
_cell_length_b       11.756998004336026
_cell_length_c       11.759015294759493
_cell_angle_alpha    80.40648676626685
_cell_angle_beta     65.91338445582295
_cell_angle_gamma    65.90651087271388

_space_group_name_H-M_alt    "P 1"
_space_group_IT_number       1

loop_
  _space_group_symop_operation_xyz
  'x, y, z'

loop_
  _atom_site_type_symbol
  _atom_site_label
  _atom_site_symmetry_multiplicity
  _atom_site_fract_x
  _atom_site_fract_y
  _atom_site_fract_z
  _atom_site_occupancy
  Zn  Zn1       1.0  0.13556489711400144  0.4791035569236825  0.1679543728073938  1.0000
  Zn  Zn2       1.0  0.38527617263387254  0.8320787477792493  0.4792431388192355  1.0000
  Zn  Zn3       1.0  0.7826501755708362  0.5210052267752445  0.8321096208625108  1.0000
  Zn  Zn4       1.0  0.6963546899162549  0.1681850530344632  0.5208545665196809  1.0000
  H   H1        1.0  0.06057640660641527  0.42894151968535954  0.9455157722111025  1.0000
  H   H2        1.0  0.5109129556626397  0.054537390534854076  0.4285340287499082  1.0000
  H   H3        1.0  0.43482724908089654  0.5712079984505178  0.0546101188454529  1.0000
  H   H4        1.0  0.9938021160573101  0.9456839694216508  0.5715129309173719  1.0000
  H   H5        1.0  0.3351525050105836  0.8250521791905284  0.2417178300010434  1.0000
  H   H6        1.0  0.8395873727945111  0.7586210401015234  0.8249511329531812  1.0000
  H   H7        1.0  0.4017756036494686  0.17512631750972923  0.758582409666083  1.0000
  H   H8        1.0  0.42320499899302894  0.24140081469528954  0.1750109513293907  1.0000
  H   H9        1.0  0.7304193233932781  0.6586720824578831  0.3605102351946954  1.0000
  H   H10       1.0  0.6108150735270003  0.6397287004583986  0.6586788757486985  1.0000
  H   H11       1.0  0.7495341822704091  0.3413845113503413  0.6397160882042526  1.0000
  H   H12       1.0  0.9090955363638713  0.3606242601609537  0.34154266745015593  1.0000
  H   H13       1.0  0.998917495059338  0.6896201263682682  0.5267027734741986  1.0000
  H   H14       1.0  0.31181676535587144  0.472842427567798  0.6893783767869479  1.0000
  H   H15       1.0  0.21524614586493843  0.3101944665788778  0.4731317132262447  1.0000
  H   H16       1.0  0.47450322673992673  0.5267401418731978  0.3100984156941422  1.0000
  H   H17       1.0  0.9857155345136094  0.8083130115982583  0.4114395387443465  1.0000
  H   H18       1.0  0.20635643861113084  0.5880626789688606  0.8080454515318181  1.0000
  H   H19       1.0  0.20524686487765814  0.19161839619952295  0.5884847183925714  1.0000
  H   H20       1.0  0.6030328584705772  0.411408239299085  0.1914990019307155  1.0000
  H   H21       1.0  0.1818412258854992  0.7042761277831886  0.41054950521488115  1.0000
  H   H22       1.0  0.11410093902588182  0.5889269459266869  0.7041780368249562  1.0000
  H   H23       1.0  0.2968259591647849  0.29540783280046407  0.5891737650904716  1.0000
  H   H24       1.0  0.40754234880586887  0.410814218091687  0.2952141671717996  1.0000
  C   C1        1.0  0.949625925633093  0.49639171187218517  0.0097088276383133  1.0000
  C   C2        1.0  0.5542101700421828  0.9904093229310361  0.49608246275249707  1.0000
  C   C3        1.0  0.45567750329608  0.5036527984632782  0.9904911100601765  1.0000
  C   C4        1.0  0.040541211375590025  0.009818760632256767  0.5039938578724943  1.0000
  C   C5        1.0  0.6996161690132469  0.6287685712943157  0.08824275644107618  1.0000
  C   C6        1.0  0.6716711212480887  0.9120137691415946  0.628552685582811  1.0000
  C   C7        1.0  0.4166000529397705  0.3712744107477873  0.9120332930370125  1.0000
  C   C8        1.0  0.2120559023168269  0.08816265862506606  0.37145964733635845  1.0000
  C   C9        1.0  0.46337361993857235  0.7615495626664879  0.21893045769036226  1.0000
  C   C10       1.0  0.7749300217897782  0.7813871110877242  0.7614289507433867  1.0000
  C   C11       1.0  0.443769544906061  0.2385510686041456  0.7813646707779256  1.0000
  C   C12       1.0  0.3177355499447785  0.21870120738110893  0.2385652499564017  1.0000
  C   C13       1.0  0.6842547605456558  0.6718284197641892  0.28660948805882214  1.0000
  C   C14       1.0  0.6438194538552015  0.7136465607022513  0.67182133396377  1.0000
  C   C15       1.0  0.6426874874537701  0.32814786299755366  0.7136612970235062  1.0000
  C   C16       1.0  0.02913674411889382  0.286599882418784  0.3283294682359212  1.0000
  C   C17       1.0  0.7793815350179257  0.6123188322352675  0.172066341199077  1.0000
  C   C18       1.0  0.6083461222853188  0.8281635784633252  0.6122068521032418  1.0000
  C   C19       1.0  0.5638602780767242  0.3875547227492857  0.8282466709515004  1.0000
  C   C20       1.0  0.048506751247721504  0.17204431837811274  0.38780670505973086  1.0000
  C   C21       1.0  0.05915466095139258  0.6259694782106777  0.3453269932595049  1.0000
  C   C22       1.0  0.3150513770876845  0.6543192328013702  0.6258259111388682  1.0000
  C   C23       1.0  0.030478110403251348  0.3740967101716279  0.6544837894686067  1.0000
  C   C24       1.0  0.5951817634472717  0.3452607393789292  0.3739147355225256  1.0000
  C   C25       1.0  0.05727672309429718  0.7113617275079774  0.4288242885861565  1.0000
  C   C26       1.0  0.23162054150839143  0.5707155609557687  0.7111449772358965  1.0000
  C   C27       1.0  0.1974631479461947  0.28849637154954166  0.5709893340794423  1.0000
  C   C28       1.0  0.5138843582774298  0.4288741561422639  0.2883478311689984  1.0000
  N   N1        1.0  0.9403121884284715  0.5285080075516078  0.11818017303778561  1.0000
  N   N2        1.0  0.5313094918569446  0.8819525960079347  0.5283576848935425  1.0000
  N   N3        1.0  0.5870864049439108  0.4713997403301846  0.8820621125966212  1.0000
  N   N4        1.0  0.9414121621334388  0.11827623274498215  0.4717146923728208  1.0000
  N   N5        1.0  0.8089262209382961  0.553477341487138  0.9869528538923973  1.0000
  N   N6        1.0  0.6377528860801006  0.013244070449402909  0.5531704317091055  1.0000
  N   N7        1.0  0.3492440747093397  0.44662997736413945  0.013252107948680699  1.0000
  N   N8        1.0  0.20403218796136682  0.9869725864339214  0.44688224072092453  1.0000
  N   N9        1.0  0.5423182014156114  0.7039849746798906  0.10933762973664328  1.0000
  N   N10       1.0  0.753637820133768  0.8909606079383462  0.7038133797914128  1.0000
  N   N11       1.0  0.35555644129073716  0.2961150830278425  0.8909574545995582  1.0000
  N   N12       1.0  0.34834251535600913  0.10913127310148948  0.2961966954434203  1.0000
  N   N13       1.0  0.5257012174903436  0.7474059256309571  0.3077137676167965  1.0000
  N   N14       1.0  0.7267554930485859  0.6925563581530623  0.7473874619668947  1.0000
  N   N15       1.0  0.5807260983286752  0.2526829436174721  0.6925334081456427  1.0000
  N   N16       1.0  0.16663123511077782  0.30760087930579516  0.2527236155067598  1.0000
  O   O1        1.0  0.17634559629807012  0.6033840024851072  0.2352666456284851  1.0000
  O   O2        1.0  0.22036095123883115  0.7642802895257857  0.6029874176590297  1.0000
  O   O3        1.0  0.015206431282862714  0.3968687119429646  0.7644300401709573  1.0000
  O   O4        1.0  0.5880209182040163  0.23520206553968132  0.3965003113914348  1.0000
  O   O5        1.0  0.9518943335149713  0.5790721415841631  0.3809794120912784  1.0000
  O   O6        1.0  0.4691691758605289  0.6189310209681762  0.5793343198176686  1.0000
  O   O7        1.0  0.9118737587046223  0.42089496885878214  0.6189624027357111  1.0000
  O   O8        1.0  0.6667850169446153  0.3808084979675356  0.420905399645001  1.0000
