data_image0
_chemical_formula_structural       Zn4H56C81N20O13
_chemical_formula_sum              "Zn4 H56 C81 N20 O13"
_cell_length_a       19.481946091069215
_cell_length_b       20.217949708856523
_cell_length_c       21.555218130445983
_cell_angle_alpha    111.21352718171565
_cell_angle_beta     102.79390232736442
_cell_angle_gamma    113.66310314698451

_space_group_name_H-M_alt    "P 1"
_space_group_IT_number       1

loop_
  _space_group_symop_operation_xyz
  'x, y, z'

loop_
  _atom_site_type_symbol
  _atom_site_label
  _atom_site_symmetry_multiplicity
  _atom_site_fract_x
  _atom_site_fract_y
  _atom_site_fract_z
  _atom_site_occupancy
  Zn  Zn1       1.0  0.6026689104150976  0.6028932397164014  0.504800161111163  1.0000
  Zn  Zn2       1.0  0.3823252288620012  0.3865224845621569  0.4960574747360837  1.0000
  Zn  Zn3       1.0  0.48884996803678155  0.5895200990833658  0.5984633298397384  1.0000
  Zn  Zn4       1.0  0.49266107102331336  0.40114915700089415  0.4001076214492584  1.0000
  H   H1        1.0  0.7523516038880161  0.6076450402995446  0.6082550210814686  1.0000
  H   H2        1.0  0.23172006879467938  0.3637570983779525  0.3721660635758467  1.0000
  H   H3        1.0  0.48976217949735457  0.7609517264038176  0.6439210258074154  1.0000
  H   H4        1.0  0.34458062638397285  0.22987442786384096  0.23612929453445733  1.0000
  H   H5        1.0  0.20497983370202627  0.20464720533322378  0.365526386443399  1.0000
  H   H6        1.0  0.6031709891284224  0.7580291837201756  0.4926009165031075  1.0000
  H   H7        1.0  0.42297372625653656  0.3833056834094037  0.2466517615765511  1.0000
  H   H8        1.0  0.3812506171248558  0.6349255845701122  0.5000098721554025  1.0000
  H   H9        1.0  0.0653358896590106  0.46231848064135034  0.445965402381013  1.0000
  H   H10       1.0  0.9657424238669066  0.4953583925422148  0.4650434047346222  1.0000
  H   H11       1.0  0.4349616293111609  0.29137269905765345  0.5658491533985808  1.0000
  H   H12       1.0  0.009392212708746711  0.629107667751299  0.4725896416247649  1.0000
  H   H13       1.0  0.1130623337733141  0.6043797081107626  0.4862669986745016  1.0000
  H   H14       1.0  0.8865947888578418  0.4018580632958829  0.2687388510621034  1.0000
  H   H15       1.0  0.0069926636604123035  0.4264967106188279  0.2588670937148406  1.0000
  H   H16       1.0  0.8937795092246218  0.40108290129493435  0.38127695088687824  1.0000
  H   H17       1.0  0.9996079222484369  0.38801861071618043  0.3518511884913592  1.0000
  H   H18       1.0  0.486593297997338  0.6149568605101833  0.7529801489995122  1.0000
  H   H19       1.0  0.5781894766147673  0.053391504844817826  0.46400284528124297  1.0000
  H   H20       1.0  0.6144086251296628  0.1303039638564627  0.5561259491331468  1.0000
  H   H21       1.0  0.5927798981859453  0.03467121635145528  0.5991135900535056  1.0000
  H   H22       1.0  0.6029054380086478  0.978900215332416  0.5204555072904923  1.0000
  H   H23       1.0  0.354754987940062  0.9522633894585791  0.4069393517207869  1.0000
  H   H24       1.0  0.43089711104383355  0.9771620872703082  0.3731961620318458  1.0000
  H   H25       1.0  0.38377319674764004  0.04048396463274166  0.5300060338488846  1.0000
  H   H26       1.0  0.3592622709859726  0.9145067074826726  0.5019611594909036  1.0000
  H   H27       1.0  0.6330791332744852  0.37344493909790083  0.343978548561786  1.0000
  H   H28       1.0  0.4757394147346332  0.8940900483809741  0.3993935451772683  1.0000
  H   H29       1.0  0.5206940594907508  0.6143476414273008  0.8602421755883468  1.0000
  H   H30       1.0  0.567753971832424  0.6175417184507523  0.9784085039629103  1.0000
  H   H31       1.0  0.6114343813326855  0.6683789591333774  0.17357235325624018  1.0000
  H   H32       1.0  0.5821201015705455  0.6607578373098375  0.2781232498277291  1.0000
  H   H33       1.0  0.445847754190808  0.35486848182650016  0.7418983949223799  1.0000
  H   H34       1.0  0.5079759000301749  0.4033006851595076  0.05771983159228711  1.0000
  H   H35       1.0  0.4918120436044689  0.35931296478335645  0.8609925185510575  1.0000
  H   H36       1.0  0.4803164637030974  0.39458037563917964  0.16239607687351304  1.0000
  H   H37       1.0  0.2508975273146987  0.07072609488115231  0.17185871136829428  1.0000
  H   H38       1.0  0.37769687300041005  0.34755857026888753  0.6307100534270376  1.0000
  H   H39       1.0  0.1363727759476276  0.9368301999458023  0.05952923517990153  1.0000
  H   H40       1.0  0.991329874590306  0.7463225753186291  0.8552822575577747  1.0000
  H   H41       1.0  0.8222633265281872  0.764978170792986  0.9480377372328802  1.0000
  H   H42       1.0  0.9595594307694667  0.994114347664336  0.11066669569845529  1.0000
  H   H43       1.0  0.705283846319958  0.661175278503613  0.8263127604543217  1.0000
  H   H44       1.0  0.7833711481161458  0.64278752469594  0.4838260924570718  1.0000
  H   H45       1.0  0.5742657456153069  0.30532906973384394  0.4352366644951998  1.0000
  H   H46       1.0  0.598920120934423  0.5782420587989846  0.7263297587102925  1.0000
  H   H47       1.0  0.5808609138166574  0.6523657984251728  0.3833114661017873  1.0000
  H   H48       1.0  0.943016387317975  0.6431361226424954  0.35851982653428377  1.0000
  H   H49       1.0  0.2634563315469478  0.7859843527870041  0.5230788107114747  1.0000
  H   H50       1.0  0.8707939041273391  0.4443843801093124  0.1780632656690386  1.0000
  H   H51       1.0  0.11188490873402661  0.5534535384315687  0.26626847654317487  1.0000
  H   H52       1.0  0.48614396639943885  0.991062148543037  0.7082390885327001  1.0000
  H   H53       1.0  0.5965175915673484  0.20657828274149626  0.7042229861533967  1.0000
  H   H54       1.0  0.2472913030440154  0.7567322486032068  0.38263994036449833  1.0000
  H   H55       1.0  0.955638858126072  0.6558944457472221  0.7452901456794476  1.0000
  H   H56       1.0  0.9906343557447314  0.11190541770513808  0.1973323933818491  1.0000
  C   C1        1.0  0.7047943253419859  0.5989828562626016  0.6281141670026926  1.0000
  C   C2        1.0  0.5041264260673375  0.26684104965568173  0.49873667819353773  1.0000
  C   C3        1.0  0.4450857604519314  0.48142129498585723  0.7223853886907037  1.0000
  C   C4        1.0  0.7373832664777281  0.5084458440259282  0.4062482453153819  1.0000
  C   C5        1.0  0.5402957855098408  0.5855291686962828  0.36005417050220956  1.0000
  C   C6        1.0  0.2795771018423707  0.4292977618489359  0.41033783686471986  1.0000
  C   C7        1.0  0.5222072191353676  0.7516879428903708  0.6097153902738626  1.0000
  C   C8        1.0  0.3226415188042466  0.23493340058870155  0.27881959211241275  1.0000
  C   C9        1.0  0.2510495613187942  0.22252113105234622  0.3446528650010236  1.0000
  C   C10       1.0  0.5798887506533887  0.7494677035652799  0.5321505540400508  1.0000
  C   C11       1.0  0.4610124924440697  0.4483657996824774  0.290478831745446  1.0000
  C   C12       1.0  0.4678709481559196  0.30684606859378494  0.5338268639296685  1.0000
  C   C13       1.0  0.35633031687940797  0.5683393064478253  0.4759440475058766  1.0000
  C   C14       1.0  0.5081773602601061  0.520410420977747  0.28772689030309095  1.0000
  C   C15       1.0  0.2772103874296761  0.5011381269400914  0.4202035803616581  1.0000
  C   C16       1.0  0.5358481387197925  0.7824761885525788  0.5618163596786372  1.0000
  C   C17       1.0  0.24284152526896463  0.18552373668153882  0.2721189317655259  1.0000
  C   C18       1.0  0.9513715335912352  0.46188181779744747  0.4063492333861233  1.0000
  C   C19       1.0  0.01194442952137821  0.6033592004065226  0.41892318828040215  1.0000
  C   C20       1.0  0.09316071767838  0.6016014008993904  0.43309550458283036  1.0000
  C   C21       1.0  0.2077470597445057  0.5063245025667484  0.3929396605033232  1.0000
  C   C22       1.0  0.9349950437810788  0.5122978704483429  0.37128959784325816  1.0000
  C   C23       1.0  0.456174215027545  0.5492763698128015  0.7122137054898018  1.0000
  C   C24       1.0  0.022552108248064  0.4513878138859865  0.39544774722102716  1.0000
  C   C25       1.0  0.07271469674840599  0.5148067502172679  0.3742046562309084  1.0000
  C   C26       1.0  0.013488359292068703  0.48585759986329424  0.2949634702186826  1.0000
  C   C27       1.0  0.927415375635853  0.4699288285404251  0.29179809340403995  1.0000
  C   C28       1.0  0.1474518415202581  0.5127666906019995  0.3782104865124865  1.0000
  C   C29       1.0  0.8611933462456633  0.5113325907807181  0.3755595237078069  1.0000
  C   C30       1.0  0.8037696595483225  0.5095212255278196  0.3900571783035999  1.0000
  C   C31       1.0  0.4438519126281761  0.045699391536970786  0.5491112374234176  1.0000
  C   C32       1.0  0.5663332156229757  0.06579285135988756  0.5133429773626759  1.0000
  C   C33       1.0  0.5662378543299198  0.004372395823295992  0.5388022914733311  1.0000
  C   C34       1.0  0.658347859103138  0.43907865070399754  0.38135043539588037  1.0000
  C   C35       1.0  0.5082307538449129  0.8298679610131643  0.5426114858906743  1.0000
  C   C36       1.0  0.4794748956068204  0.054687229923899704  0.49218085074245704  1.0000
  C   C37       1.0  0.4239873470375883  0.9597877273714984  0.5425048147788799  1.0000
  C   C38       1.0  0.47617270061167716  0.9301118887238854  0.5069902564791844  1.0000
  C   C39       1.0  0.4329688878165641  0.900805185764206  0.4231371926120744  1.0000
  C   C40       1.0  0.4192919968279583  0.969851723778106  0.41855007942294975  1.0000
  C   C41       1.0  0.48353827987146053  0.8675827642918462  0.52095142978024  1.0000
  C   C42       1.0  0.48470832846880535  0.12633865638746036  0.48755827806606067  1.0000
  C   C43       1.0  0.4982642842342954  0.1931018902904852  0.4934566198554648  1.0000
  C   C44       1.0  0.5265049583678872  0.5265171337788812  0.2272671677106571  1.0000
  C   C45       1.0  0.4017150979869939  0.413375260622928  0.6496747559368572  1.0000
  C   C46       1.0  0.5080606230015762  0.4547841240739103  0.16479203371070378  1.0000
  C   C47       1.0  0.5241813569395646  0.45907004069346163  0.10652414244012928  1.0000
  C   C48       1.0  0.560087563191523  0.5364356124265727  0.108846484641802  1.0000
  C   C49       1.0  0.5829085526554181  0.6089335380139856  0.17237395504594125  1.0000
  C   C50       1.0  0.566125693387562  0.6039991078355128  0.23040176348797548  1.0000
  C   C51       1.0  0.5413427775801126  0.5607424542252418  0.9261205205505688  1.0000
  C   C52       1.0  0.5145108206419806  0.558028157124255  0.8597055184794014  1.0000
  C   C53       1.0  0.5307212222668412  0.48791684235417415  0.9269407614598889  1.0000
  C   C54       1.0  0.4766019136894997  0.483460123471481  0.7915584353205103  1.0000
  C   C55       1.0  0.47177697589480516  0.4127517777283741  0.7932252446488091  1.0000
  C   C56       1.0  0.7351307479757239  0.5768424307066695  0.4526434998345578  1.0000
  C   C57       1.0  0.4982058794636329  0.41488839865654364  0.8597596155043232  1.0000
  C   C58       1.0  0.7791369084286118  0.647035712330549  0.7666223722890209  1.0000
  C   C59       1.0  0.767892591765026  0.6793508060511256  0.8313956109472683  1.0000
  C   C60       1.0  0.8331638837072505  0.7382032187573344  0.9002181864000248  1.0000
  C   C61       1.0  0.9154305850982567  0.7675478910760913  0.9083705963082024  1.0000
  C   C62       1.0  0.9277716341713643  0.7276819636113673  0.847809432775378  1.0000
  C   C63       1.0  0.8618656524406916  0.6679011364631293  0.7774067186435899  1.0000
  C   C64       1.0  0.1233808432314589  0.979305720255013  0.09569499542951104  1.0000
  C   C65       1.0  0.1868037214588227  0.05450065640232538  0.1578659852450315  1.0000
  C   C66       1.0  0.04021164495111411  0.9562392518961216  0.07909740154295955  1.0000
  C   C67       1.0  0.5388677818825015  0.3132930832166989  0.4667064116694845  1.0000
  C   C68       1.0  0.1718659537554785  0.11037102052522837  0.20632361724317858  1.0000
  C   C69       1.0  0.08781263369440499  0.08823105220723447  0.18790213326438018  1.0000
  C   C70       1.0  0.024103856244224207  0.0113847219702237  0.12536208736982246  1.0000
  C   C71       1.0  0.6266964580620069  0.5842051748345439  0.688755855466084  1.0000
  C   C72       1.0  0.7079316389833608  0.6054959669495403  0.696427191255374  1.0000
  C   C73       1.0  0.0067932660051966045  0.6627195413590667  0.39305581717475474  1.0000
  C   C74       1.0  0.16678059416335603  0.6766988258425854  0.4420286673940338  1.0000
  C   C75       1.0  0.880776416173184  0.4835218323630599  0.23523368804435305  1.0000
  C   C76       1.0  0.050987553763647504  0.5420396595631444  0.2654496961209317  1.0000
  C   C77       1.0  0.4242127520253689  0.948205876588169  0.6076307915751329  1.0000
  C   C78       1.0  0.49107883883655035  0.12152689376976875  0.6264776564972578  1.0000
  C   C79       1.0  0.35507565601072605  0.813469648296831  0.3820138458777649  1.0000
  C   C80       1.0  0.8874041213593742  0.6308937420991327  0.7213827804453246  1.0000
  C   C81       1.0  0.059660459914916  0.1425727698128583  0.22479952941473869  1.0000
  N   N1        1.0  0.6295343925137828  0.5790994468847117  0.5861746480171134  1.0000
  N   N2        1.0  0.3539825104288568  0.4532486326653709  0.45839255553894975  1.0000
  N   N3        1.0  0.5539151211693181  0.7029970952900155  0.6074014849115839  1.0000
  N   N4        1.0  0.3732868917031312  0.2964814030752123  0.3490676802378161  1.0000
  N   N5        1.0  0.32865869207544307  0.28750274460590935  0.39014399420343426  1.0000
  N   N6        1.0  0.5900076380984842  0.7018250382012708  0.558913644083688  1.0000
  N   N7        1.0  0.4671730326460661  0.46922302049372167  0.35946760852159076  1.0000
  N   N8        1.0  0.4009759198473192  0.5384239389995642  0.4986557566475013  1.0000
  N   N9        1.0  0.5667220589471426  0.5465952218227627  0.04894044755259584  1.0000
  N   N10       1.0  0.5411181943569758  0.4798632568090823  0.9900831814796901  1.0000
  N   N11       1.0  0.9863868104250813  0.8371463411499177  0.9719626049943598  1.0000
  N   N12       1.0  0.47824870223864485  0.3702895187006518  0.5216840079321442  1.0000
  N   N13       1.0  0.9703155284915539  0.882891152516663  0.0172035568183517  1.0000
  N   N14       1.0  0.4245668136924223  0.5242993702637548  0.6399058135354918  1.0000
  N   N15       1.0  0.6131665104276179  0.46445919772236255  0.4104451599719069  1.0000
  N   N16       1.0  0.3901893528715589  0.43897833344432485  0.6006889583768567  1.0000
  N   N17       1.0  0.660896636634952  0.5499559975673378  0.45465254305128167  1.0000
  N   N18       1.0  0.52195785906013  0.37428558419319546  0.48029459183300083  1.0000
  N   N19       1.0  0.5813124773423368  0.569610952123604  0.6233428847887693  1.0000
  N   N20       1.0  0.5165754341694965  0.5544969763660106  0.4025747394947884  1.0000
  O   O1        1.0  0.06764832205318072  0.7293156975646085  0.41213657408134446  1.0000
  O   O2        1.0  0.18352178128301233  0.6781978696039631  0.39053331091108123  1.0000
  O   O3        1.0  0.2133771243927285  0.7357417826052878  0.5131318363794647  1.0000
  O   O4        1.0  0.8464991998627269  0.522643889658809  0.24657387870554692  1.0000
  O   O5        1.0  0.015000895168391504  0.5693126742019459  0.2384266487993897  1.0000
  O   O6        1.0  0.3668762898841962  0.8884660744246773  0.603442960291396  1.0000
  O   O7        1.0  0.4936904186755271  0.006867932856543609  0.6711669430051825  1.0000
  O   O8        1.0  0.45637951731221454  0.14717862246067173  0.6605531583904422  1.0000
  O   O9        1.0  0.575017406956384  0.15955114553359803  0.654923395291341  1.0000
  O   O10       1.0  0.35320217154213646  0.750297430385288  0.3444562025280006  1.0000
  O   O11       1.0  0.2903316920080883  0.8139087618102535  0.3947868050712627  1.0000
  O   O12       1.0  0.8436869691920563  0.5775962520769228  0.6560606122260069  1.0000
  O   O13       1.0  0.1018270273699713  0.21411602499855317  0.27771262016107556  1.0000
