data_image0
_chemical_formula_structural       Li4H54C30S2N18
_chemical_formula_sum              "Li4 H54 C30 S2 N18"
_cell_length_a       10.06737353095114
_cell_length_b       10.299705385224685
_cell_length_c       12.4108
_cell_angle_alpha    78.43255689442086
_cell_angle_beta     67.33267555426364
_cell_angle_gamma    83.01573759372712

_space_group_name_H-M_alt    "P 1"
_space_group_IT_number       1

loop_
  _space_group_symop_operation_xyz
  'x, y, z'

loop_
  _atom_site_type_symbol
  _atom_site_label
  _atom_site_symmetry_multiplicity
  _atom_site_fract_x
  _atom_site_fract_y
  _atom_site_fract_z
  _atom_site_occupancy
  Li  Li1       1.0  0.302144687778636  0.48068547888323115  0.6172692891125138  1.0000
  Li  Li2       1.0  0.697855124836451  0.519313718110574  0.3827290498717417  1.0000
  Li  Li3       1.0  0.4640012028314544  0.675561081076026  0.5165381961631753  1.0000
  Li  Li4       1.0  0.5359986097836398  0.3244381159177863  0.483460948570908  1.0000
  H   H1        1.0  0.24654054526860142  0.2597372291299678  0.8345733730116223  1.0000
  H   H2        1.0  0.753464385436331  0.7402669289795583  0.16541931740706423  1.0000
  H   H3        1.0  0.43261355239562255  0.8739134331661377  0.6283027519148304  1.0000
  H   H4        1.0  0.567386418731374  0.1260827871582393  0.37169845012067526  1.0000
  H   H5        1.0  0.3980787799070882  0.914786081145685  0.5073848452461007  1.0000
  H   H6        1.0  0.6019211383826075  0.0852111314018345  0.49261459668915103  1.0000
  H   H7        1.0  0.3047901893924276  0.5487559554687991  0.8280493713574445  1.0000
  H   H8        1.0  0.6952041881090024  0.4512442337481559  0.17194969583969322  1.0000
  H   H9        1.0  0.4507818975995761  0.654909940775525  0.7821607811615933  1.0000
  H   H10       1.0  0.5492102741540066  0.3450912406645728  0.2178404219599415  1.0000
  H   H11       1.0  0.5304892362318228  0.47788840183969933  0.9076691103044111  1.0000
  H   H12       1.0  0.46950611205027565  0.5221137718235411  0.09233093467855721  1.0000
  H   H13       1.0  0.44878108678645384  0.3537067142257655  0.8737713709372911  1.0000
  H   H14       1.0  0.5512175965360627  0.6462934749911824  0.12622635020920822  1.0000
  H   H15       1.0  0.6669480031512266  0.2219156673188749  0.7570652308940352  1.0000
  H   H16       1.0  0.3330482102369317  0.7780904752369437  0.24293468892375358  1.0000
  H   H17       1.0  0.8154192503312102  0.3089177614960121  0.7504210543302533  1.0000
  H   H18       1.0  0.1845790631301867  0.6910893732829493  0.24957723811179017  1.0000
  H   H19       1.0  0.8867105189096803  0.3827857979132077  0.5384795501285424  1.0000
  H   H20       1.0  0.11328574731577848  0.6172193524194682  0.4615181010403404  1.0000
  H   H21       1.0  0.8121683769989047  0.2308486522862196  0.5490818602423958  1.0000
  H   H22       1.0  0.18782675993397646  0.769157490269599  0.4509167845883866  1.0000
  H   H23       1.0  0.9426987066896043  0.5422459794196186  0.6807616264771569  1.0000
  H   H24       1.0  0.057300135144821206  0.457751233127901  0.3192397634704207  1.0000
  H   H25       1.0  0.9777456941432945  0.672007929996596  0.7395819555993343  1.0000
  H   H26       1.0  0.0222518070493436  0.3279942436666445  0.2604149991088107  1.0000
  H   H27       1.0  0.8455266310608637  0.5682303191202607  0.9437155784408092  1.0000
  H   H28       1.0  0.15447431084680122  0.4317678856504088  0.056289018630018006  1.0000
  H   H29       1.0  0.750567461226261  0.5041842996076227  0.8706037692258164  1.0000
  H   H30       1.0  0.24943101074704538  0.4958198585019105  0.1293981920173124  1.0000
  H   H31       1.0  0.8064308892798806  0.23357726593280154  0.04099492463105751  1.0000
  H   H32       1.0  0.19357666987132657  0.7664179621684326  0.9590024589167429  1.0000
  H   H33       1.0  0.8956967129027474  0.3474517395246508  0.07915150368232564  1.0000
  H   H34       1.0  0.10431052922464092  0.652549441915447  0.9208425710124571  1.0000
  H   H35       1.0  0.07824954196598101  0.1655196882481178  0.0498824294145166  1.0000
  H   H36       1.0  0.9217607710153076  0.8344844698614153  0.9501109956903518  1.0000
  H   H37       1.0  0.0324627458236506  0.11881971374260299  0.937909135340611  1.0000
  H   H38       1.0  0.9675435255230695  0.8811794832512021  0.06208476731818273  1.0000
  H   H39       1.0  0.2686722866910642  0.2955406090657391  0.43028025813493553  1.0000
  H   H40       1.0  0.731324138046304  0.7044615645975085  0.5697299250831662  1.0000
  H   H41       1.0  0.14130299019731044  0.3831281148979642  0.537650236879429  1.0000
  H   H42       1.0  0.8586957987998147  0.6168700898727053  0.4623606734655326  1.0000
  H   H43       1.0  0.0166163356059386  0.1872444139906477  0.6495040444823417  1.0000
  H   H44       1.0  0.9833846063017262  0.8127537907800146  0.35050538708746604  1.0000
  H   H45       1.0  0.11599361631537161  0.1120864874859748  0.5221153282394155  1.0000
  H   H46       1.0  0.8840004969995475  0.887918662846694  0.47788944195342964  1.0000
  H   H47       1.0  0.05496483541683969  0.9660353987674101  0.7723955664276545  1.0000
  H   H48       1.0  0.9450352413847725  0.0339588371106743  0.2276035155595296  1.0000
  H   H49       1.0  0.22521594772928208  0.9526731296842996  0.7895526603862562  1.0000
  H   H50       1.0  0.7747821346736928  0.0473181295243563  0.21044834617784866  1.0000
  H   H51       1.0  0.1971804194157727  0.7545966156282802  0.71794330487986  1.0000
  H   H52       1.0  0.8028207338411022  0.24539762024981124  0.28205302334517773  1.0000
  H   H53       1.0  0.1636739596054468  0.8526709278716852  0.5964308532420616  1.0000
  H   H54       1.0  0.8363249350662798  0.1473252924526918  0.4035682680566098  1.0000
  C   C1        1.0  0.5877955507487655  0.45819674131965366  0.6376369177511023  1.0000
  C   C2        1.0  0.41220195044387253  0.5418054323435868  0.36236487145603036  1.0000
  C   C3        1.0  0.42167139331405673  0.5549474278886848  0.7808937745970397  1.0000
  C   C4        1.0  0.5783240078053495  0.445053753551413  0.2191048074868505  1.0000
  C   C5        1.0  0.5068354738733306  0.4469955342446355  0.8373589240458303  1.0000
  C   C6        1.0  0.4931609508640379  0.5530066394186051  0.16263997867464033  1.0000
  C   C7        1.0  0.7298983843120368  0.3117426207875837  0.7154061061855472  1.0000
  C   C8        1.0  0.2700989583686919  0.6882625295450921  0.2845920142205004  1.0000
  C   C9        1.0  0.7863888452171394  0.3276469655661671  0.5788180536516876  1.0000
  C   C10       1.0  0.21360849746359634  0.6723581847665088  0.42118167825402236  1.0000
  C   C11       1.0  0.0707405076494609  0.3922000111054942  0.8358146929193992  1.0000
  C   C12       1.0  0.9292601172343851  0.6078041470040318  0.16418337229908536  1.0000
  C   C13       1.0  0.9705646066298355  0.5640024563027666  0.7529224092775096  1.0000
  C   C14       1.0  0.0294383296764664  0.4359987251373312  0.24707623446724367  1.0000
  C   C15       1.0  0.8564031026705266  0.509507576776322  0.8749103873869328  1.0000
  C   C16       1.0  0.14359978079846764  0.4904945968869185  0.12508730200740104  1.0000
  C   C17       1.0  0.9031189271951447  0.2909307403377284  0.009839046180879317  1.0000
  C   C18       1.0  0.0968883677695445  0.7090694488792266  0.990155982864323  1.0000
  C   C19       1.0  0.043982001692732794  0.2037391315400399  0.9750955451224428  1.0000
  C   C20       1.0  0.956027446182496  0.796261057676915  0.024896393647949735  1.0000
  C   C21       1.0  0.21201568101039203  0.2925401262776361  0.52649574219177  1.0000
  C   C22       1.0  0.7879831079867331  0.7074580784930262  0.473514362403364  1.0000
  C   C23       1.0  0.12626388750769726  0.1663055289783344  0.5863573314336888  1.0000
  C   C24       1.0  0.8737359251073968  0.8336936680154778  0.41364825929903754  1.0000
  C   C25       1.0  0.315116647235925  0.1698130377931264  0.6500786030139453  1.0000
  C   C26       1.0  0.6848856881508283  0.8301792136386794  0.3499241318982484  1.0000
  C   C27       1.0  0.1731790536757885  0.9646800219524181  0.7243725641405163  1.0000
  C   C28       1.0  0.8268209174512152  0.0353161983719588  0.27562783214516173  1.0000
  C   C29       1.0  0.22299538333800936  0.848625634112736  0.6552974630293774  1.0000
  C   C30       1.0  0.7770034056591157  0.1513725706579336  0.34470297256778076  1.0000
  S   S1        1.0  0.4247143164326915  0.11496095793476262  0.7288763893948769  1.0000
  S   S2        1.0  0.5752882831405799  0.8850263323813152  0.2711230597710994  1.0000
  N   N1        1.0  0.46458401007251376  0.5310993446175303  0.6582395461933926  1.0000
  N   N2        1.0  0.5354093438109473  0.4688998523762749  0.3417624233664824  1.0000
  N   N3        1.0  0.670608618755587  0.4027225375498702  0.5441140465919858  1.0000
  N   N4        1.0  0.32938888243705117  0.5972796361133703  0.4558861311154843  1.0000
  N   N5        1.0  0.6355758944622352  0.43125589850799173  0.7328986883380607  1.0000
  N   N6        1.0  0.36442257751107127  0.5687482596015343  0.2671000499057499  1.0000
  N   N7        1.0  0.1090901700862688  0.49432656266986896  0.7512568409198365  1.0000
  N   N8        1.0  0.8909069084079421  0.5056835487785278  0.2487421479829379  1.0000
  N   N9        1.0  0.14657242931101422  0.2966667823344196  0.884842624143161  1.0000
  N   N10       1.0  0.8534302956460779  0.7033383679982563  0.11515220219992278  1.0000
  N   N11       1.0  0.9238416793888502  0.3780370179450045  0.897011441721503  1.0000
  N   N12       1.0  0.0761644334459604  0.621965155718236  0.1029868496345117  1.0000
  N   N13       1.0  0.31801149788300614  0.2886496193291777  0.5832750355853094  1.0000
  N   N14       1.0  0.6819897082111765  0.7113436243257638  0.4167343332376062  1.0000
  N   N15       1.0  0.2137991785457345  0.090701102058766  0.6495740777834556  1.0000
  N   N16       1.0  0.7862019747111403  0.9092931338193253  0.35042708494056285  1.0000
  N   N17       1.0  0.3777184761658958  0.8455150145556233  0.5829601006416425  1.0000
  N   N18       1.0  0.6222825714163776  0.1544812057687537  0.4170391533815375  1.0000
