data_image0
_chemical_formula_structural       Zn4H12C8N20O12
_chemical_formula_sum              "Zn4 H12 C8 N20 O12"
_cell_length_a       6.571101809360079
_cell_length_b       8.690997802097497
_cell_length_c       10.257425343024083
_cell_angle_alpha    90.0002011046221
_cell_angle_beta     89.99983734401002
_cell_angle_gamma    94.71721365956287

_space_group_name_H-M_alt    "P 1"
_space_group_IT_number       1

loop_
  _space_group_symop_operation_xyz
  'x, y, z'

loop_
  _atom_site_type_symbol
  _atom_site_label
  _atom_site_symmetry_multiplicity
  _atom_site_fract_x
  _atom_site_fract_y
  _atom_site_fract_z
  _atom_site_occupancy
  Zn  Zn1       1.0  0.7631481029305647  0.70041401756184  0.3010222337800529  1.0000
  Zn  Zn2       1.0  0.7368487510530384  0.29959028194949155  0.8010223885879815  1.0000
  Zn  Zn3       1.0  0.23684884105913534  0.2995910752401869  0.6989767849898743  1.0000
  Zn  Zn4       1.0  0.2631479246015616  0.7004125018400771  0.19897857998585528  1.0000
  H   H1        1.0  0.5296810011030786  0.9042827323464592  0.252145963737327  1.0000
  H   H2        1.0  0.9703172928781852  0.0957190568748203  0.7521441084856522  1.0000
  H   H3        1.0  0.47030945605006025  0.09571892301623557  0.7478598793582949  1.0000
  H   H4        1.0  0.02968381185741009  0.9042825528509437  0.24785588517877957  1.0000
  H   H5        1.0  0.8209470428309729  0.24606321625419972  0.5302291318291383  1.0000
  H   H6        1.0  0.6790595725382788  0.7539365016340084  0.030233191433588005  1.0000
  H   H7        1.0  0.17905987790155103  0.7539360583816971  0.4697698869228903  1.0000
  H   H8        1.0  0.3209462296059656  0.24606624304818328  0.96976777713158  1.0000
  H   H9        1.0  0.7963809633161602  0.33485660724051763  0.3743119907666782  1.0000
  H   H10       1.0  0.703625318290861  0.6651398571356352  0.8743210735847672  1.0000
  H   H11       1.0  0.2036240338451734  0.6651392103809926  0.625683128368067  1.0000
  H   H12       1.0  0.29637994717757005  0.3348582695274657  0.1256867192987628  1.0000
  C   C1        1.0  0.7533098739853299  0.4683034255374138  0.5368071937160865  1.0000
  C   C2        1.0  0.7467023980050767  0.5316928289737317  0.036815352056628114  1.0000
  C   C3        1.0  0.24670563658343533  0.5316911919487098  0.4631869505034843  1.0000
  C   C4        1.0  0.2533060437903814  0.46830643916369735  0.9631934157290805  1.0000
  C   C5        1.0  0.7015150810899725  0.6981663851484681  0.5899680914216889  1.0000
  C   C6        1.0  0.7984868763448746  0.30183474483367684  0.08997060715802263  1.0000
  C   C7        1.0  0.29848727640333544  0.30183290903529064  0.41002800262413813  1.0000
  C   C8        1.0  0.20151145455141514  0.6981691869519931  0.9100332861264635  1.0000
  N   N1        1.0  0.731416584234708  0.609484754469669  0.48283871157416786  1.0000
  N   N2        1.0  0.7685852550348782  0.3905167799194941  0.9828439461860373  1.0000
  N   N3        1.0  0.26858894959124063  0.3905156811825847  0.5171554326632946  1.0000
  N   N4        1.0  0.2314115547798039  0.6094871583840769  0.017159947099891305  1.0000
  N   N5        1.0  0.7375129661414659  0.4770125565323226  0.6699224967772539  1.0000
  N   N6        1.0  0.7624881483262625  0.5229842740039458  0.16992572540071654  1.0000
  N   N7        1.0  0.2624874677675777  0.5229832806506423  0.3300765219758831  1.0000
  N   N8        1.0  0.2375111669888881  0.4770150332311473  0.8300781678760958  1.0000
  N   N9        1.0  0.7038309682362607  0.6232587867672307  0.7019268743315978  1.0000
  N   N10       1.0  0.7961685025485535  0.3767381778043981  0.20192668817925621  1.0000
  N   N11       1.0  0.2961680787568568  0.37673821144180414  0.2980721444245377  1.0000
  N   N12       1.0  0.20382902335921924  0.6232588269264168  0.7980742803853506  1.0000
  N   N13       1.0  0.7814578177003141  0.3366002436280694  0.47476801516503314  1.0000
  N   N14       1.0  0.7185459760667002  0.6634047156091397  0.9747731651355598  1.0000
  N   N15       1.0  0.21854534478150356  0.6634059776105444  0.5252310036006664  1.0000
  N   N16       1.0  0.2814556653223121  0.33660151215902795  0.025231703052661206  1.0000
  N   N17       1.0  0.6747061606762798  0.8585328599038318  0.5858084372698544  1.0000
  N   N18       1.0  0.8252884756258752  0.1414705951008344  0.08580653512717623  1.0000
  N   N19       1.0  0.3252887255728112  0.14146762137952604  0.41418863168826214  1.0000
  N   N20       1.0  0.17470515786924068  0.8585322017206422  0.9141924836425237  1.0000
  O   O1        1.0  0.626566124784027  0.9213829678874247  0.6893823235493672  1.0000
  O   O2        1.0  0.8734251178352749  0.0786082067342804  0.18937527273224228  1.0000
  O   O3        1.0  0.37341882997942827  0.07861062545622126  0.3106157203115887  1.0000
  O   O4        1.0  0.12657048450503788  0.9213853409782613  0.8106198464080595  1.0000
  O   O5        1.0  0.7028167040156107  0.9262536873663544  0.47892886247191074  1.0000
  O   O6        1.0  0.7971832266575661  0.07374437443316138  0.9789321444011994  1.0000
  O   O7        1.0  0.2971882931531908  0.07374213024738908  0.5210623570487913  1.0000
  O   O8        1.0  0.20281013850057408  0.9262561133777963  0.021069799075931407  1.0000
  O   O9        1.0  0.5422511031016766  0.8019508092612068  0.21505169889783107  1.0000
  O   O10       1.0  0.9577458119044165  0.1980508386732396  0.7150501658030637  1.0000
  O   O11       1.0  0.4577427987192025  0.19805429658244114  0.784950244585524  1.0000
  O   O12       1.0  0.04225072958449518  0.8019507906081598  0.2849508027692168  1.0000
