data_image0
_chemical_formula_structural       Co2H40C28O16
_chemical_formula_sum              "Co2 H40 C28 O16"
_cell_length_a       5.256121647482087
_cell_length_b       10.146475155150062
_cell_length_c       15.187572197066256
_cell_angle_alpha    101.17792667079513
_cell_angle_beta     99.9686923769422
_cell_angle_gamma    89.9942633537961

_space_group_name_H-M_alt    "P 1"
_space_group_IT_number       1

loop_
  _space_group_symop_operation_xyz
  'x, y, z'

loop_
  _atom_site_type_symbol
  _atom_site_label
  _atom_site_symmetry_multiplicity
  _atom_site_fract_x
  _atom_site_fract_y
  _atom_site_fract_z
  _atom_site_occupancy
  Co  Co1       1.0  0.2113938868296685  0.7444457367381432  0.9973766646070031  1.0000
  Co  Co2       1.0  0.7858353186798652  0.24438780420265963  0.997366329455609  1.0000
  H   H1        1.0  0.8789388210532182  0.8041039649708992  0.10558907058533148  1.0000
  H   H2        1.0  0.7542828956068774  0.7073108959945386  0.8972677293319434  1.0000
  H   H3        1.0  0.1436623655148139  0.20746442098069204  0.8975214190590179  1.0000
  H   H4        1.0  0.2263099476212602  0.30405345802588357  0.1056065034766647  1.0000
  H   H5        1.0  0.9521923410783303  0.93885310411391  0.07874506001682141  1.0000
  H   H6        1.0  0.8594816247459676  0.5649344676439796  0.9129583358453955  1.0000
  H   H7        1.0  0.0538334617173817  0.06501127708249038  0.9130680204669231  1.0000
  H   H8        1.0  0.1263050557612573  0.4387883815092763  0.07870369705302951  1.0000
  H   H9        1.0  0.4740301408120828  0.5638661351967827  0.23638168749182853  1.0000
  H   H10       1.0  0.23482789684066316  0.9397828754979258  0.7619613906830551  1.0000
  H   H11       1.0  0.5268040485540195  0.43994323378467465  0.7620245260053408  1.0000
  H   H12       1.0  0.7621369314975439  0.06361651150060511  0.2362939514872551  1.0000
  H   H13       1.0  0.6323547749754397  0.45734393781693666  0.15907221924785378  1.0000
  H   H14       1.0  0.47160716317149814  0.044562814170149095  0.8396592613266093  1.0000
  H   H15       1.0  0.3674849293672792  0.5446589339676962  0.839687296766854  1.0000
  H   H16       1.0  0.5268893012565031  0.9570959253852751  0.15883748388890953  1.0000
  H   H17       1.0  0.8500687413852714  0.7277705618016197  0.280107980225253  1.0000
  H   H18       1.0  0.562242074976581  0.7704993128142092  0.7220340638086782  1.0000
  H   H19       1.0  0.1602306187968452  0.270408663600449  0.7220051103789942  1.0000
  H   H20       1.0  0.4292784736806112  0.22731032928971473  0.2798692691997857  1.0000
  H   H21       1.0  0.005248694495719516  0.6340567144081604  0.19472291628331817  1.0000
  H   H22       1.0  0.8035340319800711  0.8640392239752469  0.8074726858053936  1.0000
  H   H23       1.0  0.003688670475455112  0.36366048737237827  0.807346381328152  1.0000
  H   H24       1.0  0.18902599320875876  0.13329904788058397  0.19451164898511308  1.0000
  H   H25       1.0  0.863379212328283  0.5285707011721995  0.356963073455212  1.0000
  H   H26       1.0  0.5062391693718454  0.9681104029937514  0.643436686822568  1.0000
  H   H27       1.0  0.13686489446472186  0.4679140488804661  0.6433577412605089  1.0000
  H   H28       1.0  0.4936927005757639  0.028065598229701998  0.3567708774171762  1.0000
  H   H29       1.0  0.02209427355911942  0.43673675538094875  0.2698547241598988  1.0000
  H   H30       1.0  0.7530621137089284  0.05954162796460588  0.7302638456547752  1.0000
  H   H31       1.0  0.9768013799846995  0.5593057614428429  0.7301704561423321  1.0000
  H   H32       1.0  0.2471260494755968  0.936389090467891  0.2699123065195863  1.0000
  H   H33       1.0  0.6353321094294982  0.7127068071188204  0.46498766418190474  1.0000
  H   H34       1.0  0.17011099128272633  0.7815526869952835  0.5358055245257844  1.0000
  H   H35       1.0  0.3659321570935816  0.2815879602183244  0.5356554523379202  1.0000
  H   H36       1.0  0.8304112827343956  0.21282037510088264  0.4651886824577928  1.0000
  H   H37       1.0  0.883585864840633  0.630571773447606  0.5948167711150417  1.0000
  H   H38       1.0  0.2889477544523515  0.8639928100661578  0.406104336733101  1.0000
  H   H39       1.0  0.1172867719067838  0.36409935277443134  0.40599154933278914  1.0000
  H   H40       1.0  0.711614791028829  0.13062301958801467  0.5949036638484343  1.0000
  C   C1        1.0  0.48655149529762537  0.6326840844958708  0.11548582235256787  1.0000
  C   C2        1.0  0.3528726208834314  0.8746075990319541  0.8849462769148815  1.0000
  C   C3        1.0  0.5321014869712641  0.3747612455173909  0.8849737542766647  1.0000
  C   C4        1.0  0.6287123674025707  0.13265766108182217  0.11548203433741117  1.0000
  C   C5        1.0  0.6132470427910163  0.5635866844267098  0.18960078295553728  1.0000
  C   C6        1.0  0.4178252110222402  0.9382949893048929  0.8099255946380451  1.0000
  C   C7        1.0  0.3917873295025274  0.438377115460227  0.8099870370905933  1.0000
  C   C8        1.0  0.5762180870618465  0.06331869114638519  0.18946824770998205  1.0000
  C   C9        1.0  0.8727188288775306  0.6257664254409645  0.24213225869559807  1.0000
  C   C10       1.0  0.6256806440522239  0.8725424889267185  0.7592586581312943  1.0000
  C   C11       1.0  0.1334709919468793  0.3723837102034933  0.7592196425603246  1.0000
  C   C12       1.0  0.36903035309127563  0.1252550779887756  0.24195285724087506  1.0000
  C   C13       1.0  0.9905530620889634  0.5380046534715744  0.30771978245223847  1.0000
  C   C14       1.0  0.6820150588399727  0.9581705454822823  0.692878500102033  1.0000
  C   C15       1.0  0.010655614134712705  0.4579666187250098  0.6928185511556109  1.0000
  C   C16       1.0  0.31702018195445447  0.03762345053286249  0.3076593546731843  1.0000
  C   C17       1.0  0.3588596614423949  0.545558022228711  0.4268122046358442  1.0000
  C   C18       1.0  0.9318859368358545  0.9489347220929288  0.5740957014617151  1.0000
  C   C19       1.0  0.6423589152057829  0.4488863636018436  0.5739824605980886  1.0000
  C   C20       1.0  0.0684139624561624  0.045576028438730994  0.42698405608972206  1.0000
  C   C21       1.0  0.5763695389588576  0.6179898748251488  0.4806014928538929  1.0000
  C   C22       1.0  0.09563634665494898  0.8763649864810643  0.52035837777008  1.0000
  C   C23       1.0  0.4248144839888112  0.37642921273368296  0.5202532169208425  1.0000
  C   C24       1.0  0.905002336090412  0.11814298965239091  0.48083287133029257  1.0000
  C   C25       1.0  0.7178494615827019  0.5706372719300248  0.5538841617974484  1.0000
  C   C26       1.0  0.16423708242589188  0.9238753958080038  0.4471511190060227  1.0000
  C   C27       1.0  0.2831032031681175  0.4239467622491303  0.4470290726369654  1.0000
  C   C28       1.0  0.8366134737977544  0.07073459288373131  0.5540352491529319  1.0000
  O   O1        1.0  0.574306604835833  0.7431574202602603  0.10292969188132162  1.0000
  O   O2        1.0  0.4642374493618888  0.7698710523839978  0.9066017045846381  1.0000
  O   O3        1.0  0.4426953551176211  0.26996895622556133  0.9066551063574477  1.0000
  O   O4        1.0  0.5285247856152112  0.24324063019251696  0.10313000008213889  1.0000
  O   O5        1.0  0.274825906969511  0.5814717438758806  0.06319306008064272  1.0000
  O   O6        1.0  0.1745264085195188  0.9220942513005355  0.9282602055533857  1.0000
  O   O7        1.0  0.7535826868017068  0.4223530501607228  0.9283280295893019  1.0000
  O   O8        1.0  0.7879261021805135  0.0814406399433736  0.0631001620245968  1.0000
  O   O9        1.0  0.23351505142719017  0.6006827759045875  0.3560976176586336  1.0000
  O   O10       1.0  0.8757999859433098  0.8939679162083606  0.6448508251672679  1.0000
  O   O11       1.0  0.7689169237171782  0.3938067321269401  0.6447335365578013  1.0000
  O   O12       1.0  0.12311374883469743  0.10061271288612518  0.3562554548874245  1.0000
  O   O13       1.0  0.030802190286308904  0.855602218038932  0.0962268568277906  1.0000
  O   O14       1.0  0.9149031141166899  0.654541343034701  0.9016815211647397  1.0000
  O   O15       1.0  0.9874369401024194  0.15470263950390967  0.9018927421038113  1.0000
  O   O16       1.0  0.0650914786969281  0.3555500736308587  0.09615407394183248  1.0000
