data_image0
_chemical_formula_structural       CuSiH8C20N8F14
_chemical_formula_sum              "Cu1 Si1 H8 C20 N8 F14"
_cell_length_a       7.98452431650315
_cell_length_b       13.086731155487481
_cell_length_c       13.158529887438734
_cell_angle_alpha    74.86642272082358
_cell_angle_beta     65.40800676472641
_cell_angle_gamma    65.43921334556894

_space_group_name_H-M_alt    "P 1"
_space_group_IT_number       1

loop_
  _space_group_symop_operation_xyz
  'x, y, z'

loop_
  _atom_site_type_symbol
  _atom_site_label
  _atom_site_symmetry_multiplicity
  _atom_site_fract_x
  _atom_site_fract_y
  _atom_site_fract_z
  _atom_site_occupancy
  Cu  Cu1       1.0  0.49668109448996495  0.4982730041353919  0.4952969047959782  1.0000
  Si  Si1       1.0  0.9595252291913361  0.5326800918854816  0.5318188397388112  1.0000
  H   H1        1.0  0.2512008896093649  0.5798142391794274  0.36186689997351346  1.0000
  H   H2        1.0  0.2657309875090307  0.5622270801394579  0.17560656124181406  1.0000
  H   H3        1.0  0.15471698363450073  0.6112516514460397  0.9135860064831718  1.0000
  H   H4        1.0  0.7537721559089764  0.37220043455541685  0.8235042987671334  1.0000
  H   H5        1.0  0.25102334270355453  0.36420598051429215  0.5798287603876133  1.0000
  H   H6        1.0  0.2660947101719486  0.17687159384959025  0.5623998671650908  1.0000
  H   H7        1.0  0.1587733246572328  0.9108569298368537  0.6147433702380027  1.0000
  H   H8        1.0  0.7514611621647306  0.8253035386402207  0.3694428740013365  1.0000
  C   C1        1.0  0.3919791065491225  0.544165374959384  0.29717747451109494  1.0000
  C   C2        1.0  0.4009427041181156  0.5360862785690941  0.1923123726421423  1.0000
  C   C3        1.0  0.5832818224649048  0.4896420277195547  0.10954829218150051  1.0000
  C   C4        1.0  0.7516578030761708  0.45630840669313943  0.1370771110818012  1.0000
  C   C5        1.0  0.7299517826172208  0.466552875615406  0.2454372640530735  1.0000
  C   C6        1.0  0.2830415806644243  0.5542715300107162  0.8569578650885459  1.0000
  C   C7        1.0  0.4580972663657691  0.4978929647489566  0.8793495746274472  1.0000
  C   C8        1.0  0.6159697969439863  0.4191020260895684  0.8090532130782221  1.0000
  C   C9        1.0  0.5901366068973957  0.40607257103756933  0.7162194416415203  1.0000
  C   C10       1.0  0.2778627363896648  0.5320040925343223  0.7611278567673664  1.0000
  C   C11       1.0  0.39187042078516765  0.2995368360307964  0.5437829592514518  1.0000
  C   C12       1.0  0.40114927894004637  0.19398505743441777  0.5359146095800824  1.0000
  C   C13       1.0  0.5835587663733719  0.11115987337201724  0.48910013796279367  1.0000
  C   C14       1.0  0.7516802381961372  0.13920846898459166  0.455608669500009  1.0000
  C   C15       1.0  0.7297255540378131  0.24827550674927326  0.4656659974167567  1.0000
  C   C16       1.0  0.28625041932426853  0.854860711522953  0.5567519422121379  1.0000
  C   C17       1.0  0.4590604597952181  0.8792921404663335  0.49791441621864846  1.0000
  C   C18       1.0  0.615193742471064  0.8094928538184406  0.4182324389352061  1.0000
  C   C19       1.0  0.5907063204016013  0.7150071375613012  0.4069431587888134  1.0000
  C   C20       1.0  0.28195385408545826  0.7572651516364957  0.5368360180287651  1.0000
  N   N1        1.0  0.5550672110105951  0.5063911277013489  0.3245679160716577  1.0000
  N   N2        1.0  0.6046273696016017  0.4669313098464373  0.004578000741908305  1.0000
  N   N3        1.0  0.4536800281385783  0.5243122054661312  0.9782282094359188  1.0000
  N   N4        1.0  0.4314660313670726  0.4653611371138099  0.6861007887360842  1.0000
  N   N5        1.0  0.5546237710211986  0.3276750497399378  0.5053575747834954  1.0000
  N   N6        1.0  0.6054492499192535  0.005408503161845633  0.46669210291103264  1.0000
  N   N7        1.0  0.4540751024321  0.979181770172794  0.52345819644092  1.0000
  N   N8        1.0  0.4346106342368191  0.6825968988553015  0.4689327498918416  1.0000
  F   F1        1.0  0.1773576605348099  0.5379586443997083  0.5354981083078768  1.0000
  F   F2        1.0  0.752172715883248  0.5233306310347174  0.5240049398675523  1.0000
  F   F3        1.0  0.968138844982264  0.6392805626611138  0.42394150297379  1.0000
  F   F4        1.0  0.9690235062515955  0.42536961034488735  0.6387378369358031  1.0000
  F   F5        1.0  0.10566856660553732  0.4360156670126403  0.4365016349799689  1.0000
  F   F6        1.0  0.8134843984405865  0.6278054305059089  0.625304395054947  1.0000
  F   F7        1.0  0.8910205189013928  0.4354400004544843  0.2705481589655179  1.0000
  F   F8        1.0  0.9338684807130808  0.415223943754647  0.06205210837760689  1.0000
  F   F9        1.0  0.10843329070811351  0.5776224868666588  0.7426489813295091  1.0000
  F   F10       1.0  0.728533653532317  0.3245342336577935  0.6519580902991676  1.0000
  F   F11       1.0  0.8904816285121626  0.27384776039194486  0.4344662834456515  1.0000
  F   F12       1.0  0.9340159770304127  0.0639936473588492  0.4146001402038735  1.0000
  F   F13       1.0  0.11484677861043494  0.7362981435839091  0.5869527670322227  1.0000
  F   F14       1.0  0.727698310274974  0.6510229239832626  0.32520779705459546  1.0000
