data_image0
_chemical_formula_structural       Cu4H40C48N12Cl4O4
_chemical_formula_sum              "Cu4 H40 C48 N12 Cl4 O4"
_cell_length_a       7.332289446762829
_cell_length_b       12.008885016842477
_cell_length_c       15.331205006929142
_cell_angle_alpha    90.00118561665649
_cell_angle_beta     89.99924303785804
_cell_angle_gamma    105.32454062669763

_space_group_name_H-M_alt    "P 1"
_space_group_IT_number       1

loop_
  _space_group_symop_operation_xyz
  'x, y, z'

loop_
  _atom_site_type_symbol
  _atom_site_label
  _atom_site_symmetry_multiplicity
  _atom_site_fract_x
  _atom_site_fract_y
  _atom_site_fract_z
  _atom_site_occupancy
  Cu  Cu1       1.0  0.5841642891819844  0.450313374999439  0.33833641184288155  1.0000
  Cu  Cu2       1.0  0.08418247984877784  0.4503197840821402  0.1616709828305432  1.0000
  Cu  Cu3       1.0  0.4158341488634321  0.5496887061956528  0.6616685309738985  1.0000
  Cu  Cu4       1.0  0.9158251186364907  0.5496814144171651  0.8383274373034838  1.0000
  H   H1        1.0  0.38224242959379495  0.23559050660290373  0.2279494027026772  1.0000
  H   H2        1.0  0.8822457341146617  0.23560750842785447  0.2720544754059376  1.0000
  H   H3        1.0  0.6177541181978512  0.7644072574462442  0.7720483651769641  1.0000
  H   H4        1.0  0.11776716532937567  0.764390222667025  0.7279406833599822  1.0000
  H   H5        1.0  0.35379619052133643  0.022212773594453897  0.2412076720994634  1.0000
  H   H6        1.0  0.853781223249392  0.022227762481975305  0.2587994994880205  1.0000
  H   H7        1.0  0.6462196626024408  0.9777823591057031  0.7587933570156125  1.0000
  H   H8        1.0  0.1462289509176243  0.9777699741079217  0.7411963115516755  1.0000
  H   H9        1.0  0.5066749780470233  0.953611166301741  0.37098915712872577  1.0000
  H   H10       1.0  0.006656488671872242  0.9536159934332531  0.1290157501793203  1.0000
  H   H11       1.0  0.4933275478870556  0.04639090669437001  0.6290183947318795  1.0000
  H   H12       1.0  0.9933355932233425  0.04638091531602841  0.8709722337419166  1.0000
  H   H13       1.0  0.6703678591559382  0.09736022581569159  0.48226717917076206  1.0000
  H   H14       1.0  0.17035346291158499  0.09735543359636982  0.0177365759630632  1.0000
  H   H15       1.0  0.32961831513551937  0.90264188011885  0.5177416772746639  1.0000
  H   H16       1.0  0.8296146192057845  0.9026458443392328  0.9822514080749016  1.0000
  H   H17       1.0  0.7605608212209845  0.30614309090047  0.5254967209175092  1.0000
  H   H18       1.0  0.2605718364789098  0.30613895092085397  0.9745068337378697  1.0000
  H   H19       1.0  0.23942497505294102  0.6938581515510548  0.4745062651422245  1.0000
  H   H20       1.0  0.7394094939376784  0.6938614361674736  0.025481150247856004  1.0000
  H   H21       1.0  0.823611428890345  0.4943830792101239  0.5717872673420672  1.0000
  H   H22       1.0  0.32360345421967196  0.4943795835816475  0.9282156164736364  1.0000
  H   H23       1.0  0.1763863318688053  0.5056112257998252  0.4282183276791046  1.0000
  H   H24       1.0  0.6763989221973005  0.5056190328734118  0.07177954233520012  1.0000
  H   H25       1.0  0.9158138664377304  0.6804298656383949  0.6180816105418359  1.0000
  H   H26       1.0  0.4157649501881906  0.6804236016455648  0.881909932627359  1.0000
  H   H27       1.0  0.08420372731033147  0.3195661278487307  0.3819292025409737  1.0000
  H   H28       1.0  0.5842117646585122  0.31957247385516746  0.1180767468105941  1.0000
  H   H29       1.0  0.949604827224121  0.8917608266599119  0.6032278676929153  1.0000
  H   H30       1.0  0.44955084443300547  0.8917532045963839  0.8967616173635022  1.0000
  H   H31       1.0  0.05040845017882129  0.10823776801297673  0.396780988632095  1.0000
  H   H32       1.0  0.5504176946412399  0.10824288729440208  0.10321919172235991  1.0000
  H   H33       1.0  0.8360619493745106  0.9663308554238625  0.46693623863811246  1.0000
  H   H34       1.0  0.336045503952178  0.9663316239778439  0.0330627168931343  1.0000
  H   H35       1.0  0.16393407062355436  0.0336625890207785  0.5330778358199311  1.0000
  H   H36       1.0  0.6639467275676338  0.0336687411383352  0.9669233102619615  1.0000
  H   H37       1.0  0.6823655264830392  0.829345134447891  0.3494856648672667  1.0000
  H   H38       1.0  0.1823845614287904  0.8293590491459712  0.15052583701365313  1.0000
  H   H39       1.0  0.31761837934656967  0.17065179116642779  0.6505355845688783  1.0000
  H   H40       1.0  0.8176354504350273  0.170645580980775  0.8494667127256008  1.0000
  C   C1        1.0  0.44264438504779235  0.19936872882755102  0.2825682271062888  1.0000
  C   C2        1.0  0.942642907639083  0.19938095950833906  0.21743922462225382  1.0000
  C   C3        1.0  0.5573623076410141  0.8006272865604768  0.7174386724271002  1.0000
  C   C4        1.0  0.05735946877300781  0.8006176569546283  0.7825565864510369  1.0000
  C   C5        1.0  0.42863521339625527  0.0824243061635954  0.2904519094898604  1.0000
  C   C6        1.0  0.9286234806706374  0.0824406872434338  0.2095563707903167  1.0000
  C   C7        1.0  0.5713760240892398  0.9175665150597895  0.7095569467797489  1.0000
  C   C8        1.0  0.07138154217196997  0.9175639731019486  0.7904394403224444  1.0000
  C   C9        1.0  0.5130284818286057  0.044757937113288904  0.3629466001653229  1.0000
  C   C10       1.0  0.013011612627430193  0.044763820191263896  0.1370632526697406  1.0000
  C   C11       1.0  0.4869779823744408  0.9552406713090206  0.637064865240788  1.0000
  C   C12       1.0  0.9869823595508647  0.9552374056564614  0.8629279926019322  1.0000
  C   C13       1.0  0.6042125738339978  0.12366939368922661  0.42505945724187916  1.0000
  C   C14       1.0  0.10419807663591031  0.12366771697124788  0.07494973613065528  1.0000
  C   C15       1.0  0.39578336735663555  0.8763301000695094  0.5749500514138006  1.0000
  C   C16       1.0  0.895791201125995  0.876335246666315  0.9250408569064847  1.0000
  C   C17       1.0  0.6084800063120923  0.24059535968653736  0.4132811368365452  1.0000
  C   C18       1.0  0.10848084935988567  0.24059825844005903  0.0867240327323202  1.0000
  C   C19       1.0  0.39151752595152095  0.7594015383735243  0.5867303285862491  1.0000
  C   C20       1.0  0.891511232496242  0.759398650372553  0.9132691693045132  1.0000
  C   C21       1.0  0.764689411744186  0.516333431381284  0.510072338484683  1.0000
  C   C22       1.0  0.26469141360229287  0.5163314118215467  0.9899306462477142  1.0000
  C   C23       1.0  0.23531145238769108  0.4836617314900096  0.4899280384172044  1.0000
  C   C24       1.0  0.7353072528897967  0.4836680764025941  0.0100749488119476  1.0000
  C   C25       1.0  0.7792955090981339  0.6358431478914  0.494103204523384  1.0000
  C   C26       1.0  0.27929923293958586  0.635835439651075  0.0058940971692749  1.0000
  C   C27       1.0  0.22070504769169472  0.3641606574074388  0.505903695093366  1.0000
  C   C28       1.0  0.7207108624151173  0.36416834626083266  0.9940978003325114  1.0000
  C   C29       1.0  0.8669184008594185  0.7154954967973381  0.5594591385082526  1.0000
  C   C30       1.0  0.36688594257027046  0.7154897567055157  0.9405346044746565  1.0000
  C   C31       1.0  0.133095703425063  0.2845143304750835  0.4405510224329348  1.0000
  C   C32       1.0  0.6331031067693829  0.2845157998634136  0.0594520749973597  1.0000
  C   C33       1.0  0.8872825856994452  0.8327658706471013  0.5508044605293989  1.0000
  C   C34       1.0  0.3872567320938173  0.8327663762807659  0.9491890682311992  1.0000
  C   C35       1.0  0.1127228939681117  0.16723360386720293  0.4492017867714111  1.0000
  C   C36       1.0  0.6127283870404198  0.1672270897481312  0.050795002099413  1.0000
  C   C37       1.0  0.8202708252170011  0.8740500567553156  0.4745226923154604  1.0000
  C   C38       1.0  0.3202589594380568  0.874051496310777  0.0254735858682125  1.0000
  C   C39       1.0  0.1797215557270846  0.12595376505231573  0.525488120915952  1.0000
  C   C40       1.0  0.6797295622203875  0.1259497404715759  0.9745143980998493  1.0000
  C   C41       1.0  0.7345817708422827  0.7990041768958421  0.40915700472867655  1.0000
  C   C42       1.0  0.23459821842114786  0.7990149217090234  0.0908432187524824  1.0000
  C   C43       1.0  0.26541356381574127  0.20099704646165859  0.5908551130007424  1.0000
  C   C44       1.0  0.7654130899596864  0.20098540506869259  0.9091486787174219  1.0000
  C   C45       1.0  0.7065694495034833  0.677317709952213  0.4167406550919281  1.0000
  C   C46       1.0  0.2065894212851305  0.6773204863203688  0.0832643296367621  1.0000
  C   C47       1.0  0.2934271689880674  0.3226895599679196  0.5832662445660192  1.0000
  C   C48       1.0  0.7934245334969035  0.322685884387262  0.9167314814593155  1.0000
  N   N1        1.0  0.53221985800635  0.2773535415085391  0.3419917958985792  1.0000
  N   N2        1.0  0.032218191583410834  0.2773642227898351  0.1580131779754765  1.0000
  N   N3        1.0  0.46778501512859794  0.7226476626045226  0.6580170604759701  1.0000
  N   N4        1.0  0.9677793408170031  0.7226326750485796  0.8419800240427193  1.0000
  N   N5        1.0  0.6874269478578726  0.3234979802785745  0.4730550472574535  1.0000
  N   N6        1.0  0.18742845792367288  0.3235020211272115  0.0269515670414364  1.0000
  N   N7        1.0  0.31256823725372834  0.6764997865853745  0.5269485910068995  1.0000
  N   N8        1.0  0.8125591579285397  0.6764940325596883  0.9730462008548885  1.0000
  N   N9        1.0  0.6887618949709449  0.43472018229742565  0.45488384721149805  1.0000
  N   N10       1.0  0.1887716078542852  0.43473156052824896  0.0451219331187005  1.0000
  N   N11       1.0  0.31123699995804793  0.5652767129715954  0.5451237046199325  1.0000
  N   N12       1.0  0.8112384086636766  0.5652782747452606  0.9548693121674179  1.0000
  Cl  Cl1       1.0  0.45047720285017323  0.4609190610253223  0.2077738292440614  1.0000
  Cl  Cl2       1.0  0.9504845214397905  0.4609339514275136  0.29223515569832864  1.0000
  Cl  Cl3       1.0  0.5495360745869745  0.539079533592158  0.7922304612297993  1.0000
  Cl  Cl4       1.0  0.049532615488203556  0.5390672278827751  0.707764568931978  1.0000
  O   O1        1.0  0.6137854019715688  0.61283943305029  0.3544707234917794  1.0000
  O   O2        1.0  0.1138263137352524  0.6128531829148969  0.145546251560809  1.0000
  O   O3        1.0  0.38621250835843307  0.3871583284136336  0.6455400896722026  1.0000
  O   O4        1.0  0.8862030080904122  0.3871540210491987  0.8544515162829996  1.0000
