data_image0
_chemical_formula_structural       Ag4H16C28N4O16
_chemical_formula_sum              "Ag4 H16 C28 N4 O16"
_cell_length_a       3.6064758060429383
_cell_length_b       8.42254525901073
_cell_length_c       23.535528113282933
_cell_angle_alpha    90.00012621500211
_cell_angle_beta     90.00054306487533
_cell_angle_gamma    90.00014144498195

_space_group_name_H-M_alt    "P 1"
_space_group_IT_number       1

loop_
  _space_group_symop_operation_xyz
  'x, y, z'

loop_
  _atom_site_type_symbol
  _atom_site_label
  _atom_site_symmetry_multiplicity
  _atom_site_fract_x
  _atom_site_fract_y
  _atom_site_fract_z
  _atom_site_occupancy
  Ag  Ag1       1.0  0.8879619926167948  0.8500257117882488  0.22280497709819969  1.0000
  Ag  Ag2       1.0  0.612033132006246  0.1499667752266164  0.7228068844880298  1.0000
  Ag  Ag3       1.0  0.1120469471111818  0.3500281394142066  0.2771930612692373  1.0000
  Ag  Ag4       1.0  0.38797258513999117  0.6499665095283267  0.7771932038120967  1.0000
  H   H1        1.0  0.38178896303713117  0.3022927127198118  0.0860447753462452  1.0000
  H   H2        1.0  0.11821311550559699  0.6977066734658949  0.5860449907122672  1.0000
  H   H3        1.0  0.6182280330945885  0.8022911854943475  0.4139549256758599  1.0000
  H   H4        1.0  0.8817928636956366  0.19770962447235974  0.9139551345024445  1.0000
  H   H5        1.0  0.1869835491910194  0.1265236258349703  0.0035067972031939  1.0000
  H   H6        1.0  0.31301616025031354  0.8734811789877672  0.503508279163313  1.0000
  H   H7        1.0  0.8130408004895172  0.6265204576400906  0.49649234302690815  1.0000
  H   H8        1.0  0.6869824654084126  0.37348205742557655  0.996491981956602  1.0000
  H   H9        1.0  0.24167910890740524  0.8339998526215457  0.0142797598593845  1.0000
  H   H10       1.0  0.2582907710077933  0.16600383248415082  0.5142823154547926  1.0000
  H   H11       1.0  0.758315878916541  0.33399718063095224  0.48571911588370403  1.0000
  H   H12       1.0  0.7417122614273807  0.6660076414301488  0.9857190599137056  1.0000
  H   H13       1.0  0.6252594545227267  0.5077404792724496  0.1608502350906349  1.0000
  H   H14       1.0  0.8747096281531411  0.49225874278437265  0.6608523610489527  1.0000
  H   H15       1.0  0.3747254240836212  0.007738837416738404  0.3391483883772466  1.0000
  H   H16       1.0  0.1252979678076613  0.9922585747866395  0.8391467172488518  1.0000
  C   C1        1.0  0.6904864867431114  0.20269503588593812  0.1851780652748545  1.0000
  C   C2        1.0  0.809531248914709  0.7972995896627283  0.6851799081855887  1.0000
  C   C3        1.0  0.30951609875026515  0.7026961066375893  0.3148215587275445  1.0000
  C   C4        1.0  0.190478049775102  0.29730352751491307  0.8148211438176389  1.0000
  C   C5        1.0  0.5622902777509181  0.10163034921018273  0.1359888952086195  1.0000
  C   C6        1.0  0.9377133023538206  0.8983675296024175  0.6359901513336013  1.0000
  C   C7        1.0  0.4377145257988886  0.6016318705674168  0.36401107554047474  1.0000
  C   C8        1.0  0.06229655108909069  0.3983716340600127  0.8640105539276844  1.0000
  C   C9        1.0  0.41054248625174233  0.17328185030559243  0.08749361957378451  1.0000
  C   C10       1.0  0.08946245534281869  0.826717544971402  0.5874938932325833  1.0000
  C   C11       1.0  0.5894738017671767  0.6732826567202185  0.41250683147480777  1.0000
  C   C12       1.0  0.9105414592274456  0.3267205187367708  0.9125067566232091  1.0000
  C   C13       1.0  0.30149530682462705  0.07684286734993154  0.0424530866896191  1.0000
  C   C14       1.0  0.19850405610036856  0.9231586199398056  0.5424548668267875  1.0000
  C   C15       1.0  0.6985204517753374  0.5768405152540838  0.4575455902311917  1.0000
  C   C16       1.0  0.801494842252687  0.4231593808922015  0.9575458575941198  1.0000
  C   C17       1.0  0.3334624955176793  0.9128146642344466  0.047955752630947805  1.0000
  C   C18       1.0  0.16652057353984154  0.08719041944248575  0.5479593896136024  1.0000
  C   C19       1.0  0.6665384704997166  0.41281049201458603  0.45204318405659183  1.0000
  C   C20       1.0  0.8334792535051107  0.5871929314781497  0.9520423497019976  1.0000
  C   C21       1.0  0.4796536922934037  0.8502304955701807  0.098105122791587  1.0000
  C   C22       1.0  0.020329728056744  0.14976659168923595  0.5981056231292285  1.0000
  C   C23       1.0  0.5203386119082366  0.35023178323879745  0.4018958899486194  1.0000
  C   C24       1.0  0.979678760807616  0.6497713256472512  0.9018948899095918  1.0000
  C   C25       1.0  0.4908222272255144  0.672511087558647  0.1053162876158993  1.0000
  C   C26       1.0  0.0091006410027603  0.32748604490917904  0.6053173341096709  1.0000
  C   C27       1.0  0.5091275095876567  0.17251113029895757  0.39468373789890177  1.0000
  C   C28       1.0  0.9909032777740804  0.8274895587694647  0.894682891451005  1.0000
  N   N1        1.0  0.5988602963402271  0.9434376750376432  0.1409298627366553  1.0000
  N   N2        1.0  0.9011352732312258  0.056557860192377504  0.6409321147823448  1.0000
  N   N3        1.0  0.4011325194284864  0.44343974927401336  0.35906952251511376  1.0000
  N   N4        1.0  0.09887547682652098  0.5565589751938591  0.8590696008550652  1.0000
  O   O1        1.0  0.5802546673475887  0.3457336892223284  0.1869094660230886  1.0000
  O   O2        1.0  0.919779812881188  0.6542633217730516  0.6869100826318758  1.0000
  O   O3        1.0  0.4197542489137902  0.8457360585175242  0.3130915432525185  1.0000
  O   O4        1.0  0.080225927870103  0.15426593935067254  0.8130904338810795  1.0000
  O   O5        1.0  0.6507775289660317  0.627127183055919  0.1531627729773817  1.0000
  O   O6        1.0  0.8491855292491406  0.37287080348325236  0.6531660444912433  1.0000
  O   O7        1.0  0.3492052321122755  0.12712912302225024  0.346833818354078  1.0000
  O   O8        1.0  0.15082695700647966  0.8728707119871973  0.8468342161663429  1.0000
  O   O9        1.0  0.3560660447116745  0.582593900860026  0.0695141122498484  1.0000
  O   O10       1.0  0.1437880459739489  0.4174113179661917  0.5695086243066427  1.0000
  O   O11       1.0  0.6438249700831448  0.08258838101934173  0.4304905174803011  1.0000
  O   O12       1.0  0.8562108207800492  0.9174172818497797  0.9304899712246028  1.0000
  O   O13       1.0  0.8985825985386172  0.14059883768216963  0.2226288062116097  1.0000
  O   O14       1.0  0.6014346973664287  0.8593936482334147  0.7226286975040922  1.0000
  O   O15       1.0  0.10142241891475119  0.6406018175464399  0.2773711946691861  1.0000
  O   O16       1.0  0.39857771491708854  0.3593952070826704  0.7773715527333495  1.0000
