data_image0
_chemical_formula_structural       In6H30C48O30
_chemical_formula_sum              "In6 H30 C48 O30"
_cell_length_a       7.272866657064517
_cell_length_b       21.952070761793806
_cell_length_c       21.933207189168673
_cell_angle_alpha    119.52842816223398
_cell_angle_beta     89.99957502511276
_cell_angle_gamma    90.00040584728687

_space_group_name_H-M_alt    "P 1"
_space_group_IT_number       1

loop_
  _space_group_symop_operation_xyz
  'x, y, z'

loop_
  _atom_site_type_symbol
  _atom_site_label
  _atom_site_symmetry_multiplicity
  _atom_site_fract_x
  _atom_site_fract_y
  _atom_site_fract_z
  _atom_site_occupancy
  In  In1       1.0  0.0003890522232125999  0.0005964893512099996  0.4998187481337268  1.0000
  In  In2       1.0  0.4996076095243254  0.0005958138857948999  0.49981870770130854  1.0000
  In  In3       1.0  0.500202709336875  0.4987646804910428  0.9999043414886375  1.0000
  In  In4       1.0  0.9997938845041432  0.4987634853840889  0.9999031308400748  1.0000
  In  In5       1.0  0.9998684650058463  0.001959867762508301  0.001621122512602801  1.0000
  In  In6       1.0  0.500130167642112  0.0019579215387182007  0.0016207743448078003  1.0000
  H   H1        1.0  0.5452074222781603  0.20683700838663555  0.680309577199836  1.0000
  H   H2        1.0  0.954870566439922  0.029597079984547706  0.3205834173509246  1.0000
  H   H3        1.0  0.954737129243746  0.035530003931938815  0.20871905275492963  1.0000
  H   H4        1.0  0.045046289872431096  0.7942344173571527  0.31971262954944285  1.0000
  H   H5        1.0  0.455002186558623  0.9695045055447906  0.6776335669014629  1.0000
  H   H6        1.0  0.45479876549633497  0.9652501129375468  0.7901805056910479  1.0000
  H   H7        1.0  0.9549302592008713  0.3204484573024615  0.7943979160166778  1.0000
  H   H8        1.0  0.5450566031724546  0.6784648949922174  0.9696076091047489  1.0000
  H   H9        1.0  0.5450385970353222  0.7908217860129058  0.9655075645090962  1.0000
  H   H10       1.0  0.4549369709972736  0.679673963598198  0.20685019211167358  1.0000
  H   H11       1.0  0.04517372686328259  0.32019630350781375  0.028788035656909045  1.0000
  H   H12       1.0  0.04525771096841419  0.2091296150969484  0.0359849532809804  1.0000
  H   H13       1.0  0.45495480882390626  0.7942336729569135  0.31971312123223333  1.0000
  H   H14       1.0  0.0449891696286784  0.9695089146233471  0.6776348940760786  1.0000
  H   H15       1.0  0.04519824065066299  0.9652545187110564  0.7901827425803278  1.0000
  H   H16       1.0  0.9547941974112318  0.2068362691671979  0.680308704054312  1.0000
  H   H17       1.0  0.5451242943478289  0.029595723129780503  0.32058370637388833  1.0000
  H   H18       1.0  0.5452603519944786  0.03552917262397411  0.2087191463338557  1.0000
  H   H19       1.0  0.04506007644989299  0.679674711637297  0.20684879033093043  1.0000
  H   H20       1.0  0.4548210008213189  0.3201945136453688  0.028787552882057806  1.0000
  H   H21       1.0  0.454741363074909  0.20912730699746623  0.03598284571745585  1.0000
  H   H22       1.0  0.5450726142537404  0.32044814924491755  0.7943982697482  1.0000
  H   H23       1.0  0.9549376226772563  0.6784672954065556  0.9696087496839355  1.0000
  H   H24       1.0  0.9549594907756427  0.7908231411913746  0.9655077303707602  1.0000
  H   H25       1.0  0.24999681267306775  0.5368254435026358  0.10038534733426735  1.0000
  H   H26       1.0  0.7500019809402401  0.10026906425827059  0.5350095855431007  1.0000
  H   H27       1.0  0.24999662885336696  0.900680052262999  0.46484700586708555  1.0000
  H   H28       1.0  0.7499994091113392  0.5390417062887353  0.938649904700988  1.0000
  H   H29       1.0  0.7500014406355715  0.9194451731879241  0.01007798222808289  1.0000
  H   H30       1.0  0.2500040751123577  0.010651082396037702  0.9192299632559014  1.0000
  C   C1        1.0  0.41682887703350247  0.23252354179757612  0.705382821020649  1.0000
  C   C2        1.0  0.08294369703898498  0.0311261776202301  0.2955977744764625  1.0000
  C   C3        1.0  0.08290592162679639  0.03457978999095701  0.23396496320347646  1.0000
  C   C4        1.0  0.9167410825998058  0.768233063727138  0.29493131949561063  1.0000
  C   C5        1.0  0.5830394398349907  0.9684140038874958  0.7028610508412714  1.0000
  C   C6        1.0  0.5832229679761125  0.9661115132501338  0.7650993423691123  1.0000
  C   C7        1.0  0.08304986394753658  0.2952475193765167  0.7685150667685294  1.0000
  C   C8        1.0  0.41671684302255574  0.7033577142290073  0.9682801041827178  1.0000
  C   C9        1.0  0.4166721563499748  0.7656172757176662  0.9661509054185516  1.0000
  C   C10       1.0  0.5832783691167405  0.7048455151057383  0.23246359829514784  1.0000
  C   C11       1.0  0.9170882313169882  0.29547059390760927  0.030709111764608138  1.0000
  C   C12       1.0  0.917077907754553  0.23426525639843734  0.03485924501691075  1.0000
  C   C13       1.0  0.5832563489411198  0.7682317678072296  0.29493063262965796  1.0000
  C   C14       1.0  0.916958665149103  0.9684168617063376  0.7028647919805593  1.0000
  C   C15       1.0  0.9167654505438562  0.9661149051677712  0.7651006134454408  1.0000
  C   C16       1.0  0.08317777156874939  0.23252329282600212  0.7053826539460675  1.0000
  C   C17       1.0  0.41704716882352943  0.0311253780508807  0.2955978765481788  1.0000
  C   C18       1.0  0.41709601675117364  0.03457899048671461  0.2339650652004366  1.0000
  C   C19       1.0  0.9167218535707987  0.7048457675363481  0.23246285547825357  1.0000
  C   C20       1.0  0.5829187607868744  0.2954703445464234  0.03070894513740548  1.0000
  C   C21       1.0  0.582909812198082  0.2342650070382817  0.03485907838852143  1.0000
  C   C22       1.0  0.41694296476659076  0.2952472431857415  0.7685154288457028  1.0000
  C   C23       1.0  0.08326648370294269  0.7033579853299232  0.9682811068294301  1.0000
  C   C24       1.0  0.08332904500066007  0.7656186012027605  0.9661506074791505  1.0000
  C   C25       1.0  0.249995070649767  0.1305895313605987  0.608240268736374  1.0000
  C   C26       1.0  0.2499992095696584  0.2003818755181399  0.6737301712046461  1.0000
  C   C27       1.0  0.24999221164152624  0.022568357747324803  0.39137106676015077  1.0000
  C   C28       1.0  0.249999878116526  0.028963085369504406  0.326472606209613  1.0000
  C   C29       1.0  0.2499958326460713  0.03593279439071749  0.20266351883043401  1.0000
  C   C30       1.0  0.25001171475865647  0.0353279147986925  0.1341394262945528  1.0000
  C   C31       1.0  0.7499966653900002  0.8705392269281731  0.39168815093086107  1.0000
  C   C32       1.0  0.7500035221503507  0.8005254164172015  0.3263550582654419  1.0000
  C   C33       1.0  0.7500008988152584  0.9771001045108818  0.607210736768309  1.0000
  C   C34       1.0  0.7499946060783739  0.9704149044019132  0.6719422432929606  1.0000
  C   C35       1.0  0.7500041615837175  0.9658030340932555  0.7970965708524888  1.0000
  C   C36       1.0  0.7499896648049142  0.9685014031664991  0.8666933717317139  1.0000
  C   C37       1.0  0.24999217410262983  0.39159096290755013  0.8709996077205846  1.0000
  C   C38       1.0  0.2500060129750352  0.3265175805155494  0.8007705735318  1.0000
  C   C39       1.0  0.2499836763916007  0.6070990178500681  0.9759890637799701  1.0000
  C   C40       1.0  0.24999956190004008  0.6721417662643887  0.9699422751673198  1.0000
  C   C41       1.0  0.24999407070124133  0.7975393243741636  0.9657386730419832  1.0000
  C   C42       1.0  0.25000440850553923  0.8670546154994769  0.9682581232851819  1.0000
  C   C43       1.0  0.7500118788975951  0.6066012591887713  0.13130584178286858  1.0000
  C   C44       1.0  0.7499980639601845  0.6729237519132809  0.20058228102180925  1.0000
  C   C45       1.0  0.7500204312971447  0.39010560033955227  0.020465854688786967  1.0000
  C   C46       1.0  0.7499949137703081  0.3260427519499488  0.02809592722951497  1.0000
  C   C47       1.0  0.7500045099708712  0.2030937425572219  0.0364281175764276  1.0000
  C   C48       1.0  0.7499900369399625  0.13462623098153875  0.035835217000460835  1.0000
  O   O1        1.0  0.0936495563799724  0.10340396136245292  0.583199878970902  1.0000
  O   O2        1.0  0.09333153566081619  0.019921289125029797  0.4160598377287243  1.0000
  O   O3        1.0  0.09372424910046107  0.0344939365901169  0.10741295767541462  1.0000
  O   O4        1.0  0.5935989238444035  0.8976044954709718  0.4165816843342183  1.0000
  O   O5        1.0  0.5932638307784044  0.9799720342059145  0.5827720960822377  1.0000
  O   O6        1.0  0.5934142560960395  0.9701096503982287  0.893755701120604  1.0000
  O   O7        1.0  0.4063995130790515  0.4162768277879891  0.8980547862349724  1.0000
  O   O8        1.0  0.4066918797206539  0.5824158178928087  0.9786948957663314  1.0000
  O   O9        1.0  0.40662105142553867  0.89392341486154  0.9697752247919952  1.0000
  O   O10       1.0  0.9066269064744714  0.581382960601708  0.1045728219851868  1.0000
  O   O11       1.0  0.9063882310361675  0.4145832533009895  0.017269627171607734  1.0000
  O   O12       1.0  0.9062582668745233  0.10789625138291828  0.03495334699940861  1.0000
  O   O13       1.0  0.906401303855908  0.897603674468641  0.41658316989605054  1.0000
  O   O14       1.0  0.9067261981622393  0.9799743567273537  0.5827746849824536  1.0000
  O   O15       1.0  0.9065906289736387  0.9701114545906435  0.8937566653377617  1.0000
  O   O16       1.0  0.4063474383939364  0.1034020950157384  0.5832003899398047  1.0000
  O   O17       1.0  0.4066646555235706  0.019920999288487503  0.41605976251504734  1.0000
  O   O18       1.0  0.4062667590795853  0.0344925882406812  0.10741509370829762  1.0000
  O   O19       1.0  0.5933639102854543  0.5813827341844446  0.10457081717311928  1.0000
  O   O20       1.0  0.5936147254606324  0.41459190929998624  0.017276589296514527  1.0000
  O   O21       1.0  0.5937556310850879  0.10789653822857298  0.034954331566993305  1.0000
  O   O22       1.0  0.09361775772883617  0.4162797592204939  0.8980502446329128  1.0000
  O   O23       1.0  0.09330651087056197  0.5824202923685391  0.9786979596868761  1.0000
  O   O24       1.0  0.09336768005049119  0.8939268459781857  0.9697768588801737  1.0000
  O   O25       1.0  0.2499981366808868  0.9500481282687189  0.5001418861264284  1.0000
  O   O26       1.0  0.7499990952675475  0.050833600741718506  0.4999078602112591  1.0000
  O   O27       1.0  0.24999972921900582  0.5009966840690511  0.05117525105575995  1.0000
  O   O28       1.0  0.7499975016389299  0.5023779039106488  0.9513563615108824  1.0000
  O   O29       1.0  0.25000094677820067  0.027697733195267905  0.9694770915133973  1.0000
  O   O30       1.0  0.7500031571066257  0.9697046389223731  0.02750819335185654  1.0000
