data_image0
_chemical_formula_structural       Cd4H12C20N20O8
_chemical_formula_sum              "Cd4 H12 C20 N20 O8"
_cell_length_a       6.642012969599705
_cell_length_b       9.96155862220742
_cell_length_c       11.888258247806693
_cell_angle_alpha    90.00044195738919
_cell_angle_beta     100.93126982971962
_cell_angle_gamma    90.00050641197016

_space_group_name_H-M_alt    "P 1"
_space_group_IT_number       1

loop_
  _space_group_symop_operation_xyz
  'x, y, z'

loop_
  _atom_site_type_symbol
  _atom_site_label
  _atom_site_symmetry_multiplicity
  _atom_site_fract_x
  _atom_site_fract_y
  _atom_site_fract_z
  _atom_site_occupancy
  Cd  Cd1       1.0  0.6632101984632472  0.6384740113783209  0.5783122367668483  1.0000
  Cd  Cd2       1.0  0.8367888068510186  0.13847072951084982  0.4216867115887197  1.0000
  Cd  Cd3       1.0  0.3367872124458416  0.3615246884075631  0.4216859769702096  1.0000
  Cd  Cd4       1.0  0.1632132360484064  0.8615269664476132  0.5783153443929336  1.0000
  H   H1        1.0  0.8427844769208832  0.18783531308854864  0.8146268131848372  1.0000
  H   H2        1.0  0.6572168339665867  0.6878339384293072  0.1853718530048241  1.0000
  H   H3        1.0  0.1572129818217078  0.8121633867207335  0.185376452548546  1.0000
  H   H4        1.0  0.34278211034398975  0.31216877679779037  0.8146265188322843  1.0000
  H   H5        1.0  0.7472730705093868  0.49660339568615103  0.033822499527211405  1.0000
  H   H6        1.0  0.7527223470149877  0.9965987372936456  0.9661733630694371  1.0000
  H   H7        1.0  0.2527273912502467  0.5034023311153819  0.9661743464070867  1.0000
  H   H8        1.0  0.24728429605717395  0.0034069895525519  0.0338291671960249  1.0000
  H   H9        1.0  0.6453805121664544  0.6515194170196922  0.8641627042164117  1.0000
  H   H10       1.0  0.8546125499438875  0.15152063782439737  0.13583403399787386  1.0000
  H   H11       1.0  0.3546199256367545  0.34848129047527726  0.13583161569929564  1.0000
  H   H12       1.0  0.14539565037512156  0.84848006974395  0.8641711803290377  1.0000
  C   C1        1.0  0.7521377907533522  0.3304644025645942  0.6126321688842608  1.0000
  C   C2        1.0  0.7478596330014966  0.8304694453582686  0.3873661838276519  1.0000
  C   C3        1.0  0.24786116147394216  0.6695312856535979  0.38736704492363566  1.0000
  C   C4        1.0  0.25213013497555903  0.16952925441272274  0.6126337654890222  1.0000
  C   C5        1.0  0.7505986349151428  0.3775409184380294  0.7330051223067854  1.0000
  C   C6        1.0  0.7494010423016422  0.8775408470511653  0.2669912456164525  1.0000
  C   C7        1.0  0.24939879193051695  0.6224567774966873  0.266994775424962  1.0000
  C   C8        1.0  0.25059945928751404  0.12246086433396644  0.7330098102984408  1.0000
  C   C9        1.0  0.8033090910698348  0.2921241554504591  0.8275870512897613  1.0000
  C   C10       1.0  0.6966907854307965  0.7921228978699874  0.17241046352074113  1.0000
  C   C11       1.0  0.1966898771257562  0.7078745443524425  0.1724138465291674  1.0000
  C   C12       1.0  0.30330663347434245  0.20787881349671983  0.8275885922279541  1.0000
  C   C13       1.0  0.7468538722059108  0.4619473570767242  0.9467309626745077  1.0000
  C   C14       1.0  0.7531440882532296  0.9619453409034125  0.0532674600397272  1.0000
  C   C15       1.0  0.2531465975021662  0.5380553581517944  0.053266725246921  1.0000
  C   C16       1.0  0.24685948009923214  0.038059382069278114  0.9467339120548388  1.0000
  C   C17       1.0  0.6912350297783122  0.5479383227207609  0.8530251597891761  1.0000
  C   C18       1.0  0.8087625286915456  0.04793836761550101  0.14697136772881692  1.0000
  C   C19       1.0  0.308765423961468  0.4520613809230413  0.1469708441212205  1.0000
  C   C20       1.0  0.19124257300687475  0.9520633437855965  0.8530301624372071  1.0000
  N   N1        1.0  0.5072857415129945  0.8110101366909462  0.6519770068450937  1.0000
  N   N2        1.0  0.9927175161446871  0.3110061066203756  0.3480226618296456  1.0000
  N   N3        1.0  0.4927147760047888  0.18898956698404132  0.3480257330604033  1.0000
  N   N4        1.0  0.0072814201539728  0.6889915893079605  0.6519748679876471  1.0000
  N   N5        1.0  0.6119753346072088  0.891058449382882  0.7138617441333536  1.0000
  N   N6        1.0  0.8880307295630632  0.3910542266932212  0.2861395761213146  1.0000
  N   N7        1.0  0.3880267162962029  0.10894326201537302  0.2861411538640297  1.0000
  N   N8        1.0  0.11196668135396243  0.6089454769516395  0.7138586376198219  1.0000
  N   N9        1.0  0.7092979816658344  0.9683983209934158  0.7741129893140695  1.0000
  N   N10       1.0  0.7907093048682798  0.4683939648239104  0.2258889603942009  1.0000
  N   N11       1.0  0.2907040612653234  0.031603390400938715  0.22588906668392641  1.0000
  N   N12       1.0  0.20928963941849335  0.5316057388262652  0.7741094114306506  1.0000
  N   N13       1.0  0.6933444829815161  0.5047608617816621  0.7467712958552895  1.0000
  N   N14       1.0  0.8066539344056807  0.004760868192789802  0.25322588033270677  1.0000
  N   N15       1.0  0.306654445344897  0.4952368341427731  0.2532253919626157  1.0000
  N   N16       1.0  0.1933450497502847  0.9952398393358522  0.746776701493168  1.0000
  N   N17       1.0  0.8018796641401027  0.3339002349677429  0.9346377957402794  1.0000
  N   N18       1.0  0.6981208726123287  0.8338959928962526  0.0653600590654548  1.0000
  N   N19       1.0  0.19811928813479088  0.6661014764042791  0.0653614180921309  1.0000
  N   N20       1.0  0.3018796210204401  0.16610772620293093  0.934640154858222  1.0000
  O   O1        1.0  0.6902489554439486  0.4115866825647459  0.5296047137943063  1.0000
  O   O2        1.0  0.8097497424542228  0.911587840874539  0.47039345714083686  1.0000
  O   O3        1.0  0.30974999678335285  0.5884090056534463  0.47039450001359023  1.0000
  O   O4        1.0  0.19024157481329246  0.08840784733265392  0.5296083342460634  1.0000
  O   O5        1.0  0.8133233316737221  0.21193790260889506  0.6016728943402114  1.0000
  O   O6        1.0  0.6866645598388744  0.711937660568161  0.3983245452669522  1.0000
  O   O7        1.0  0.1866756285416855  0.7880597933311366  0.3983271614752439  1.0000
  O   O8        1.0  0.3133236667961725  0.2880610391936146  0.6016744039666264  1.0000
