data_image0
_chemical_formula_structural       Al2H19C26O10F
_chemical_formula_sum              "Al2 H19 C26 O10 F1"
_cell_length_a       6.641180100083628
_cell_length_b       11.173398743635115
_cell_length_c       15.239845911415559
_cell_angle_alpha    80.73854200570422
_cell_angle_beta     77.99363966270792
_cell_angle_gamma    72.81712538730427

_space_group_name_H-M_alt    "P 1"
_space_group_IT_number       1

loop_
  _space_group_symop_operation_xyz
  'x, y, z'

loop_
  _atom_site_type_symbol
  _atom_site_label
  _atom_site_symmetry_multiplicity
  _atom_site_fract_x
  _atom_site_fract_y
  _atom_site_fract_z
  _atom_site_occupancy
  Al  Al1       1.0  0.5197162454849789  0.4830269513421612  0.4926951941448153  1.0000
  Al  Al2       1.0  0.01895678428001448  0.48229896172117737  0.4940662192596291  1.0000
  H   H1        1.0  0.3036638559783284  0.3424201452309461  0.5677249561881366  1.0000
  H   H2        1.0  0.7349089306694624  0.6253183934777764  0.42228679232669464  1.0000
  H   H3        1.0  0.7739004952496559  0.5886300583713078  0.9326327762717241  1.0000
  H   H4        1.0  0.14484439522363596  0.5652793453345595  0.04545575606380229  1.0000
  H   H5        1.0  0.7194357690689018  0.399780765861159  0.22983071891140128  1.0000
  H   H6        1.0  0.8116700129460809  0.40511718051088513  0.06241411899902969  1.0000
  H   H7        1.0  0.39305084147731156  0.4103818501691308  0.7627115743045465  1.0000
  H   H8        1.0  0.29682282845505636  0.3997621649245459  0.9304026889783968  1.0000
  H   H9        1.0  0.7187950793284797  0.11193613516588388  0.41423117721874547  1.0000
  H   H10       1.0  0.2193776153269482  0.07121325330184895  0.6571561839215931  1.0000
  H   H11       1.0  0.40823082202764727  0.08936258749730536  0.5569354894185993  1.0000
  H   H12       1.0  0.526068437949313  0.8541816329500518  0.5527149810638932  1.0000
  H   H13       1.0  0.33645396609367134  0.8364181051856929  0.6522673787986831  1.0000
  H   H14       1.0  0.9475692835675389  0.673382650364637  0.8066647326433978  1.0000
  H   H15       1.0  0.8477988119038711  0.699953033301412  0.7031534900957013  1.0000
  H   H16       1.0  0.05716922551656016  0.5656464129219996  0.7232304444276708  1.0000
  H   H17       1.0  0.8895944518030775  0.6249555897124637  0.1673684520264587  1.0000
  H   H18       1.0  0.9753755877360604  0.6600092521255191  0.2610632792036753  1.0000
  H   H19       1.0  0.9148466916241703  0.5162488342404501  0.26653967572151055  1.0000
  C   C1        1.0  0.8742274718072167  0.25680657772164045  0.4964548325046607  1.0000
  C   C2        1.0  0.6931012417849515  0.49581472633706614  0.654306120651391  1.0000
  C   C3        1.0  0.16608787040925677  0.7092040008030551  0.48657333656256446  1.0000
  C   C4        1.0  0.33920760940873873  0.4759680200596462  0.33184934764030766  1.0000
  C   C5        1.0  0.6377472791908899  0.5031933815907762  0.7536106442346124  1.0000
  C   C6        1.0  0.3820978264775405  0.47892690815279343  0.2315981322333869  1.0000
  C   C7        1.0  0.7466544803999328  0.5567370401556814  0.8009284662527775  1.0000
  C   C8        1.0  0.6925940504837057  0.5473064285873689  0.8951302751405734  1.0000
  C   C9        1.0  0.21531631899699738  0.5266445548823524  0.1800815968456675  1.0000
  C   C10       1.0  0.2708594480347273  0.5265703920346213  0.08636580716585478  1.0000
  C   C11       1.0  0.5944816949271969  0.4359806535303008  0.18843938391654547  1.0000
  C   C12       1.0  0.6458920752568602  0.43929508971169184  0.09506702768043598  1.0000
  C   C13       1.0  0.47495896150680744  0.44938834257824567  0.801262939138823  1.0000
  C   C14       1.0  0.42128994310221646  0.4438556150102499  0.8945905581856408  1.0000
  C   C15       1.0  0.5332712717050326  0.491265987625745  0.9431686760567217  1.0000
  C   C16       1.0  0.4830507662414263  0.48472582269187103  0.042609216925725876  1.0000
  C   C17       1.0  0.9517520184617682  0.11830433778722238  0.4930372951194498  1.0000
  C   C18       1.0  0.09407940793640514  0.8482990678045328  0.4861378884461941  1.0000
  C   C19       1.0  0.12347746420490319  0.04215778356217467  0.5328577625452766  1.0000
  C   C20       1.0  0.9229823978733763  0.9277297689817273  0.44476179431939034  1.0000
  C   C21       1.0  0.19018881223608022  0.9120144700384784  0.5297085995805234  1.0000
  C   C22       1.0  0.8517114866114497  0.057355791006088494  0.44803443140050087  1.0000
  C   C23       1.0  0.28696343539186125  0.04012412931286488  0.5897410320021947  1.0000
  C   C24       1.0  0.36157936513058064  0.8923584003986562  0.586709664433684  1.0000
  C   C25       1.0  0.9088718758291703  0.6273954151989614  0.7562859970648149  1.0000
  C   C26       1.0  0.9864518096559962  0.5844322739705916  0.2205939852976542  1.0000
  O   O1        1.0  0.6841237701279469  0.3108896060735518  0.4828121361730879  1.0000
  O   O2        1.0  0.8747609102420099  0.5100013591979006  0.6145276837362914  1.0000
  O   O3        1.0  0.03364773431903976  0.6536251307891233  0.4748549716404682  1.0000
  O   O4        1.0  0.48150587960904545  0.4945016615687833  0.3689721491405535  1.0000
  O   O5        1.0  0.35669531736827764  0.6560004693029667  0.5000553257608971  1.0000
  O   O6        1.0  0.16245045915178483  0.4563841162380839  0.3733217208505408  1.0000
  O   O7        1.0  0.004282290927584092  0.3105537001010886  0.5134801735112899  1.0000
  O   O8        1.0  0.5581971953105336  0.47089095725200986  0.6161845261736687  1.0000
  O   O9        1.0  0.2770291679723512  0.4270265585791363  0.5370294535592919  1.0000
  O   O10       1.0  0.7619846779026175  0.5391025725288827  0.4502733780051429  1.0000
  F   F1        1.0  0.8208629222507611  0.8777295609488573  0.3969793773031185  1.0000
