data_image0
_chemical_formula_structural       Mn6H18C30N12Cl6O12
_chemical_formula_sum              "Mn6 H18 C30 N12 Cl6 O12"
_cell_length_a       6.835285438190526
_cell_length_b       15.289724878377335
_cell_length_c       15.289690140849057
_cell_angle_alpha    120.00200657572992
_cell_angle_beta     89.99923527351054
_cell_angle_gamma    90.00008561657205

_space_group_name_H-M_alt    "P 1"
_space_group_IT_number       1

loop_
  _space_group_symop_operation_xyz
  'x, y, z'

loop_
  _atom_site_type_symbol
  _atom_site_label
  _atom_site_symmetry_multiplicity
  _atom_site_fract_x
  _atom_site_fract_y
  _atom_site_fract_z
  _atom_site_occupancy
  Mn  Mn1       1.0  0.5000043136893807  3.3785346217999977e-06  0.378544135247104  1.0000
  Mn  Mn2       1.0  0.49999299335596  0.621469070574278  0.6214691643883654  1.0000
  Mn  Mn3       1.0  0.5000133818943766  0.37854229509810716  8.826628942382107e-06  1.0000
  Mn  Mn4       1.0  0.5000023841846187  0.9999970472579208  0.6214671230522271  1.0000
  Mn  Mn5       1.0  0.5000020007517706  0.3785268236038489  0.3785274013938106  1.0000
  Mn  Mn6       1.0  0.499999168135588  0.6214687035575892  0.9999920213986826  1.0000
  H   H1        1.0  0.8759929839401578  0.25401645632013725  0.5080277408457263  1.0000
  H   H2        1.0  0.8760133012093688  0.4919733864109331  0.7459855456935571  1.0000
  H   H3        1.0  0.8760085270193444  0.2540161614244312  0.7459827099742711  1.0000
  H   H4        1.0  0.1239816928860265  0.5080330809002405  0.25401303664401803  1.0000
  H   H5        1.0  0.1240005472420478  0.7459786825355649  0.4919638690193722  1.0000
  H   H6        1.0  0.12399524507380731  0.7459804879548597  0.25401357935812285  1.0000
  H   H7        1.0  0.05291867004758899  0.0930793838731034  0.468879181210184  1.0000
  H   H8        1.0  0.05291857334871251  0.5311363645796376  0.6242049660940695  1.0000
  H   H9        1.0  0.052924432995695304  0.3758032015067912  0.9069304255589472  1.0000
  H   H10       1.0  0.9470703095837222  0.4688694584989221  0.09307075620429121  1.0000
  H   H11       1.0  0.9470890331015839  0.6242011269178961  0.5311328648738325  1.0000
  H   H12       1.0  0.9470771299106389  0.9069283564769677  0.3757957649966742  1.0000
  H   H13       1.0  0.9470807128333831  0.9069210419446563  0.531132731159552  1.0000
  H   H14       1.0  0.9470837357186639  0.46886708184644016  0.3757940678376173  1.0000
  H   H15       1.0  0.9470764130812126  0.624202510580211  0.09306843317231979  1.0000
  H   H16       1.0  0.05292322151068159  0.531137764043237  0.9069282037651193  1.0000
  H   H17       1.0  0.0529162019920122  0.3757864597834343  0.4688621631499998  1.0000
  H   H18       1.0  0.0529339570207483  0.0930652722093157  0.624210132522748  1.0000
  C   C1        1.0  0.5867534157581955  0.17453112221901526  0.3490703855817046  1.0000
  C   C2        1.0  0.5867589323847184  0.650935885699674  0.8254505566466223  1.0000
  C   C3        1.0  0.5867566977826114  0.17454111592188326  0.8254741803491185  1.0000
  C   C4        1.0  0.41323459906789134  0.34906378410283884  0.17452304366292987  1.0000
  C   C5        1.0  0.4132445043047069  0.8254647720093972  0.6509287963586559  1.0000
  C   C6        1.0  0.4132499999290927  0.8254744145541933  0.17454986281354926  1.0000
  C   C7        1.0  0.3830070789198389  0.1976973010209448  0.3953981337216135  1.0000
  C   C8        1.0  0.38302373880377866  0.6046134996167609  0.802307568710731  1.0000
  C   C9        1.0  0.383015765073324  0.19769677421028578  0.8023053971082207  1.0000
  C   C10       1.0  0.6169829592059058  0.3953899468710135  0.19769473541588672  1.0000
  C   C11       1.0  0.6169864520665769  0.802305390341168  0.6046077170833614  1.0000
  C   C12       1.0  0.6169792289737542  0.8023013857225082  0.19769557176439176  1.0000
  C   C13       1.0  0.0228498230340861  0.23823528758255455  0.4764751959917746  1.0000
  C   C14       1.0  0.022827098662645498  0.5235251617368775  0.7617632217402458  1.0000
  C   C15       1.0  0.022851507767690297  0.23823900647852267  0.7617614504436361  1.0000
  C   C16       1.0  0.9771532654576376  0.4764760190513613  0.23823533343924203  1.0000
  C   C17       1.0  0.9771641900521357  0.7617568304222219  0.5235194815863551  1.0000
  C   C18       1.0  0.9771522643020631  0.7617583981568997  0.23823652459968506  1.0000
  C   C19       1.0  0.11970476770026289  0.1495762918088133  0.4547016922063563  1.0000
  C   C20       1.0  0.1197384748522978  0.5453155016807472  0.6948864248969144  1.0000
  C   C21       1.0  0.11972557306582128  0.3051177785803532  0.8504211559311586  1.0000
  C   C22       1.0  0.8802661062698576  0.4546884579707182  0.149570145126809  1.0000
  C   C23       1.0  0.8802753444859378  0.694885661748188  0.5453053190956894  1.0000
  C   C24       1.0  0.8802717897876348  0.8504251372220466  0.305118803846895  1.0000
  C   C25       1.0  0.8802712072665599  0.8504233787759077  0.5453078804998412  1.0000
  C   C26       1.0  0.8802711492400875  0.45468567900659446  0.3051095140009963  1.0000
  C   C27       1.0  0.8802708840639327  0.6948803812266604  0.14957392655467328  1.0000
  C   C28       1.0  0.1197391287598819  0.5453187646079128  0.8504314309671415  1.0000
  C   C29       1.0  0.1197035566409852  0.30511325337000267  0.4546927572530848  1.0000
  C   C30       1.0  0.1197261302384476  0.1495654705015781  0.694882313006346  1.0000
  N   N1        1.0  0.3003766358525723  0.12964111305906556  0.4145390361200967  1.0000
  N   N2        1.0  0.3003495754250308  0.5854616673138436  0.715103476712528  1.0000
  N   N3        1.0  0.3003643768291511  0.28490367387996673  0.8703661658913191  1.0000
  N   N4        1.0  0.6996286675882928  0.4145377670300334  0.1296379522471156  1.0000
  N   N5        1.0  0.6996429779138255  0.7150980061403234  0.5854528639028305  1.0000
  N   N6        1.0  0.6996300635058647  0.8703590493806886  0.28490484822486906  1.0000
  N   N7        1.0  0.6996359141883416  0.8703645990232474  0.5854604766086523  1.0000
  N   N8        1.0  0.6996366406633496  0.4145327164893117  0.2848956040626048  1.0000
  N   N9        1.0  0.6996306172054787  0.7150899547355748  0.12963515339333748  1.0000
  N   N10       1.0  0.30035754841797063  0.585462658671233  0.8703674197495845  1.0000
  N   N11       1.0  0.3003812761564504  0.2848978879506348  0.4145417396401143  1.0000
  N   N12       1.0  0.30038248644228815  0.12963608971950438  0.7150998424143395  1.0000
  Cl  Cl1       1.0  0.2952713548631607  0.9266862827574514  0.46334373992474553  1.0000
  Cl  Cl2       1.0  0.29526194556168406  0.5366510070213834  0.4633350363445672  1.0000
  Cl  Cl3       1.0  0.2952676427347285  0.5366586850108702  0.07331331271541319  1.0000
  Cl  Cl4       1.0  0.7047434444652438  0.46335155818519513  0.9266760389716211  1.0000
  Cl  Cl5       1.0  0.7047286595712023  0.4633388453615837  0.5366598165293226  1.0000
  Cl  Cl6       1.0  0.7047353431369742  0.0733171637440364  0.5366592182442247  1.0000
  O   O1        1.0  0.6629142027397349  0.0923014680519927  0.332763561010502  1.0000
  O   O2        1.0  0.662920603439531  0.6672350683669634  0.7595411174933203  1.0000
  O   O3        1.0  0.662920674332348  0.24046443132333195  0.9076985962787633  1.0000
  O   O4        1.0  0.3370926476565188  0.3327675359329589  0.0923093000706174  1.0000
  O   O5        1.0  0.3370717735680556  0.7595427682302328  0.667230904791239  1.0000
  O   O6        1.0  0.33707824732334757  0.9076990676197951  0.24046474090424388  1.0000
  O   O7        1.0  0.3370822543689797  0.9076936708951493  0.667232627139832  1.0000
  O   O8        1.0  0.3370773167394105  0.33275553913714606  0.2404495346822983  1.0000
  O   O9        1.0  0.33706700470120404  0.7595390152217831  0.09230501600546867  1.0000
  O   O10       1.0  0.6629359952649382  0.6672427075785095  0.907696402607904  1.0000
  O   O11       1.0  0.6629100535980824  0.24045312592744486  0.3327636989143627  1.0000
  O   O12       1.0  0.6629182096163007  0.0923006029052829  0.7595435236387189  1.0000
