data_image0
_chemical_formula_structural       Zn2H18C32N2O16
_chemical_formula_sum              "Zn2 H18 C32 N2 O16"
_cell_length_a       9.519775209728996
_cell_length_b       10.871652720161281
_cell_length_c       13.079934495258845
_cell_angle_alpha    86.27427269452296
_cell_angle_beta     102.45307789068727
_cell_angle_gamma    107.43070478612034

_space_group_name_H-M_alt    "P 1"
_space_group_IT_number       1

loop_
  _space_group_symop_operation_xyz
  'x, y, z'

loop_
  _atom_site_type_symbol
  _atom_site_label
  _atom_site_symmetry_multiplicity
  _atom_site_fract_x
  _atom_site_fract_y
  _atom_site_fract_z
  _atom_site_occupancy
  Zn  Zn1       1.0  0.34172936541649784  0.45866730890740826  0.4854717423737113  1.0000
  Zn  Zn2       1.0  0.6583535228403434  0.5413311441707407  0.5145481573029613  1.0000
  H   H1        1.0  0.6602777901871449  0.4815978977242993  0.20141997883212073  1.0000
  H   H2        1.0  0.3396057408500823  0.5184117274985739  0.7985833719563331  1.0000
  H   H3        1.0  0.7687964154983788  0.43704535808055317  0.05792559424357079  1.0000
  H   H4        1.0  0.2310556585884314  0.5629117366146446  0.9421022715231899  1.0000
  H   H5        1.0  0.7845319290830159  0.47042166301216076  0.3552754016065691  1.0000
  H   H6        1.0  0.2155947624707508  0.5297419541062356  0.6447161770863942  1.0000
  H   H7        1.0  0.11251248668225595  0.5923780582633925  0.06747543622313398  1.0000
  H   H8        1.0  0.8873175203839804  0.4074647577663413  0.932587900491498  1.0000
  H   H9        1.0  0.4862362058176259  0.7570816130291504  0.6872431490915502  1.0000
  H   H10       1.0  0.5140640138448092  0.2430693868657201  0.3127233376437957  1.0000
  H   H11       1.0  0.39048223890682715  0.17201077629867  0.7784478102442449  1.0000
  H   H12       1.0  0.5591295778378507  0.14178517314809366  0.7621608199974474  1.0000
  H   H13       1.0  0.4017078942367646  0.009782331408430902  0.7884551934002744  1.0000
  H   H14       1.0  0.440886892528624  0.8576774805274991  0.23807361638041155  1.0000
  H   H15       1.0  0.6097749186093251  0.8281001346559761  0.2215452275333476  1.0000
  H   H16       1.0  0.5977403089785013  0.9900696693718418  0.2114749907603368  1.0000
  H   H17       1.0  0.09325355664129378  0.3361362009351224  0.31579122219841343  1.0000
  H   H18       1.0  0.9066894109434073  0.6638518999245947  0.684257149701196  1.0000
  C   C1        1.0  0.5406428469451611  0.7462624653167752  0.5170695231332587  1.0000
  C   C2        1.0  0.4594481674246467  0.25376481606961937  0.4828888452299509  1.0000
  C   C3        1.0  0.47016302673068106  0.1181035971163524  0.4863855032103785  1.0000
  C   C4        1.0  0.5299330336192085  0.8819314227870835  0.5135810207146817  1.0000
  C   C5        1.0  0.8814390990935336  0.48424713090728483  0.41972806900441373  1.0000
  C   C6        1.0  0.1187145787524173  0.5159717859361238  0.580248297260539  1.0000
  C   C7        1.0  0.008076203347847912  0.44949115441951915  0.4103671991406941  1.0000
  C   C8        1.0  0.9920859913459027  0.550744740858491  0.5896076356189468  1.0000
  C   C9        1.0  0.5351275981539557  0.4725472909768983  0.7033575988668872  1.0000
  C   C10       1.0  0.4647883689354089  0.5274325950622016  0.2966514164879754  1.0000
  C   C11       1.0  0.4556493948247393  0.5332545494411108  0.1803149868358958  1.0000
  C   C12       1.0  0.5442363941699071  0.4667252273225272  0.8196954127191632  1.0000
  C   C13       1.0  0.6754043401621741  0.45592437554779497  0.0006471476650204673  1.0000
  C   C14       1.0  0.32445548616755093  0.5440248434386561  0.9993696592568426  1.0000
  C   C15       1.0  0.6674674282916441  0.44260176701491355  0.8945317128008199  1.0000
  C   C16       1.0  0.33241777201681794  0.5573729124233894  0.10548713557673041  1.0000
  C   C17       1.0  0.4329315065746042  0.4989945634853825  0.854851061107766  1.0000
  C   C18       1.0  0.566937974643423  0.5009807263601261  0.145151161536468  1.0000
  C   C19       1.0  0.4377336760965703  0.5105715832988338  0.9627638040099028  1.0000
  C   C20       1.0  0.5621313928726221  0.4893908853357375  0.03724193411053279  1.0000
  C   C21       1.0  0.46302269006840635  0.921614755869932  0.5868227097683061  1.0000
  C   C22       1.0  0.5370410843920437  0.0784164997181094  0.4131373439134122  1.0000
  C   C23       1.0  0.4334589757438464  0.04252462481730391  0.5734524813706159  1.0000
  C   C24       1.0  0.5666624196240946  0.9575257641914162  0.4265338948262212  1.0000
  C   C25       1.0  0.21629717256330136  0.609467848808059  0.1306866915656997  1.0000
  C   C26       1.0  0.7835736015539253  0.3904750188036984  0.8693362835527125  1.0000
  C   C27       1.0  0.4184211595251951  0.8264470805982002  0.6688354910038682  1.0000
  C   C28       1.0  0.581681894821912  0.17354964524165695  0.33110979933621815  1.0000
  C   C29       1.0  0.43602812467131  0.10295975267516871  0.7492373635931457  1.0000
  C   C30       1.0  0.563931156941443  0.8969050060261028  0.2508004465988094  1.0000
  C   C31       1.0  0.013353064759534993  0.39367774442051473  0.3098491309928022  1.0000
  C   C32       1.0  0.9866831248887138  0.6064019869917489  0.6901606094647406  1.0000
  N   N1        1.0  0.12611676033163377  0.46540884586151793  0.491637411895546  1.0000
  N   N2        1.0  0.8740235280399061  0.5347828835598349  0.5083469471915408  1.0000
  O   O1        1.0  0.41402643462603805  0.6591166448327642  0.5019157765782083  1.0000
  O   O2        1.0  0.5860716815647679  0.34090836003272074  0.4981162854845564  1.0000
  O   O3        1.0  0.669227976889502  0.7287788465327837  0.5325130604155532  1.0000
  O   O4        1.0  0.3308593749427117  0.27124102464761535  0.46736844440629705  1.0000
  O   O5        1.0  0.40328440680637817  0.4405785682478155  0.645971273876043  1.0000
  O   O6        1.0  0.5966440505368452  0.559316999449166  0.3540189662019059  1.0000
  O   O7        1.0  0.657250688667652  0.5162964651984154  0.6710462738851604  1.0000
  O   O8        1.0  0.3426661383103919  0.48379382437865126  0.32897736879712614  1.0000
  O   O9        1.0  0.22970492153343267  0.6717741082387578  0.2086183364581444  1.0000
  O   O10       1.0  0.7701906049668705  0.3282439109180331  0.7913764681105562  1.0000
  O   O11       1.0  0.31523232726332406  0.8172244018478739  0.7139280960090417  1.0000
  O   O12       1.0  0.6847741196172803  0.1825752432063297  0.2859619283222514  1.0000
  O   O13       1.0  0.3724872542943415  0.09407703360846402  0.6385236495237622  1.0000
  O   O14       1.0  0.627749557322474  0.9060673355410315  0.3614774840916652  1.0000
  O   O15       1.0  0.9337029071864859  0.41219229936767476  0.22742330574811834  1.0000
  O   O16       1.0  0.06630670653149204  0.5878330041200572  0.7725825485899235  1.0000
