data_image0
_chemical_formula_structural       Co2P4H14C8N6O14
_chemical_formula_sum              "Co2 P4 H14 C8 N6 O14"
_cell_length_a       5.129562137010921
_cell_length_b       9.52308988807212
_cell_length_c       10.882737478868458
_cell_angle_alpha    64.67459361004752
_cell_angle_beta     87.69901018287368
_cell_angle_gamma    74.98923774144711

_space_group_name_H-M_alt    "P 1"
_space_group_IT_number       1

loop_
  _space_group_symop_operation_xyz
  'x, y, z'

loop_
  _atom_site_type_symbol
  _atom_site_label
  _atom_site_symmetry_multiplicity
  _atom_site_fract_x
  _atom_site_fract_y
  _atom_site_fract_z
  _atom_site_occupancy
  Co  Co1       1.0  0.4341105266970686  0.9453087782044348  0.3795062223725907  1.0000
  Co  Co2       1.0  0.5658907975979658  0.0546907395345855  0.6204946189561156  1.0000
  P   P1        1.0  0.8510802753305311  0.17403243090472392  0.1962512658852233  1.0000
  P   P2        1.0  0.1489235410158754  0.8259658800492956  0.8037499816917941  1.0000
  P   P3        1.0  0.9888240599545948  0.25731960073868976  0.4229104204974091  1.0000
  P   P4        1.0  0.011178681130324714  0.7426811236290476  0.5770890280802377  1.0000
  H   H1        1.0  0.9122054433123452  0.48944339783553664  0.4291204793082527  1.0000
  H   H2        1.0  0.08779479407478158  0.5105585295032994  0.5708804024289121  1.0000
  H   H3        1.0  0.9344628362952176  0.28106262903963863  0.9744889519783937  1.0000
  H   H4        1.0  0.06553849382303414  0.7189368906063363  0.025510969646397534  1.0000
  H   H5        1.0  0.6678532675735623  0.5239496679656667  0.06288525272347567  1.0000
  H   H6        1.0  0.3321494793345678  0.4760510583090251  0.9371132761502493  1.0000
  H   H7        1.0  0.48569130646790615  0.4507411442197408  0.21002753664479462  1.0000
  H   H8        1.0  0.5143041807697131  0.5492583823349833  0.7899706457704311  1.0000
  H   H9        1.0  0.3787721058080606  0.6190011562985872  0.3430300781334026  1.0000
  H   H10       1.0  0.6212219588164556  0.3809971617204652  0.6569704167367971  1.0000
  H   H11       1.0  0.9262458424749408  0.9012444284027694  0.1750963511528524  1.0000
  H   H12       1.0  0.07375494127774827  0.098756295089629  0.8249040505281257  1.0000
  H   H13       1.0  0.31039669400265507  0.2761053744497842  0.20304986555309773  1.0000
  H   H14       1.0  0.6896040897500342  0.7238953490426211  0.7969505361278807  1.0000
  C   C1        1.0  0.6747977196122436  0.48144698621919707  0.17382189978349769  1.0000
  C   C2        1.0  0.3252036105060014  0.5185525334267778  0.8261780218412935  1.0000
  C   C3        1.0  0.9196822120561449  0.3332349082576513  0.2360678334724327  1.0000
  C   C4        1.0  0.08031857751976185  0.6667658171417017  0.7639316485046306  1.0000
  C   C5        1.0  0.534402982837413  0.6710084098861626  0.2855632479284366  1.0000
  C   C6        1.0  0.4655941027343926  0.3289874917806088  0.7144399322456251  1.0000
  C   C7        1.0  0.8099765985540159  0.8140149251261872  0.19656318519616886  1.0000
  C   C8        1.0  0.19002028800385057  0.18598580233639686  0.8034363635797348  1.0000
  N   N1        1.0  0.6132269350709334  0.7947647419343866  0.2856249575689063  1.0000
  N   N2        1.0  0.3867710383948405  0.2052335759283821  0.7143745507985385  1.0000
  N   N3        1.0  0.6814155432268405  0.6175775172847365  0.20103196020422584  1.0000
  N   N4        1.0  0.3185863390801841  0.3824208004217553  0.7989665616604639  1.0000
  N   N5        1.0  0.8558773557584441  0.7086535309107801  0.14325402478112179  1.0000
  N   N6        1.0  0.14412201702756994  0.29134598785985577  0.8567468499470011  1.0000
  O   O1        1.0  0.24578451458773987  0.11828914182919449  0.4701803591642176  1.0000
  O   O2        1.0  0.7542171512356998  0.8817139959522605  0.5298172904140586  1.0000
  O   O3        1.0  0.5933801306472546  0.13312837625448984  0.2577651890392331  1.0000
  O   O4        1.0  0.40662119364778704  0.8668711414845303  0.7422356522894727  1.0000
  O   O5        1.0  0.10871829532383966  0.0374313015234051  0.23764280513595537  1.0000
  O   O6        1.0  0.8912830289712016  0.9625682162156154  0.7623580361927509  1.0000
  O   O7        1.0  0.7315585051263012  0.23650932972812905  0.49255720080545734  1.0000
  O   O8        1.0  0.2684442243121907  0.7634913908257059  0.507444087180019  1.0000
  O   O9        1.0  0.15037533436164807  0.37409715837814866  0.16801715812124476  1.0000
  O   O10       1.0  0.8496254552142514  0.6259035670212042  0.8319823238558186  1.0000
  O   O11       1.0  0.0735891536138027  0.40387022083204727  0.43565571345968107  1.0000
  O   O12       1.0  0.926409678629859  0.5961305036919738  0.5643447216207135  1.0000
  O   O13       1.0  0.7810268360087276  0.2575596108195412  0.036713976089977535  1.0000
  O   O14       1.0  0.21897394192074424  0.7424411107659167  0.9632873452949154  1.0000
