data_image0
_chemical_formula_structural       Cu4H8C8Br4N4
_chemical_formula_sum              "Cu4 H8 C8 Br4 N4"
_cell_length_a       3.8498733660736284
_cell_length_b       7.307763289393698
_cell_length_c       13.434642728838256
_cell_angle_alpha    89.9972971079096
_cell_angle_beta     89.99981889007687
_cell_angle_gamma    91.50663373335365

_space_group_name_H-M_alt    "P 1"
_space_group_IT_number       1

loop_
  _space_group_symop_operation_xyz
  'x, y, z'

loop_
  _atom_site_type_symbol
  _atom_site_label
  _atom_site_symmetry_multiplicity
  _atom_site_fract_x
  _atom_site_fract_y
  _atom_site_fract_z
  _atom_site_occupancy
  Cu  Cu1       1.0  0.6962074925274567  0.870920763728073  0.965913578416945  1.0000
  Cu  Cu2       1.0  0.6963525335155224  0.8709046489050966  0.5340732899407072  1.0000
  Cu  Cu3       1.0  0.3037285858736142  0.1290843709867957  0.0340951588057976  1.0000
  Cu  Cu4       1.0  0.3037496695349091  0.12907982813820243  0.4659235386002508  1.0000
  H   H1        1.0  0.810308239286293  0.9506057937119723  0.7500055558056574  1.0000
  H   H2        1.0  0.18968782226769326  0.049400571540829205  0.2500136023655557  1.0000
  H   H3        1.0  0.31816405604654113  0.5312670382898902  0.9107365825603537  1.0000
  H   H4        1.0  0.3182718224314415  0.5312576691968404  0.5892617148160753  1.0000
  H   H5        1.0  0.6817828639196152  0.46872272933340764  0.0892557794168027  1.0000
  H   H6        1.0  0.681768484035203  0.4687489523861431  0.4107299027225225  1.0000
  H   H7        1.0  0.145095078754224  0.3743924752182934  0.7500047691256173  1.0000
  H   H8        1.0  0.8549096179539293  0.6256013230750173  0.2499928033291496  1.0000
  C   C1        1.0  0.6629952878670268  0.8208711118009477  0.749989122569545  1.0000
  C   C2        1.0  0.3369695786692617  0.17911683083205082  0.2500017508003651  1.0000
  C   C3        1.0  0.39069553017760944  0.5881151996523714  0.8385134089405994  1.0000
  C   C4        1.0  0.3907528458727185  0.5881025535890174  0.6614964206191376  1.0000
  C   C5        1.0  0.6092555189727381  0.41188544085248696  0.1614923510311499  1.0000
  C   C6        1.0  0.6092574176602527  0.4118938484133212  0.338508595241791  1.0000
  C   C7        1.0  0.29410534193093707  0.5031416472143421  0.7499974070131188  1.0000
  C   C8        1.0  0.7058911055273641  0.4968674532981226  0.24999197733254166  1.0000
  Br  Br1       1.0  0.8221482830697655  0.20533088532183544  0.9241640489859507  1.0000
  Br  Br2       1.0  0.822110543933853  0.20527775236911341  0.5758444038452524  1.0000
  Br  Br3       1.0  0.17786045245691895  0.7946916267842784  0.07582756816032801  1.0000
  Br  Br4       1.0  0.1779453006213245  0.7946914287435333  0.4241367936479321  1.0000
  N   N1        1.0  0.5769585588917893  0.7480455095788232  0.838754884019508  1.0000
  N   N2        1.0  0.5770584183382397  0.7480578719557799  0.6612510941295682  1.0000
  N   N3        1.0  0.4229713753311729  0.251952919269165  0.1612560863523669  1.0000
  N   N4        1.0  0.4229911995763587  0.25195949161195597  0.3387598761738957  1.0000
