data_image0
_chemical_formula_structural       Cu2H18C18Br2N10
_chemical_formula_sum              "Cu2 H18 C18 Br2 N10"
_cell_length_a       7.3825827256205665
_cell_length_b       7.675608032647304
_cell_length_c       9.925876240441688
_cell_angle_alpha    80.70158183300244
_cell_angle_beta     75.73571092729217
_cell_angle_gamma    84.88055601340089

_space_group_name_H-M_alt    "P 1"
_space_group_IT_number       1

loop_
  _space_group_symop_operation_xyz
  'x, y, z'

loop_
  _atom_site_type_symbol
  _atom_site_label
  _atom_site_symmetry_multiplicity
  _atom_site_fract_x
  _atom_site_fract_y
  _atom_site_fract_z
  _atom_site_occupancy
  Cu  Cu1       1.0  0.16758425595214987  0.3331181353305154  0.3850322045016911  1.0000
  Cu  Cu2       1.0  0.8324137376735761  0.6668850329334576  0.6149690072228324  1.0000
  H   H1        1.0  0.538147183140424  0.48075957296891386  0.2984933159627162  1.0000
  H   H2        1.0  0.46185933917032423  0.5192409122067616  0.7015046749538955  1.0000
  H   H3        1.0  0.7040583576102719  0.7039499790740464  0.1062078240207357  1.0000
  H   H4        1.0  0.2959470502423826  0.2960451901975815  0.8937870284089513  1.0000
  H   H5        1.0  0.535216691244912  0.8619199267626172  0.929115897326142  1.0000
  H   H6        1.0  0.4647885067093683  0.1380792243057414  0.07088049260701722  1.0000
  H   H7        1.0  0.06116283019122192  0.5478010074587729  0.14110496151744914  1.0000
  H   H8        1.0  0.938840613078817  0.45220480522230133  0.8588969301466137  1.0000
  H   H9        1.0  0.1208517797285609  0.2610060791804827  0.6962826827194775  1.0000
  H   H10       1.0  0.8791421620857915  0.7389944407992745  0.3037175949786716  1.0000
  H   H11       1.0  0.9275081846346113  0.1662800363525534  0.6634905202054213  1.0000
  H   H12       1.0  0.07248722585638492  0.8337191498172912  0.336508655262442  1.0000
  H   H13       1.0  0.155497421458648  0.0004880887822906996  0.4815306426011717  1.0000
  H   H14       1.0  0.8444993133888161  0.9995124314948713  0.5184701338501583  1.0000
  H   H15       1.0  0.464151923365705  0.1255270207213712  0.3766063120245704  1.0000
  H   H16       1.0  0.5358420184486477  0.874473499258386  0.6233939656735787  1.0000
  H   H17       1.0  0.4283205175452237  0.2655837638956129  0.5175517178145344  1.0000
  H   H18       1.0  0.5716748876802739  0.7344154383375211  0.48244947150704587  1.0000
  C   C1        1.0  0.46847291859364765  0.5504692283526468  0.21896342483947256  1.0000
  C   C2        1.0  0.5315294784292561  0.4495299465132446  0.7810354871210664  1.0000
  C   C3        1.0  0.5599063059871838  0.6759931670605965  0.11276277412400053  1.0000
  C   C4        1.0  0.4401044177206188  0.3240072824187763  0.887231433751545  1.0000
  C   C5        1.0  0.4666046008416558  0.7628479742641546  0.013306035543941202  1.0000
  C   C6        1.0  0.5333949978826382  0.23715121636761438  0.9866943915171266  1.0000
  C   C7        1.0  0.2021136179941436  0.588801939185828  0.1308433300976901  1.0000
  C   C8        1.0  0.7978844333115376  0.41119993929358145  0.8691620681176605  1.0000
  C   C9        1.0  0.28267388741635824  0.7200235672826665  0.022905929003378744  1.0000
  C   C10       1.0  0.7173293538535576  0.27998620310020783  0.9770944793835883  1.0000
  C   C11       1.0  0.1727885908577633  0.8132278123714514  0.9273366943665952  1.0000
  C   C12       1.0  0.8272109343900668  0.18677271623475625  0.07266558776476728  1.0000
  C   C13       1.0  0.0761328016483489  0.14452142132148538  0.6641614427008663  1.0000
  C   C14       1.0  0.923862535366183  0.855479102822798  0.3358395878372988  1.0000
  C   C15       1.0  0.1933587426488614  0.1123866290035309  0.5224384426371105  1.0000
  C   C16       1.0  0.8066365969984233  0.8876138871091045  0.4775615809742036  1.0000
  C   C17       1.0  0.3675783259804533  0.1816829621529408  0.4628928844533747  1.0000
  C   C18       1.0  0.6324156840448582  0.8183162359156738  0.5371075520281893  1.0000
  Br  Br1       1.0  0.8380000812901683  0.3833324759349425  0.4099013233431634  1.0000
  Br  Br2       1.0  0.1619995305978819  0.6166666745386068  0.5900940690836266  1.0000
  N   N1        1.0  0.29213972156304646  0.5069989960320599  0.22780726765792284  1.0000
  N   N2        1.0  0.7078694494606453  0.49300415735824993  0.7721939252256151  1.0000
  N   N3        1.0  0.08452322677172222  0.9945509157917554  0.7745964171252314  1.0000
  N   N4        1.0  0.9154735789194531  0.005448274542615601  0.22540351118265536  1.0000
  N   N5        1.0  0.23602148560316746  0.9437779632111686  0.8229241952180503  1.0000
  N   N6        1.0  0.7639766497099814  0.0562225451672234  0.17707532021958633  1.0000
  N   N7        1.0  0.9343415516927324  0.9035517697425065  0.8421673761659961  1.0000
  N   N8        1.0  0.06565678562053992  0.09644478093409962  0.15783362254872915  1.0000
  N   N9        1.0  0.9886752273734487  0.7877595639869028  0.9396468914722292  1.0000
  N   N10       1.0  0.0113244369290513  0.21223831276537203  0.060354701299104405  1.0000
