data_image0
_chemical_formula_structural       Ca2H40C64N8O16
_chemical_formula_sum              "Ca2 H40 C64 N8 O16"
_cell_length_a       8.11261410292883
_cell_length_b       12.835251855515569
_cell_length_c       15.2467
_cell_angle_alpha    71.9954562429604
_cell_angle_beta     74.90258625231854
_cell_angle_gamma    76.0312011209173

_space_group_name_H-M_alt    "P 1"
_space_group_IT_number       1

loop_
  _space_group_symop_operation_xyz
  'x, y, z'

loop_
  _atom_site_type_symbol
  _atom_site_label
  _atom_site_symmetry_multiplicity
  _atom_site_fract_x
  _atom_site_fract_y
  _atom_site_fract_z
  _atom_site_occupancy
  Ca  Ca1       1.0  0.2402334729045137  0.42201995478419  0.01578710167580517  1.0000
  Ca  Ca2       1.0  0.7597641330137748  0.5779790937177793  0.9842129529982061  1.0000
  H   H1        1.0  0.6279751563471548  0.3001990839668451  0.25992988918714127  1.0000
  H   H2        1.0  0.372027101991641  0.6998016287205715  0.7400690876837501  1.0000
  H   H3        1.0  0.5548890833695526  0.4320990939289544  0.2847003720598025  1.0000
  H   H4        1.0  0.4451103943199044  0.5679024508511858  0.7152974619028427  1.0000
  H   H5        1.0  0.15681861625302668  0.03852173257712369  0.4708017356940744  1.0000
  H   H6        1.0  0.8431753001377587  0.9614814763884567  0.5291977477298887  1.0000
  H   H7        1.0  0.9078912739168601  0.0680968042044867  0.603411195012157  1.0000
  H   H8        1.0  0.09210542312326447  0.93190557266837  0.3965913989589396  1.0000
  H   H9        1.0  0.802878233864611  0.25421347967103  0.6327603506163227  1.0000
  H   H10       1.0  0.19712393787184368  0.7457922255727211  0.3672406185629741  1.0000
  H   H11       1.0  0.940496985057095  0.4151585181964137  0.5332427561518146  1.0000
  H   H12       1.0  0.059509925702208505  0.5848438586764431  0.46675645467521326  1.0000
  H   H13       1.0  0.8970700006094035  0.37625735133794075  0.8111169076471398  1.0000
  H   H14       1.0  0.1029314354535771  0.6237416971640357  0.18888261621243174  1.0000
  H   H15       1.0  0.9840914043657704  0.4991299873562198  0.7538108736795409  1.0000
  H   H16       1.0  0.015914089061439502  0.500868229053026  0.2461889602705014  1.0000
  H   H17       1.0  0.552791616709797  0.4008573405788951  0.48666582943043574  1.0000
  H   H18       1.0  0.4472100465727209  0.5991408758303507  0.5133345353340459  1.0000
  H   H19       1.0  0.686860024120854  0.2256768597610517  0.4391965902245262  1.0000
  H   H20       1.0  0.3131384040732499  0.774323852926365  0.5608009498219105  1.0000
  H   H21       1.0  0.5824270379963536  0.04854512150949829  0.529021923529875  1.0000
  H   H22       1.0  0.4175703407023975  0.9514547590852016  0.47097401084107565  1.0000
  H   H23       1.0  0.34512314590075016  0.0409789023859659  0.6704508842236692  1.0000
  H   H24       1.0  0.6548795668771206  0.9590201461160034  0.32954715093849535  1.0000
  H   H25       1.0  0.8832296915828762  0.3173684851980028  0.13919336995765264  1.0000
  H   H26       1.0  0.11676896383076504  0.6826313953966903  0.8608069786325743  1.0000
  H   H27       1.0  0.7744684866101681  0.1382829932345757  0.22517306418928473  1.0000
  H   H28       1.0  0.22553294945281266  0.8617160552673936  0.7748251479110236  1.0000
  H   H29       1.0  0.9877098870922935  0.9593205315887445  0.23847770618201045  1.0000
  H   H30       1.0  0.012291321751142401  0.0406793490059485  0.7615216326522969  1.0000
  H   H31       1.0  0.6816521749209841  0.3410057431593003  0.9582546439088658  1.0000
  H   H32       1.0  0.31834926114199663  0.6589933053426691  0.04174750346923871  1.0000
  H   H33       1.0  0.9158261082277122  0.17311106621757938  0.9653342779057895  1.0000
  H   H34       1.0  0.08417405112036384  0.82688798228439  0.03466673465120347  1.0000
  H   H35       1.0  0.8360540076180387  0.9845304447951192  0.05302754290309505  1.0000
  H   H36       1.0  0.1639451022346847  0.0154677716141336  0.9469731757376748  1.0000
  H   H37       1.0  0.2938836537013927  0.8619573621568506  0.20601001621067652  1.0000
  H   H38       1.0  0.7061160512076087  0.138043350530566  0.793991282175412  1.0000
  H   H39       1.0  0.6040547414876868  0.8704821520964288  0.13634854049134765  1.0000
  H   H40       1.0  0.3959428644306016  0.1295168964055478  0.8636515141826635  1.0000
  C   C1        1.0  0.48684095297330987  0.421983342704408  0.16038816022668814  1.0000
  C   C2        1.0  0.5131577024403384  0.5780165378902851  0.8396102207246444  1.0000
  C   C3        1.0  0.5185059818966309  0.36961891559973026  0.2610994934495423  1.0000
  C   C4        1.0  0.4814952269468051  0.6303809649949628  0.7388991895051262  1.0000
  C   C5        1.0  0.34675181608684374  0.21781857609200728  0.35300227338272083  1.0000
  C   C6        1.0  0.6532496199761368  0.7821804724099692  0.6469946269583247  1.0000
  C   C7        1.0  0.18827750101370808  0.2107990418870003  0.4292566556033178  1.0000
  C   C8        1.0  0.8117191960264166  0.7892033349858564  0.5707439707288843  1.0000
  C   C9        1.0  0.10980209953110182  0.1203422420498867  0.483902406930909  1.0000
  C   C10       1.0  0.8901958742239202  0.8796601348229771  0.5160973865835174  1.0000
  C   C11       1.0  0.9707754621126412  0.1375141395592081  0.5578955476100304  1.0000
  C   C12       1.0  0.029223561137740713  0.8624890694063722  0.44210453982060477  1.0000
  C   C13       1.0  0.9115130357844237  0.24265904012969486  0.5749991488370012  1.0000
  C   C14       1.0  0.08848831367620849  0.7573450009286091  0.4250003996920739  1.0000
  C   C15       1.0  0.9886779340642492  0.3341559558696403  0.5185859782113482  1.0000
  C   C16       1.0  0.011325146550362302  0.6658464210032164  0.4814131075504875  1.0000
  C   C17       1.0  0.1279195778614195  0.315911490841323  0.4464739568584264  1.0000
  C   C18       1.0  0.8720809493233972  0.6840908860315409  0.5535254827797047  1.0000
  C   C19       1.0  0.24468853519701386  0.3924831594220493  0.3807570346250557  1.0000
  C   C20       1.0  0.7553134959222448  0.607518385358091  0.6192417572205642  1.0000
  C   C21       1.0  0.09385953086088251  0.3978335156261963  0.8733408853010758  1.0000
  C   C22       1.0  0.906138075057406  0.602165532875773  0.12666113701183696  1.0000
  C   C23       1.0  0.017517286392397594  0.4103956194541851  0.7879594743958904  1.0000
  C   C24       1.0  0.982486930319915  0.5896025969550607  0.21204053649229596  1.0000
  C   C25       1.0  0.2608046305367608  0.4074907837607711  0.6481740462710092  1.0000
  C   C26       1.0  0.7392004950537157  0.5925041042775874  0.35182736059788766  1.0000
  C   C27       1.0  0.3699749939041368  0.3184718401477227  0.6042067571898357  1.0000
  C   C28       1.0  0.6300279460932787  0.6815263762615302  0.3957934306364947  1.0000
  C   C29       1.0  0.5054846649282821  0.3236973824435267  0.5266689494169087  1.0000
  C   C30       1.0  0.494515494419801  0.6763016660584427  0.47333009550118277  1.0000
  C   C31       1.0  0.5805218354508881  0.22437463465070806  0.5002275610850191  1.0000
  C   C32       1.0  0.4194780966776506  0.775625245943985  0.4997699870485307  1.0000
  C   C33       1.0  0.5225091007379348  0.1244286494089124  0.5509477575258543  1.0000
  C   C34       1.0  0.477489781895251  0.875570399093057  0.4490494966914795  1.0000
  C   C35       1.0  0.3871813258739678  0.1195609069836792  0.6303106263313225  1.0000
  C   C36       1.0  0.6128203374085572  0.8804373094255666  0.3696877707942505  1.0000
  C   C37       1.0  0.3115520480167078  0.2181064801739083  0.6550699721575128  1.0000
  C   C38       1.0  0.6884508919807075  0.7818917362353446  0.3449302156688177  1.0000
  C   C39       1.0  0.1641390965897145  0.2416738423465361  0.7318595768705618  1.0000
  C   C40       1.0  0.8358666240570399  0.758323541969986  0.2681410979843831  1.0000
  C   C41       1.0  0.9738227572629867  0.23821400080737476  0.14985292609954118  1.0000
  C   C42       1.0  0.02617717486555193  0.7617858797873251  0.8501472455525487  1.0000
  C   C43       1.0  0.9129742383284735  0.1377030246071627  0.19777996354233807  1.0000
  C   C44       1.0  0.0870261482391541  0.8622951918020902  0.8022205781602877  1.0000
  C   C45       1.0  0.030725324252813404  0.0391616118805445  0.20594959995624149  1.0000
  C   C46       1.0  0.969273331160828  0.9608382687141486  0.7940507486339923  1.0000
  C   C47       1.0  0.2085998221676846  0.0411719478975314  0.1672600633632229  1.0000
  C   C48       1.0  0.791400109960854  0.9588279326971616  0.8327414200481228  1.0000
  C   C49       1.0  0.2583549943705279  0.1468210966577104  0.12060122745400999  1.0000
  C   C50       1.0  0.7416449377580179  0.8531787839369827  0.8794009118369746  1.0000
  C   C51       1.0  0.6508243443472992  0.257962057384816  0.9939867867585761  1.0000
  C   C52       1.0  0.34917604222032134  0.7420361590244298  0.006015066703312784  1.0000
  C   C53       1.0  0.7825043457598895  0.1633564432345054  0.9990039066203095  1.0000
  C   C54       1.0  0.2174962680272685  0.8366409410820239  0.0009974759872192786  1.0000
  C   C55       1.0  0.7382951690534298  0.060077926640048  0.046081603459065014  1.0000
  C   C56       1.0  0.26170499029465333  0.9399211218619212  0.9539200649775595  1.0000
  C   C57       1.0  0.5630012092578554  0.05154897623685879  0.08719713622745928  1.0000
  C   C58       1.0  0.4370002268051251  0.9484500722651106  0.9128043552710138  1.0000
  C   C59       1.0  0.4392461557567273  0.1521190310203551  0.07898469110966036  1.0000
  C   C60       1.0  0.5607540035913559  0.8478800174816213  0.9210169773269571  1.0000
  C   C61       1.0  0.33671941688139373  0.9418482486066821  0.17221173739737586  1.0000
  C   C62       1.0  0.6632802880276074  0.0581524640807345  0.8277895609887055  1.0000
  C   C63       1.0  0.5076123257098358  0.9466236287397436  0.13389752982205755  1.0000
  C   C64       1.0  0.4923878336382472  0.05337541976222579  0.8661034827349284  1.0000
  N   N1        1.0  0.3727064495280317  0.328007622744849  0.3285685713740777  1.0000
  N   N2        1.0  0.6272943048763295  0.6719939220352913  0.6714303974096865  1.0000
  N   N3        1.0  0.13638568098714637  0.3562455213675335  0.7206752339182074  1.0000
  N   N4        1.0  0.8636200396596011  0.6437518629489958  0.27932609681636933  1.0000
  N   N5        1.0  0.1406310733025791  0.2430526199873242  0.1125388651282293  1.0000
  N   N6        1.0  0.8593684043868847  0.756948924792809  0.887461592352949  1.0000
  N   N7        1.0  0.4845824967295087  0.2532241214242603  0.032635077631432814  1.0000
  N   N8        1.0  0.5154161586841397  0.7467757591704327  0.9673665827180642  1.0000
  O   O1        1.0  0.3370159125857555  0.4331949600441689  0.14552222484307012  1.0000
  O   O2        1.0  0.6629778631878409  0.5668040884578005  0.854480328284275  1.0000
  O   O3        1.0  0.6199273963315479  0.4499408260796969  0.09986756756428146  1.0000
  O   O4        1.0  0.38006765615694593  0.5500582224222796  0.9001289057082289  1.0000
  O   O5        1.0  0.44317072959411513  0.14428321385481266  0.318830964323105  1.0000
  O   O6        1.0  0.55682191008178  0.8557199951107748  0.6811667284001004  1.0000
  O   O7        1.0  0.2395776065316042  0.4913316143631831  0.37237096353473487  1.0000
  O   O8        1.0  0.7604257013025517  0.5086699304169571  0.6276269954931023  1.0000
  O   O9        1.0  0.9972517847067413  0.4476209515700305  0.934843659939986  1.0000
  O   O10       1.0  0.002740259912876302  0.5523797611173862  0.06515607655644116  1.0000
  O   O11       1.0  0.24315386189279312  0.3433821999740871  0.8798670059072577  1.0000
  O   O12       1.0  0.7568416450347755  0.6566151843424421  0.12013836385101942  1.0000
  O   O13       1.0  0.2701176803714063  0.5063592089272362  0.6287608435337262  1.0000
  O   O14       1.0  0.7298848051869271  0.49364067166745673  0.3712389742420683  1.0000
  O   O15       1.0  0.07875427520672672  0.17752032555284808  0.7943278257274001  1.0000
  O   O16       1.0  0.921249346449315  0.8224753945782339  0.20567422893400084  1.0000
