data_image0
_chemical_formula_structural       Zn4H88C96S8N8
_chemical_formula_sum              "Zn4 H88 C96 S8 N8"
_cell_length_a       10.427190062239857
_cell_length_b       11.041740333850603
_cell_length_c       26.172943449812948
_cell_angle_alpha    90.40967572441531
_cell_angle_beta     90.88830011148164
_cell_angle_gamma    61.848678654249404

_space_group_name_H-M_alt    "P 1"
_space_group_IT_number       1

loop_
  _space_group_symop_operation_xyz
  'x, y, z'

loop_
  _atom_site_type_symbol
  _atom_site_label
  _atom_site_symmetry_multiplicity
  _atom_site_fract_x
  _atom_site_fract_y
  _atom_site_fract_z
  _atom_site_occupancy
  Zn  Zn1       1.0  0.5826194564706881  0.028079859119181094  0.3906051804557363  1.0000
  Zn  Zn2       1.0  0.3889692780653321  0.028056509720421688  0.10942719404340549  1.0000
  Zn  Zn3       1.0  0.41737793036934784  0.971920423225356  0.6093947477128409  1.0000
  Zn  Zn4       1.0  0.611033348664151  0.9719448010797505  0.8905727277268408  1.0000
  H   H1        1.0  0.47652871332251584  0.14754963547785144  0.4919176699092772  1.0000
  H   H2        1.0  0.3762953208403488  0.14810388379128628  0.008122123410608098  1.0000
  H   H3        1.0  0.5234633463383886  0.8524609195366961  0.5080780545987835  1.0000
  H   H4        1.0  0.6236990790605862  0.8519179700370569  0.9918804703516881  1.0000
  H   H5        1.0  0.4398871649710116  0.3453509316502945  0.5440316794362586  1.0000
  H   H6        1.0  0.2147173179307629  0.34564516808496387  0.9559678543217343  1.0000
  H   H7        1.0  0.560119053603998  0.6546524354988179  0.4559644157761653  1.0000
  H   H8        1.0  0.7852662797430483  0.6543736007916365  0.044037428162326385  1.0000
  H   H9        1.0  0.5887033286018024  0.49136073815930803  0.41581447478247197  1.0000
  H   H10       1.0  0.9205437536272503  0.4915525183202405  0.08432196909563316  1.0000
  H   H11       1.0  0.41130503139188335  0.5086385198650519  0.5841835311652019  1.0000
  H   H12       1.0  0.0794427497774138  0.5084395413818753  0.9156856186943184  1.0000
  H   H13       1.0  0.6197047023843397  0.28529035688550414  0.3687894072256768  1.0000
  H   H14       1.0  0.09603797232265524  0.2857682415854157  0.13138422584917459  1.0000
  H   H15       1.0  0.3802943433943895  0.7147140356347209  0.6312078417291358  1.0000
  H   H16       1.0  0.9039652726565921  0.7142207408315498  0.8686202881341314  1.0000
  H   H17       1.0  0.891236864857526  0.9633414042116044  0.393142212423882  1.0000
  H   H18       1.0  0.14447541606817532  0.9635815196706546  0.10681992353723757  1.0000
  H   H19       1.0  0.10876259551629629  0.0366568235495492  0.6068596253479298  1.0000
  H   H20       1.0  0.8555244019106214  0.036417735941803586  0.8931800025462947  1.0000
  H   H21       1.0  0.08122176397405674  0.9573160259559114  0.33513413466916825  1.0000
  H   H22       1.0  0.9606618313364028  0.9574288605052244  0.16487609933177785  1.0000
  H   H23       1.0  0.9187757107578208  0.04268425591573079  0.6648677040914632  1.0000
  H   H24       1.0  0.03933105325968001  0.0425765573178296  0.8351234486602337  1.0000
  H   H25       1.0  0.7622437677477127  0.07143006778950678  0.21187955773728356  1.0000
  H   H26       1.0  0.16615820211843166  0.07086368175203007  0.2881254951812266  1.0000
  H   H27       1.0  0.23775822437791325  0.9285630243459763  0.7881215159767049  1.0000
  H   H28       1.0  0.8338562172405588  0.9291160585575683  0.7118755726356126  1.0000
  H   H29       1.0  0.588248722517804  0.07218429118371009  0.2748170095838418  1.0000
  H   H30       1.0  0.3393089064933364  0.0716717654675918  0.225162837996443  1.0000
  H   H31       1.0  0.411753252029456  0.9278088010463537  0.7251836820117317  1.0000
  H   H32       1.0  0.6607069699760972  0.9283090021521261  0.7748393740189882  1.0000
  H   H33       1.0  0.8974191827139324  0.5975442149261029  0.48568471604048813  1.0000
  H   H34       1.0  0.5035673537765606  0.5978054167521307  0.014346507864829099  1.0000
  H   H35       1.0  0.10259542392566359  0.4024519631594713  0.5143113741204173  1.0000
  H   H36       1.0  0.49642553324809313  0.4022020552339852  0.9856545674688135  1.0000
  H   H37       1.0  0.9784198340216934  0.368093799269829  0.4471344200845094  1.0000
  H   H38       1.0  0.6523152909546753  0.3681449106672616  0.05273479859691579  1.0000
  H   H39       1.0  0.02159411860925088  0.6319034067353397  0.5528586130933063  1.0000
  H   H40       1.0  0.3476732647525368  0.6318635875254656  0.9472666630610288  1.0000
  H   H41       1.0  0.7277126797549512  0.5579412896213186  0.3113542021571973  1.0000
  H   H42       1.0  0.7137650089645294  0.5575106300429268  0.18854735200476816  1.0000
  H   H43       1.0  0.2722761929411917  0.4420528276329632  0.6886438283591827  1.0000
  H   H44       1.0  0.28623823479043864  0.442498899516515  0.811451035703328  1.0000
  H   H45       1.0  0.6475707633552119  0.7868023789007309  0.3493669911947278  1.0000
  H   H46       1.0  0.5648126433950512  0.7865052748249822  0.15069887495634043  1.0000
  H   H47       1.0  0.35241533817556825  0.21319173713974487  0.6506333352133851  1.0000
  H   H48       1.0  0.4351891608278394  0.21350322732975974  0.8492987506715789  1.0000
  H   H49       1.0  0.8440023782849767  0.30723214962584666  0.32034665149840436  1.0000
  H   H50       1.0  0.8481790541978287  0.306928358102347  0.17945068209512977  1.0000
  H   H51       1.0  0.1560045397480465  0.6927640268307441  0.6796490650274689  1.0000
  H   H52       1.0  0.15180903600562354  0.6930770586434817  0.8205488711989941  1.0000
  H   H53       1.0  0.9171762311020545  0.2304932511271858  0.3807952118002831  1.0000
  H   H54       1.0  0.8517048249166732  0.23038170648553807  0.11895234050125225  1.0000
  H   H55       1.0  0.08282688657360646  0.7695029242784627  0.6192012732040979  1.0000
  H   H56       1.0  0.14828119418157837  0.7696278190067289  0.8810468305312681  1.0000
  H   H57       1.0  0.025248097669646124  0.265511930289179  0.3384291508059931  1.0000
  H   H58       1.0  0.7088066960898235  0.26500215938597893  0.1613353452594097  1.0000
  H   H59       1.0  0.9747598295484258  0.7344821919360597  0.6615661836730665  1.0000
  H   H60       1.0  0.2911758299495163  0.7350104473534527  0.8386630635497312  1.0000
  H   H61       1.0  0.2222847008377117  0.10731725981551678  0.4381896862616656  1.0000
  H   H62       1.0  0.6700225035237112  0.1066939825776245  0.0617993865714368  1.0000
  H   H63       1.0  0.7777215838395865  0.8926758307227158  0.5618213182893255  1.0000
  H   H64       1.0  0.3299952670429676  0.8933032243839065  0.9381932602462797  1.0000
  H   H65       1.0  0.12071512840511653  0.9776515228377676  0.4830116992981316  1.0000
  H   H66       1.0  0.9010282907011489  0.9771208683812486  0.0169147462863535  1.0000
  H   H67       1.0  0.8792820790422127  0.022349784872751896  0.516995489084465  1.0000
  H   H68       1.0  0.09898999021650924  0.022861956601481395  0.9830786726923291  1.0000
  H   H69       1.0  0.30539293886980107  0.654837008225982  0.3710422396279752  1.0000
  H   H70       1.0  0.03965105231274175  0.654694904604824  0.12912157041643008  1.0000
  H   H71       1.0  0.6945789940563999  0.34518175891647457  0.6289596165154521  1.0000
  H   H72       1.0  0.9603578410696018  0.34530538032505825  0.8708783450270798  1.0000
  H   H73       1.0  0.408066172363853  0.7856883428800356  0.32600490203533633  1.0000
  H   H74       1.0  0.8061791921010697  0.7852764828289338  0.1741554339958284  1.0000
  H   H75       1.0  0.5919078165177609  0.2143283697736251  0.6739984815929104  1.0000
  H   H76       1.0  0.19382346553013724  0.2147320201087197  0.8258398978612006  1.0000
  H   H77       1.0  0.15942381139952042  0.7276473372426364  0.49924734393883335  1.0000
  H   H78       1.0  0.1128975811156324  0.7273493433717205  0.0008842849821846  1.0000
  H   H79       1.0  0.84056844102129  0.2723519160787901  0.5007548833385442  1.0000
  H   H80       1.0  0.887114626511206  0.27263450644094417  0.9991133436257511  1.0000
  H   H81       1.0  0.18852131262256241  0.6207138378149252  0.4449120149374294  1.0000
  H   H82       1.0  0.1906289669655052  0.620625750620512  0.05528318838618418  1.0000
  H   H83       1.0  0.8114741764673713  0.37928849816720595  0.5550898248120291  1.0000
  H   H84       1.0  0.8093818562929445  0.37935912566678087  0.9447163518384369  1.0000
  H   H85       1.0  0.021959605822083134  0.7741572517641443  0.4517289922946047  1.0000
  H   H86       1.0  0.20338034394380602  0.7743101644608358  0.04842986003113479  1.0000
  H   H87       1.0  0.9780294626646937  0.22583891861284394  0.5482747688659231  1.0000
  H   H88       1.0  0.7966346724337185  0.2256757405395362  0.9515677642635153  1.0000
  C   C1        1.0  0.5006393753767711  0.2258017406735817  0.4761953453845606  1.0000
  C   C2        1.0  0.2740168726547837  0.2262804748171304  0.023877191946254993  1.0000
  C   C3        1.0  0.4993591570202511  0.7742036790096094  0.5238019035344548  1.0000
  C   C4        1.0  0.7259758483005143  0.7737352147670293  0.976126171569774  1.0000
  C   C5        1.0  0.47938294796134795  0.3390026822082604  0.5054107223012777  1.0000
  C   C6        1.0  0.18186552363212644  0.3393511568057404  0.994635513156588  1.0000
  C   C7        1.0  0.5206266606309459  0.6609996584242239  0.49458536976568  1.0000
  C   C8        1.0  0.8181231223955123  0.660659395077161  0.005369386435034999  1.0000
  C   C9        1.0  0.5098680339492179  0.4394630879709849  0.4849355247507957  1.0000
  C   C10       1.0  0.050882073027672434  0.43963942836522557  0.015111577588399396  1.0000
  C   C11       1.0  0.4901430669102567  0.5605402797824651  0.515062475751577  1.0000
  C   C12       1.0  0.9491027368837167  0.5603598220031216  0.9848956257117009  1.0000
  C   C13       1.0  0.5610051769643007  0.4192840828048575  0.43451819495488303  1.0000
  C   C14       1.0  0.020285706444468653  0.41960200351341825  0.0655970783163085  1.0000
  C   C15       1.0  0.4390065730466617  0.5807141487028672  0.5654798078473319  1.0000
  C   C16       1.0  0.9797031250573269  0.5803910841871556  0.9344097420197527  1.0000
  C   C17       1.0  0.5792744955661178  0.30350645161593093  0.4077579024714381  1.0000
  C   C18       1.0  0.1180122350431247  0.3039701629007538  0.09237538203924339  1.0000
  C   C19       1.0  0.4207279250801081  0.6964989686453079  0.5922404885611243  1.0000
  C   C20       1.0  0.8819846250918459  0.6960239543746879  0.9076295181251622  1.0000
  C   C21       1.0  0.8681239316740208  0.9884153255711535  0.3526548394135459  1.0000
  C   C22       1.0  0.14263781580441318  0.9885530456919581  0.14730815824292154  1.0000
  C   C23       1.0  0.13187208594741412  0.011583928990368997  0.6473458551485008  1.0000
  C   C24       1.0  0.8573669674935263  0.0114421017258124  0.8526925290393661  1.0000
  C   C25       1.0  0.9731457220230981  0.9850162110179355  0.3199684278189635  1.0000
  C   C26       1.0  0.041131047090807664  0.985049629590229  0.18003409861629646  1.0000
  C   C27       1.0  0.02685524333911361  0.014978935443480198  0.6800326458234238  1.0000
  C   C28       1.0  0.9588681896213914  0.0149527077265716  0.819965826299416  1.0000
  C   C29       1.0  0.9384083839369028  0.015244520375325997  0.2680104893607761  1.0000
  C   C30       1.0  0.0457628015183431  0.015194234934810398  0.23199097018928677  1.0000
  C   C31       1.0  0.06159900142632319  0.984745491038467  0.7319909623373275  1.0000
  C   C32       1.0  0.9542440880415413  0.9847968035473612  0.7680108635914351  1.0000
  C   C33       1.0  0.7974987249944622  0.046882997252168906  0.2515358022317926  1.0000
  C   C34       1.0  0.15523462177417002  0.046567082998748795  0.24846225335980415  1.0000
  C   C35       1.0  0.20250859248386635  0.9531090687030003  0.7484656483342887  1.0000
  C   C36       1.0  0.8447752450343277  0.9534198472361622  0.751538815266862  1.0000
  C   C37       1.0  0.6982306524341911  0.04898017298003049  0.2867093013016415  1.0000
  C   C38       1.0  0.25235999661493486  0.0486689443213848  0.21327031397828475  1.0000
  C   C39       1.0  0.3017716118331535  0.9510160016427136  0.7132894774736297  1.0000
  C   C40       1.0  0.7476488785868939  0.9513200400503051  0.7867315188136103  1.0000
  C   C41       1.0  0.7692544113757908  0.7097922808627998  0.4201535433546084  1.0000
  C   C42       1.0  0.5198639913402802  0.7097624121646857  0.0798895266496586  1.0000
  C   C43       1.0  0.23073983758173724  0.29021005641713055  0.5798421835606928  1.0000
  C   C44       1.0  0.48013233600818256  0.2902419788580061  0.9201111645521252  1.0000
  C   C45       1.0  0.861962111661221  0.5888739370890618  0.4470513226174474  1.0000
  C   C46       1.0  0.5478822364200013  0.588950269086773  0.052953653520248195  1.0000
  C   C47       1.0  0.1380380439156071  0.41112429230621217  0.5529447823177731  1.0000
  C   C48       1.0  0.4521110785231032  0.4110582303723332  0.9470470385987609  1.0000
  C   C49       1.0  0.9065540988948089  0.45997332640711613  0.4253279914067675  1.0000
  C   C50       1.0  0.6323299536398468  0.4599477775139674  0.0745860823802005  1.0000
  C   C51       1.0  0.0934591033694403  0.5400218240846044  0.5746681009107845  1.0000
  C   C52       1.0  0.367662812764813  0.5400617492972655  0.9254138454661813  1.0000
  C   C53       1.0  0.8609002866709617  0.44525901609969054  0.37598854839502127  1.0000
  C   C54       1.0  0.6930581917083815  0.4450644641524802  0.12387198224505618  1.0000
  C   C55       1.0  0.13910880793747543  0.5547330510429944  0.6240098431029322  1.0000
  C   C56       1.0  0.30693601179977764  0.5549440359003767  0.8761271803398784  1.0000
  C   C57       1.0  0.7669156875343861  0.5655585115183328  0.349635180336513  1.0000
  C   C58       1.0  0.6667217818241652  0.5652771873926028  0.15029122608386558  1.0000
  C   C59       1.0  0.23307995004654478  0.43443560696032774  0.6503639891121438  1.0000
  C   C60       1.0  0.3332772663831491  0.43472925929069106  0.8497075502125778  1.0000
  C   C61       1.0  0.7218252372022466  0.6954720084010687  0.3709637192988707  1.0000
  C   C62       1.0  0.5817304228516565  0.6952892674546332  0.12906196058268898  1.0000
  C   C63       1.0  0.2781692681450566  0.30452416497099216  0.6290331573677219  1.0000
  C   C64       1.0  0.4182675307073397  0.3047212880959691  0.8709368145101306  1.0000
  C   C65       1.0  0.9136179720742847  0.3053574749011077  0.3526267634404546  1.0000
  C   C66       1.0  0.7804695218209121  0.30506725222217307  0.14716148603540793  1.0000
  C   C67       1.0  0.0863894617690307  0.6946397285555789  0.6473704804628395  1.0000
  C   C68       1.0  0.2195195121112762  0.6949402189967415  0.8528392114215106  1.0000
  C   C69       1.0  0.3220740649749277  0.9566233729186346  0.3784533234410218  1.0000
  C   C70       1.0  0.7210255899778489  0.9561463163844406  0.12161175419332439  1.0000
  C   C71       1.0  0.6779142058693637  0.04338615120753529  0.6215531057204655  1.0000
  C   C72       1.0  0.27898831234657007  0.043852944067531  0.878381659970884  1.0000
  C   C73       1.0  0.23961525465227854  0.0086591205753805  0.4229475603178513  1.0000
  C   C74       1.0  0.7513745412215088  0.008117334157532198  0.0770689075609496  1.0000
  C   C75       1.0  0.7603814745700749  0.9913432141089443  0.577060392265764  1.0000
  C   C76       1.0  0.24864424095879661  0.9918798727357084  0.9229248845515768  1.0000
  C   C77       1.0  0.18207206408092022  0.9347433102061511  0.4481035743319878  1.0000
  C   C78       1.0  0.8827112671557137  0.9342507254271051  0.05187955714277589  1.0000
  C   C79       1.0  0.8179261198232981  0.06525799762523118  0.5519039951085957  1.0000
  C   C80       1.0  0.11731016739639702  0.06573929101534759  0.9481146183991808  1.0000
  C   C81       1.0  0.20380966646847307  0.8061457827908  0.4302546106533639  1.0000
  C   C82       1.0  0.9896743826008322  0.8058315697933195  0.06981516659510588  1.0000
  C   C83       1.0  0.7961743912497927  0.19386065855380247  0.5697518249780558  1.0000
  C   C84       1.0  0.01034090591841163  0.19415741769431344  0.9301801627608413  1.0000
  C   C85       1.0  0.28646333640587346  0.7544615259494163  0.3860184516610231  1.0000
  C   C86       1.0  0.9588389016437305  0.7541832581688437  0.11410403256211765  1.0000
  C   C87       1.0  0.7135100536307704  0.2455582685031601  0.613984548680989  1.0000
  C   C88       1.0  0.04116842672937082  0.2458139458553106  0.8858909186307143  1.0000
  C   C89       1.0  0.34491176867909745  0.8277795685452243  0.3605153963077966  1.0000
  C   C90       1.0  0.8271415151407879  0.8273961702295053  0.13961269405305635  1.0000
  C   C91       1.0  0.655068574747219  0.17223611776525155  0.6394898915857681  1.0000
  C   C92       1.0  0.1728690874867668  0.17260617042926896  0.8603841611903035  1.0000
  C   C93       1.0  0.14068263435914477  0.7278726312433292  0.4577891702883789  1.0000
  C   C94       1.0  0.13116129013398864  0.7277454402499541  0.0423628748238229  1.0000
  C   C95       1.0  0.8593072045012706  0.2721276487155961  0.5422134411924588  1.0000
  C   C96       1.0  0.8688566707640037  0.27223841085537964  0.9576347474215862  1.0000
  S   S1        1.0  0.7180554534178187  0.8686384556896414  0.4504899081432113  1.0000
  S   S2        1.0  0.41246590692935603  0.8687451601381465  0.04957390168011948  1.0000
  S   S3        1.0  0.2819453385892885  0.1313587458806182  0.5495088716566838  1.0000
  S   S4        1.0  0.5875288426886628  0.13126025839952862  0.9504244978358184  1.0000
  S   S5        1.0  0.3857588945487366  0.055060993724190176  0.3440493941220452  1.0000
  S   S6        1.0  0.5590838659911344  0.05451247356183589  0.1560556766505812  1.0000
  S   S7        1.0  0.6142330736112883  0.9449505861834593  0.655955501192089  1.0000
  S   S8        1.0  0.44092687057977314  0.9454950045038824  0.8439373540483996  1.0000
  N   N1        1.0  0.549980572163726  0.20758384427396942  0.4280644154360046  1.0000
  N   N2        1.0  0.2430445783718298  0.20804438363177985  0.07203788798243238  1.0000
  N   N3        1.0  0.45001852392152847  0.7924184937994595  0.5719324525324152  1.0000
  N   N4        1.0  0.7569519071819499  0.7919600065397033  0.927966242285052  1.0000
  N   N5        1.0  0.732353415914794  0.02113060434590609  0.3365527102170702  1.0000
  N   N6        1.0  0.2458320484036776  0.021135928278368996  0.1634002697176129  1.0000
  N   N7        1.0  0.26764513345844426  0.9788635145899391  0.6634472202871464  1.0000
  N   N8        1.0  0.7541758327628829  0.978853056067031  0.8366007998978802  1.0000
