data_image0
_chemical_formula_structural       Zn2H44C36N12O12
_chemical_formula_sum              "Zn2 H44 C36 N12 O12"
_cell_length_a       10.354861454051806
_cell_length_b       10.72640969483021
_cell_length_c       12.474
_cell_angle_alpha    104.36901649008307
_cell_angle_beta     102.24969198610489
_cell_angle_gamma    110.71146456811607

_space_group_name_H-M_alt    "P 1"
_space_group_IT_number       1

loop_
  _space_group_symop_operation_xyz
  'x, y, z'

loop_
  _atom_site_type_symbol
  _atom_site_label
  _atom_site_symmetry_multiplicity
  _atom_site_fract_x
  _atom_site_fract_y
  _atom_site_fract_z
  _atom_site_occupancy
  Zn  Zn1       1.0  0.5558232901313147  0.9482115536224852  0.7233210189784317  1.0000
  Zn  Zn2       1.0  0.44417764218394495  0.0517864600329503  0.276678480845149  1.0000
  H   H1        1.0  0.6424276846473164  0.6197699797601784  0.8145798319709883  1.0000
  H   H2        1.0  0.35756976436245225  0.3802290994164252  0.18542088506166726  1.0000
  H   H3        1.0  0.8003120489657507  0.8245588870580747  0.8058607695491349  1.0000
  H   H4        1.0  0.19968638827374727  0.1754401921185291  0.19413931987060104  1.0000
  H   H5        1.0  0.8576236027334405  0.55277000842419  0.37139236800365444  1.0000
  H   H6        1.0  0.14237728057898383  0.4472301362735891  0.6286083796175603  1.0000
  H   H7        1.0  0.6193268158612996  0.4259474163711516  0.34725457396862686  1.0000
  H   H8        1.0  0.38067359783767074  0.5740516628054451  0.6527458635602273  1.0000
  H   H9        1.0  0.8296039309336295  0.21303817221652108  0.8533963463789149  1.0000
  H   H10       1.0  0.17039497591932226  0.7869619724812509  0.14660325146572012  1.0000
  H   H11       1.0  0.9122952498658351  0.4733364705245933  0.904416088263524  1.0000
  H   H12       1.0  0.08770318737366983  0.5266626086520105  0.09558480282368015  1.0000
  H   H13       1.0  0.46466195153222156  0.3882354255076876  0.7322507340520019  1.0000
  H   H14       1.0  0.5353364857072833  0.6117636536689162  0.2677501570352092  1.0000
  H   H15       1.0  0.4012399816125054  0.1301566078022418  0.682242149158732  1.0000
  H   H16       1.0  0.5987584556269994  0.8698424713743619  0.3177571385935424  1.0000
  H   H17       1.0  0.005092209170825899  0.030841510342241897  0.886897197169354  1.0000
  H   H18       1.0  0.9949062280686792  0.9691575688343619  0.11310369391785709  1.0000
  H   H19       1.0  0.10266802041842027  0.9453559568797942  0.9528110959756761  1.0000
  H   H20       1.0  0.8973308864345386  0.05464418781798489  0.04719010520389593  1.0000
  H   H21       1.0  0.35928877146066185  0.807349654598667  0.46408627969655925  1.0000
  H   H22       1.0  0.6407126794708802  0.19264729353559315  0.5359138857566847  1.0000
  H   H23       1.0  0.09281746618557923  0.6598378379363581  0.3578478638820712  1.0000
  H   H24       1.0  0.9071825269027727  0.3401580446767269  0.6421518174242565  1.0000
  H   H25       1.0  0.028914366818526115  0.7236668182625579  0.6963216661643941  1.0000
  H   H26       1.0  0.9710859978776156  0.2763343919563964  0.3036792174946257  1.0000
  H   H27       1.0  0.29875430093182603  0.8616486135567101  0.7872933409291037  1.0000
  H   H28       1.0  0.701247051994052  0.13835259666223718  0.21270771678447187  1.0000
  H   H29       1.0  0.5491348512384846  0.4019444209149583  0.5517930390122743  1.0000
  H   H30       1.0  0.4508645742307565  0.5980546582616455  0.44820722446201705  1.0000
  H   H31       1.0  0.4279081631612983  0.349365213129559  0.40726849223562317  1.0000
  H   H32       1.0  0.5720931897645798  0.6506359970893882  0.592730160475547  1.0000
  H   H33       1.0  0.8257873011966482  0.8574067737684031  0.47467416899390713  1.0000
  H   H34       1.0  0.17421400272639434  0.1425965674928875  0.5253241281799604  1.0000
  H   H35       1.0  0.9350121307818215  0.9080222260326138  0.6243810424632841  1.0000
  H   H36       1.0  0.064989642754675  0.0919821807498522  0.3756175648029441  1.0000
  H   H37       1.0  0.9185554864036618  0.0394136281761774  0.5644971508081795  1.0000
  H   H38       1.0  0.08144482928965156  0.9605897130851133  0.4355017739785937  1.0000
  H   H39       1.0  0.4873081195226803  0.6945748936857967  0.009415117592205027  1.0000
  H   H40       1.0  0.5126956794761242  0.3054273820543258  0.9905865983228423  1.0000
  H   H41       1.0  0.5579711988171994  0.8856814436057476  0.06856858603490681  1.0000
  H   H42       1.0  0.4420335884113414  0.1143208321343749  0.9314333039346964  1.0000
  H   H43       1.0  0.6755996011088428  0.8022468737028632  0.04128819592692426  1.0000
  H   H44       1.0  0.3244042468927902  0.1977532709949159  0.9587130738579573  1.0000
  C   C1        1.0  0.7519316113315284  0.2553883767445129  0.8258763843271666  1.0000
  C   C2        1.0  0.2480668259079764  0.7446107024320836  0.1741237050925761  1.0000
  C   C3        1.0  0.7985228821241322  0.4009406999703201  0.8550540345362805  1.0000
  C   C4        1.0  0.2014740972721825  0.5990573136851083  0.14494717407148267  1.0000
  C   C5        1.0  0.6954064537444253  0.4541922516156589  0.8217273961772734  1.0000
  C   C6        1.0  0.30459391095171645  0.5458089586032883  0.17827509081668322  1.0000
  C   C7        1.0  0.5486978345986914  0.3531328959960333  0.7601012766354247  1.0000
  C   C8        1.0  0.4513010722542674  0.6468672487017386  0.23989992454414028  1.0000
  C   C9        1.0  0.5125558398956828  0.209676452916824  0.7333371517663636  1.0000
  C   C10       1.0  0.487443066957269  0.790323691780955  0.26666244607827144  1.0000
  C   C11       1.0  0.8667404603081224  0.7099152020083821  0.9006058956823538  1.0000
  C   C12       1.0  0.13325647008536382  0.2900849426893899  0.09939495738809973  1.0000
  C   C13       1.0  0.002891497333138135  0.9628432903652565  0.9399523062906994  1.0000
  C   C14       1.0  0.9971059516766233  0.0371557888113401  0.060048410741956125  1.0000
  C   C15       1.0  0.28179038761764014  0.7845475015040362  0.5113860273743995  1.0000
  C   C16       1.0  0.7182100750841728  0.21544944663021678  0.48861396402428886  1.0000
  C   C17       1.0  0.13297065941996072  0.7040846701516655  0.4535075738638525  1.0000
  C   C18       1.0  0.8670312611250355  0.29591334350376286  0.5464921000142837  1.0000
  C   C19       1.0  0.03640444780424452  0.6787870664706972  0.518504528534109  1.0000
  C   C20       1.0  0.9635949776649968  0.3212120127058995  0.4814941316052456  1.0000
  C   C21       1.0  0.09810767509537041  0.7390337646144545  0.6420563588248598  1.0000
  C   C22       1.0  0.9018941964467971  0.2609663800833175  0.35794295951598093  1.0000
  C   C23       1.0  0.24789628451318185  0.8162552805596376  0.6921145854298062  1.0000
  C   C24       1.0  0.7521041291857955  0.183743798616959  0.3078842487641111  1.0000
  C   C25       1.0  0.7781235236320042  0.5654678242386096  0.5117801957863721  1.0000
  C   C26       1.0  0.2218773106775842  0.43453445150151276  0.48822019629754015  1.0000
  C   C27       1.0  0.5206717572530195  0.4385216317295502  0.47902264767552083  1.0000
  C   C28       1.0  0.4793286074431293  0.5614795784893971  0.5209774343160305  1.0000
  C   C29       1.0  0.7283052012536048  0.9246283735083054  0.6000950064902001  1.0000
  C   C30       1.0  0.2716961516722733  0.0753728367106419  0.3999036462209702  1.0000
  C   C31       1.0  0.8606530611080743  0.9314967229871839  0.5646920433719274  1.0000
  C   C32       1.0  0.13934772419868582  0.068507683795282  0.4353055881722768  1.0000
  C   C33       1.0  0.5379584813088768  0.8005058121067561  0.8870285896824158  1.0000
  C   C34       1.0  0.4620448480764737  0.199495398112191  0.11297361780773944  1.0000
  C   C35       1.0  0.5648438872339697  0.7956012181490664  0.009533157285872638  1.0000
  C   C36       1.0  0.435159911764835  0.2044010575910562  0.9904685586291749  1.0000
  N   N1        1.0  0.6116766353481395  0.1593998363855178  0.7651334552313287  1.0000
  N   N2        1.0  0.3883213322779113  0.8405981772699107  0.23486472076111659  1.0000
  N   N3        1.0  0.7282263749785047  0.5949902193691159  0.8430974753154745  1.0000
  N   N4        1.0  0.2717720622610003  0.4050088598074879  0.15690341577173686  1.0000
  N   N5        1.0  0.8749559572179706  0.8286867160809023  0.876666594206121  1.0000
  N   N6        1.0  0.1250434682512704  0.17131236309570136  0.12333447093564591  1.0000
  N   N7        1.0  0.3400842215691996  0.8393792210484037  0.6295927565656286  1.0000
  N   N8        1.0  0.6599171803595142  0.160619858128193  0.3704054500153759  1.0000
  N   N9        1.0  0.8887340733041853  0.5972715001997528  0.4600543931852387  1.0000
  N   N10       1.0  0.11126727962169979  0.4027297100191943  0.5399450611934  1.0000
  N   N11       1.0  0.6418825872584435  0.48042325184385953  0.43438911828861393  1.0000
  N   N12       1.0  0.35811730782424434  0.5195768928539124  0.5656098519431085  1.0000
  O   O1        1.0  0.9694067811404494  0.7043659677412464  0.9687811298340139  1.0000
  O   O2        1.0  0.030592644328791607  0.29563311143535737  0.031220736975221496  1.0000
  O   O3        1.0  0.8043575832582308  0.6137508506558973  0.6189497270945169  1.0000
  O   O4        1.0  0.1956422138188003  0.38625355612656875  0.3810493337300684  1.0000
  O   O5        1.0  0.7318232331246435  0.919903852628792  0.7041019668653662  1.0000
  O   O6        1.0  0.26817671096087997  0.0800941610266364  0.29589495390125364  1.0000
  O   O7        1.0  0.621952828081831  0.9277045331337347  0.5326836435890812  1.0000
  O   O8        1.0  0.3780480062277647  0.0722977426063878  0.4673167484948238  1.0000
  O   O9        1.0  0.5575178350635143  0.9219432601532347  0.8780940314544523  1.0000
  O   O10       1.0  0.44248648255157974  0.0780579500657126  0.1219059450878532  1.0000
  O   O11       1.0  0.5013249282322505  0.687773672040798  0.8009832409102414  1.0000
  O   O12       1.0  0.4986749668504445  0.312226472656981  0.19901813432388596  1.0000
