data_image0
_chemical_formula_structural       Zn2H28C64N2Cl12O8
_chemical_formula_sum              "Zn2 H28 C64 N2 Cl12 O8"
_cell_length_a       14.18411890771106
_cell_length_b       15.096923168704663
_cell_length_c       15.885697742523714
_cell_angle_alpha    96.56937102891355
_cell_angle_beta     91.0157307030064
_cell_angle_gamma    91.08443369182591

_space_group_name_H-M_alt    "P 1"
_space_group_IT_number       1

loop_
  _space_group_symop_operation_xyz
  'x, y, z'

loop_
  _atom_site_type_symbol
  _atom_site_label
  _atom_site_symmetry_multiplicity
  _atom_site_fract_x
  _atom_site_fract_y
  _atom_site_fract_z
  _atom_site_occupancy
  Zn  Zn1       1.0  0.6037960109924967  0.5126032387999403  0.5076639096945498  1.0000
  Zn  Zn2       1.0  0.39613078529041695  0.5154948937196194  0.4916540978471885  1.0000
  H   H1        1.0  0.4651994876791362  0.7656983053297495  0.3806714013105432  1.0000
  H   H2        1.0  0.37448854469811005  0.37759522663804995  0.9266952621806366  1.0000
  H   H3        1.0  0.4495936548724372  0.21101871829213792  0.35408181425231067  1.0000
  H   H4        1.0  0.5136776733431319  0.26131957559318414  0.6213571801373374  1.0000
  H   H5        1.0  0.5033188304994027  0.1352476034319636  0.7101346131438289  1.0000
  H   H6        1.0  0.48310929481521464  0.7088847704072522  0.6814767267308425  1.0000
  H   H7        1.0  0.5764151914047985  0.6606556005503992  0.8004241365689634  1.0000
  H   H8        1.0  0.7285796542198284  0.7370819021120172  0.8463469726642073  1.0000
  H   H9        1.0  0.7906078971106253  0.8594515215107708  0.7677409304677949  1.0000
  H   H10       1.0  0.6976075747599922  0.9065330508033754  0.6471599738817345  1.0000
  H   H11       1.0  0.367048237684834  0.6147594619301913  0.20542739393430748  1.0000
  H   H12       1.0  0.43478608096094007  0.054306766606686104  0.2842598271589053  1.0000
  H   H13       1.0  0.20925838550461148  0.6178525384912065  0.26745733058512394  1.0000
  H   H14       1.0  0.0710874674904289  0.5456857293875927  0.18429931640687156  1.0000
  H   H15       1.0  0.09551569241846641  0.4695645538722318  0.03904146477015048  1.0000
  H   H16       1.0  0.25294657103490437  0.46409843492318714  0.9779465481250396  1.0000
  H   H17       1.0  0.6575640721548696  0.5933227713095308  0.19049031265030433  1.0000
  H   H18       1.0  0.8040637799566568  0.574557498873446  0.2716596269976747  1.0000
  H   H19       1.0  0.920260313135941  0.46050929465239687  0.21693865003221188  1.0000
  H   H20       1.0  0.8858614929641249  0.36589278446411566  0.08018199024724028  1.0000
  H   H21       1.0  0.7386727237130798  0.3827629200146419  0.0008427088587054987  1.0000
  H   H22       1.0  0.0763220589642088  0.3587211124484213  0.31869573380277666  1.0000
  H   H23       1.0  0.9027301486886544  0.345594867185831  0.3291963547690741  1.0000
  H   H24       1.0  0.5874442098829249  0.5779962451141145  0.051326129309707376  1.0000
  H   H25       1.0  0.4537551994700308  0.6046448392314617  0.08200178249927599  1.0000
  H   H26       1.0  0.35598853805682035  0.5296545960849316  0.9264116647004099  1.0000
  H   H27       1.0  0.6247665373045306  0.4110105328005034  0.9330678834990775  1.0000
  H   H28       1.0  0.4821961165621431  0.32433197388203894  0.9022692465271474  1.0000
  C   C1        1.0  0.5175059706724312  0.6840216159612708  0.5131027928127238  1.0000
  C   C2        1.0  0.4967362131243148  0.12230014632210383  0.5723644335510867  1.0000
  C   C3        1.0  0.48262032297722607  0.0604117366975743  0.49826038554460417  1.0000
  C   C4        1.0  0.5019884886163338  0.5109119310784821  0.33814552184858115  1.0000
  C   C5        1.0  0.46455325877622744  0.09299620364344459  0.41870942910078657  1.0000
  C   C6        1.0  0.5045522627247506  0.08875235887523301  0.6524047293918045  1.0000
  C   C7        1.0  0.5088049728384831  0.999296481506029  0.6580170398184534  1.0000
  C   C8        1.0  0.5109777815312383  0.9346500024309563  0.5832853724194391  1.0000
  C   C9        1.0  0.48850047279100284  0.967235509596499  0.5038212413832851  1.0000
  C   C10       1.0  0.4742624490591821  0.9050919222121295  0.42925873120579167  1.0000
  C   C11       1.0  0.45356350826583736  0.9406096276478096  0.35072769540774823  1.0000
  C   C12       1.0  0.45070881954661957  0.3812315537824347  0.9398053534092481  1.0000
  C   C13       1.0  0.44925453419897105  0.030113142017548004  0.34515634259957295  1.0000
  C   C14       1.0  0.5315964392572852  0.8431545943930419  0.584524440836823  1.0000
  C   C15       1.0  0.5105777160800571  0.7835046290383403  0.5115861492399032  1.0000
  C   C16       1.0  0.49089807070320995  0.3436810268832177  0.4833815450158382  1.0000
  C   C17       1.0  0.480479021468092  0.8136411466684734  0.43606993823146906  1.0000
  C   C18       1.0  0.7978914198012106  0.43223847478999733  0.45476242133874206  1.0000
  C   C19       1.0  0.19352277150759528  0.45673721178348375  0.43367646869105403  1.0000
  C   C20       1.0  0.806805056525704  0.5337106779548576  0.5766545702334438  1.0000
  C   C21       1.0  0.19925088631202928  0.5487336366633287  0.5619170842772334  1.0000
  C   C22       1.0  0.9043935711341928  0.5203943774125649  0.5886172992665022  1.0000
  C   C23       1.0  0.4694818145979482  0.3760255641673211  0.03521041370995449  1.0000
  C   C24       1.0  0.10473942465142728  0.528544689592323  0.5807228758690497  1.0000
  C   C25       1.0  0.9506967714500192  0.47460497264364687  0.5182541426132301  1.0000
  C   C26       1.0  0.050899415046615104  0.47952410725521594  0.5137203186295166  1.0000
  C   C27       1.0  0.8972673574888503  0.4284348026871286  0.4498427003855097  1.0000
  C   C28       1.0  0.09536041191343259  0.44101135443620615  0.43921432475542577  1.0000
  C   C29       1.0  0.960681299237464  0.5489770823151261  0.6638350033634239  1.0000
  C   C30       1.0  0.05806261001836789  0.5524389035062071  0.660090397458951  1.0000
  C   C31       1.0  0.040447938402955685  0.390497494653701  0.373764461017167  1.0000
  C   C32       1.0  0.9446789403209975  0.38337354085585656  0.3794567903031164  1.0000
  C   C33       1.0  0.4826528389406731  0.49537808095963953  0.6581192490308536  1.0000
  C   C34       1.0  0.4853354331007012  0.4705082129831909  0.8215328450796019  1.0000
  C   C35       1.0  0.5943661310327853  0.5050580529030952  0.043451913252837884  1.0000
  C   C36       1.0  0.42222342162448706  0.5414252467530007  0.052539429003637395  1.0000
  C   C37       1.0  0.42597745843645635  0.5433384627007172  0.9556116769291092  1.0000
  C   C38       1.0  0.5946798861447248  0.4771717763571815  0.9479128810542716  1.0000
  C   C39       1.0  0.4809101445058133  0.4782854335121272  0.7462865067034412  1.0000
  C   C40       1.0  0.4963070528844255  0.4709485879373077  0.07909232426071358  1.0000
  C   C41       1.0  0.4913038428162507  0.4704253113083397  0.9128373703897805  1.0000
  C   C42       1.0  0.5834970276427072  0.8118235135517083  0.6569461274743345  1.0000
  C   C43       1.0  0.5504971341950976  0.7418933852748496  0.7001208163027142  1.0000
  C   C44       1.0  0.6026509240051467  0.7153221807391431  0.7677261577660556  1.0000
  C   C45       1.0  0.5004125916252349  0.4760312416689416  0.17025063496755874  1.0000
  C   C46       1.0  0.6884846958068139  0.7579690328436683  0.7930628045720025  1.0000
  C   C47       1.0  0.7230842571356889  0.8265047892384062  0.7492025295884444  1.0000
  C   C48       1.0  0.671097563941167  0.8529372435628771  0.6815174940349633  1.0000
  C   C49       1.0  0.32302251434977336  0.5388551652864635  0.08718701590075278  1.0000
  C   C50       1.0  0.3079132101399082  0.582160705024961  0.16868901505469575  1.0000
  C   C51       1.0  0.21846270395479905  0.5838810032939463  0.20387120661215616  1.0000
  C   C52       1.0  0.14150486596915357  0.5432979705917091  0.15767826726399642  1.0000
  C   C53       1.0  0.15515585702099338  0.5009073140876695  0.07611910887770527  1.0000
  C   C54       1.0  0.24494863118946597  0.4986790981880987  0.0414723194163713  1.0000
  C   C55       1.0  0.6852321970856535  0.4880676379757318  0.09065974115659965  1.0000
  C   C56       1.0  0.5026888215116115  0.4912250818905902  0.2468785371081807  1.0000
  C   C57       1.0  0.7067652524252068  0.5422292491375202  0.16663444437568833  1.0000
  C   C58       1.0  0.7899456285413251  0.5320635129566044  0.21235639880134013  1.0000
  C   C59       1.0  0.8547286853941785  0.46831438174825724  0.18178839403751101  1.0000
  C   C60       1.0  0.8353785567269937  0.4152796033904879  0.10531071197065955  1.0000
  C   C61       1.0  0.751465696460336  0.42510646504727123  0.06035430651096619  1.0000
  C   C62       1.0  0.4636597593619242  0.18560830617848012  0.4145754478499483  1.0000
  C   C63       1.0  0.4837997723628575  0.24510923485309632  0.4868559610902991  1.0000
  C   C64       1.0  0.4994879221443043  0.2139180323917174  0.5652108597667149  1.0000
  N   N1        1.0  0.7549328873274205  0.48827229597954874  0.5129800457477102  1.0000
  N   N2        1.0  0.2429374549369001  0.5102751765007839  0.49247543250665143  1.0000
  Cl  Cl1       1.0  0.6715312805229912  0.5494687047977678  0.8974987235307734  1.0000
  Cl  Cl2       1.0  0.12275328876939538  0.5731465768596563  0.7526584648216568  1.0000
  Cl  Cl3       1.0  0.5631612516081503  0.29971748270210696  0.04980165469001458  1.0000
  Cl  Cl4       1.0  0.36777395490871356  0.3305646482678313  0.08212414497584317  1.0000
  Cl  Cl5       1.0  0.4551899474050956  0.6537784947378358  0.9315636206783465  1.0000
  Cl  Cl6       1.0  0.5001404016634226  0.9666161484321804  0.7589623736565797  1.0000
  Cl  Cl7       1.0  0.43461747148877805  0.8670488745598633  0.25937826989172647  1.0000
  Cl  Cl8       1.0  0.7304320515407808  0.3664489067383628  0.38219544408352846  1.0000
  Cl  Cl9       1.0  0.25079541127461613  0.4116572695815322  0.34618042366094653  1.0000
  Cl  Cl10      1.0  0.7505347480137415  0.6147974270767875  0.6376199255598036  1.0000
  Cl  Cl11      1.0  0.2609367160886578  0.6325846159636795  0.6205686504027526  1.0000
  Cl  Cl12      1.0  0.9081522144750521  0.5659758926389031  0.7604608530600669  1.0000
  O   O1        1.0  0.5970407714119901  0.6477487640875881  0.5024555062695625  1.0000
  O   O2        1.0  0.43911655402257566  0.6450367739242255  0.5241147653953389  1.0000
  O   O3        1.0  0.5781260992568491  0.49796644070856644  0.3777088358367634  1.0000
  O   O4        1.0  0.42445536624540375  0.5391166138733895  0.36911422953041745  1.0000
  O   O5        1.0  0.5680970479937243  0.3807791951782349  0.5117542684802954  1.0000
  O   O6        1.0  0.42026346392317027  0.382170636203682  0.4545886987399469  1.0000
  O   O7        1.0  0.5613666616345723  0.5229659218418021  0.6333394170417037  1.0000
  O   O8        1.0  0.40600009139803456  0.48249411408907156  0.6150498314706281  1.0000
