data_image0
_chemical_formula_structural       Cd2H52C60S2N4O14
_chemical_formula_sum              "Cd2 H52 C60 S2 N4 O14"
_cell_length_a       7.934000056921822
_cell_length_b       12.193411025169725
_cell_length_c       14.740083765809532
_cell_angle_alpha    78.35052623475082
_cell_angle_beta     81.70316080308876
_cell_angle_gamma    74.35912142131556

_space_group_name_H-M_alt    "P 1"
_space_group_IT_number       1

loop_
  _space_group_symop_operation_xyz
  'x, y, z'

loop_
  _atom_site_type_symbol
  _atom_site_label
  _atom_site_symmetry_multiplicity
  _atom_site_fract_x
  _atom_site_fract_y
  _atom_site_fract_z
  _atom_site_occupancy
  Cd  Cd1       1.0  0.27016326005238506  0.0852067408866688  0.009090084633591296  1.0000
  Cd  Cd2       1.0  0.7298371393027877  0.9147914315676005  0.9909162460354185  1.0000
  H   H1        1.0  0.3566559594527873  0.2532174979182855  0.13872747730387402  1.0000
  H   H2        1.0  0.6433395873061226  0.746783261059804  0.8612754207826969  1.0000
  H   H3        1.0  0.1467021931741854  0.6414297676235917  0.8322283001201642  1.0000
  H   H4        1.0  0.8532943238174295  0.35856839707913934  0.16777428011587864  1.0000
  H   H5        1.0  0.06405803267787025  0.5701098784390484  0.7069342489571042  1.0000
  H   H6        1.0  0.9359473343429482  0.42989174373121136  0.29306498211876436  1.0000
  H   H7        1.0  0.07601662566820977  0.07543557684071801  0.8271715302143579  1.0000
  H   H8        1.0  0.9239836369208159  0.9245660426495377  0.17282744219282625  1.0000
  H   H9        1.0  0.47612477763583155  0.5007301354923327  0.14320230740178638  1.0000
  H   H10       1.0  0.5238767173147066  0.49927148002001326  0.8567938506566295  1.0000
  H   H11       1.0  0.38125267074379815  0.3947657231572562  0.21765942044735453  1.0000
  H   H12       1.0  0.6187507823051985  0.6052341672447454  0.782338904880888  1.0000
  H   H13       1.0  0.2533223875516838  0.5383073136734425  0.1870913377389627  1.0000
  H   H14       1.0  0.7466772110600742  0.4616960335110036  0.8129067175427168  1.0000
  H   H15       1.0  0.2675736515472377  0.6632274580821118  0.05470364098673741  1.0000
  H   H16       1.0  0.7324193481424216  0.3367733001027844  0.9452994664732515  1.0000
  H   H17       1.0  0.11076051797470389  0.6951929559199287  0.9724561734524643  1.0000
  H   H18       1.0  0.8892315144357706  0.3048069352872247  0.027545803718190622  1.0000
  H   H19       1.0  0.33588473302180677  0.6688570814135062  0.9347903643322513  1.0000
  H   H20       1.0  0.6641114365412547  0.3311419454958867  0.06521074121776856  1.0000
  H   H21       1.0  0.028771882892037564  0.3708962592720866  0.5600109877154652  1.0000
  H   H22       1.0  0.9712271708755575  0.629101905130213  0.43999070573165266  1.0000
  H   H23       1.0  0.09445299979808643  0.4833152047182026  0.5937633372477509  1.0000
  H   H24       1.0  0.9055492208893908  0.5166846896616947  0.406237802429253  1.0000
  H   H25       1.0  0.873235233567392  0.473885406495441  0.6183109705901729  1.0000
  H   H26       1.0  0.12676117753792226  0.526116208524158  0.381686283630579  1.0000
  H   H27       1.0  0.8614794860377869  0.22294665516354684  0.6319593353224351  1.0000
  H   H28       1.0  0.1385214508217912  0.7770532377261361  0.36804123162576025  1.0000
  H   H29       1.0  0.9903363941120346  0.08689901560387633  0.6812139568681206  1.0000
  H   H30       1.0  0.009663279506192071  0.9131008779828349  0.3187873921822941  1.0000
  H   H31       1.0  0.08560444458882437  0.1777116840868871  0.5899986098660153  1.0000
  H   H32       1.0  0.9143952084428475  0.8222882073125746  0.41000138435337163  1.0000
  H   H33       1.0  0.7154152125604296  0.10822854106200447  0.19017641570222577  1.0000
  H   H34       1.0  0.2845888632927183  0.8917696172713008  0.8098201170894586  1.0000
  H   H35       1.0  0.4550779691005074  0.1728291685473877  0.30018868944707583  1.0000
  H   H36       1.0  0.5449241045275526  0.8271741717748714  0.6998044145525882  1.0000
  H   H37       1.0  0.7854111756970777  0.2718042193506919  0.46214308150562305  1.0000
  H   H38       1.0  0.21459204905647059  0.7281896227816274  0.5378583244275321  1.0000
  H   H39       1.0  0.04766804807042036  0.19899301011857062  0.3553678301936216  1.0000
  H   H40       1.0  0.9523422318736082  0.8009956472366683  0.6446338761226758  1.0000
  H   H41       1.0  0.43619236900223496  0.0775629019256741  0.577781587513279  1.0000
  H   H42       1.0  0.5638111355131555  0.9224369939444446  0.42222012489254007  1.0000
  H   H43       1.0  0.5066532984682509  0.0192858813505126  0.7443442324695656  1.0000
  H   H44       1.0  0.4933457141262277  0.9807122786772954  0.25565475131548965  1.0000
  H   H45       1.0  0.5687958867164651  0.35821413097692567  0.743440209786698  1.0000
  H   H46       1.0  0.43120288433576787  0.641781440940683  0.25656262532762514  1.0000
  H   H47       1.0  0.49602661678415655  0.4197788475658726  0.5785818601897433  1.0000
  H   H48       1.0  0.5039730877139091  0.5802210493017127  0.42142152110722014  1.0000
  H   H49       1.0  0.13541069229098907  0.9148037606190019  0.9345300481679719  1.0000
  H   H50       1.0  0.8645851401368032  0.0851961295906847  0.06547026011153889  1.0000
  H   H51       1.0  0.26372204064358573  0.8646633495785351  0.018733968991952607  1.0000
  H   H52       1.0  0.7362737917841995  0.13533654063115108  0.9812663392875508  1.0000
  C   C1        1.0  0.3137924981384045  0.31853801536599496  0.07874161845830942  1.0000
  C   C2        1.0  0.6861991735967123  0.6814661982072963  0.9212596547506708  1.0000
  C   C3        1.0  0.3051121676477706  0.43579389054553996  0.0779114750210042  1.0000
  C   C4        1.0  0.6948807570354203  0.5642103212370913  0.9220883386702425  1.0000
  C   C5        1.0  0.25076510100473104  0.5159601657402321  0.998987825566438  1.0000
  C   C6        1.0  0.7492268872790999  0.4840431823455232  0.0010128900820234176  1.0000
  C   C7        1.0  0.20398392024171833  0.4751029411072738  0.9245176149334356  1.0000
  C   C8        1.0  0.7960119018927966  0.5248969480087808  0.07548201593055384  1.0000
  C   C9        1.0  0.1501948086864288  0.5502124983663563  0.8402875305663643  1.0000
  C   C10       1.0  0.8498045513366035  0.4497847994547898  0.1597129279047138  1.0000
  C   C11       1.0  0.1040587293299495  0.5099535470067806  0.7698671210631362  1.0000
  C   C12       1.0  0.8959409237017223  0.4900463443926811  0.23013287315625067  1.0000
  C   C13       1.0  0.10213074710332384  0.39134919582640754  0.7782414748851779  1.0000
  C   C14       1.0  0.8978641592183935  0.6086498317800207  0.2217604127670612  1.0000
  C   C15       1.0  0.05295500256418958  0.34700072073042076  0.7063787460934778  1.0000
  C   C16       1.0  0.9470389335248228  0.6530009011513586  0.2936234594092966  1.0000
  C   C17       1.0  0.04398294455469911  0.23165833090457258  0.7238096259876201  1.0000
  C   C18       1.0  0.9560125713243792  0.7683424247926426  0.27619123985240895  1.0000
  C   C19       1.0  0.08656686809565167  0.1647600092061907  0.8109723975048626  1.0000
  C   C20       1.0  0.9134369323818983  0.8352390189891425  0.18902740250940298  1.0000
  C   C21       1.0  0.15049285603209478  0.31480606846799475  0.8619137013019513  1.0000
  C   C22       1.0  0.8495064598643012  0.6851946862317534  0.1380854956469265  1.0000
  C   C23       1.0  0.20983111352291667  0.355980814413158  0.9340976223131536  1.0000
  C   C24       1.0  0.790165675890783  0.6440199416806536  0.06590313884016304  1.0000
  C   C25       1.0  0.3564659914187727  0.4688245739067654  0.16089158450945013  1.0000
  C   C26       1.0  0.643536154262236  0.5311787740708666  0.8391062613988114  1.0000
  C   C27       1.0  0.24051580349007637  0.6416208628318502  0.9908307511219978  1.0000
  C   C28       1.0  0.759478145845733  0.3583772988904528  0.009170683656421432  1.0000
  C   C29       1.0  0.010668844171767881  0.4224896801513509  0.6150760371995363  1.0000
  C   C30       1.0  0.9893324195298017  0.5775093483444209  0.38492464960365425  1.0000
  C   C31       1.0  0.9927518234059033  0.1767653284980142  0.6530839568283469  1.0000
  C   C32       1.0  0.007247860505607583  0.8232345661823287  0.3469180696375816  1.0000
  C   C33       1.0  0.05918560273692459  0.11864269897964158  0.19762068375776215  1.0000
  C   C34       1.0  0.9408220212980181  0.8813528691523725  0.8023773540565248  1.0000
  C   C35       1.0  0.8986609556663151  0.15048356416311037  0.2654286667511059  1.0000
  C   C36       1.0  0.10134347790867076  0.849513733057158  0.7345700181421223  1.0000
  C   C37       1.0  0.7322160611482075  0.14206773252320204  0.25040722111535274  1.0000
  C   C38       1.0  0.2677873919007822  0.8579321578787926  0.7495911042128827  1.0000
  C   C39       1.0  0.5849608965422134  0.17956706221350777  0.311089799514484  1.0000
  C   C40       1.0  0.4150408914169643  0.8204371468771612  0.6889058942922405  1.0000
  C   C41       1.0  0.6054829898942696  0.22816160135785424  0.38562377529229513  1.0000
  C   C42       1.0  0.3945236094880613  0.7718400168344884  0.6143726414348124  1.0000
  C   C43       1.0  0.7709109284874243  0.23494651360440602  0.40305514934899384  1.0000
  C   C44       1.0  0.22909638929208848  0.7650499211087693  0.5969441234413324  1.0000
  C   C45       1.0  0.9173173308511264  0.19455689980438956  0.34346405774636685  1.0000
  C   C46       1.0  0.0826929461393888  0.8054352188039571  0.6565390967097927  1.0000
  C   C47       1.0  0.4629579344370921  0.2516655382265825  0.5694304124194149  1.0000
  C   C48       1.0  0.5370461281692582  0.7483360802661991  0.43056689109661767  1.0000
  C   C49       1.0  0.46491426581730616  0.1387199228338645  0.6143425731545449  1.0000
  C   C50       1.0  0.5350885541342549  0.8612816985432019  0.38565686729474186  1.0000
  C   C51       1.0  0.5018702547647391  0.10640829366562342  0.7068381192453402  1.0000
  C   C52       1.0  0.49812586037841555  0.8935941890287538  0.2931610473669651  1.0000
  C   C53       1.0  0.5398214252430192  0.18543899753971976  0.7530257333224244  1.0000
  C   C54       1.0  0.46017116230488847  0.8145660775431977  0.24697328309830624  1.0000
  C   C55       1.0  0.5382584136857886  0.29792167260427505  0.7067371291776114  1.0000
  C   C56       1.0  0.46173393231987325  0.7020808143684434  0.2932657385723871  1.0000
  C   C57       1.0  0.4988045265477864  0.33213435465199853  0.6146248300528117  1.0000
  C   C58       1.0  0.5011970610422619  0.6678672707029707  0.3853774247452293  1.0000
  C   C59       1.0  0.5896678970879137  0.1478551256195715  0.8511246201231872  1.0000
  C   C60       1.0  0.4103330633117464  0.8521413082042529  0.1488758535161807  1.0000
  S   S1        1.0  0.4129799032358076  0.2948683835073354  0.4519715682602482  1.0000
  S   S2        1.0  0.5870225766269569  0.7051375624231184  0.5480285230583917  1.0000
  N   N1        1.0  0.2675245332025468  0.2794637034434829  0.010482482817849397  1.0000
  N   N2        1.0  0.732468142598634  0.7205344578822234  0.9895190566472821  1.0000
  N   N3        1.0  0.14052404226224266  0.20327284247586874  0.876943418104631  1.0000
  N   N4        1.0  0.8594861597217971  0.7967227297302133  0.12305644258278656  1.0000
  O   O1        1.0  0.03325887483996578  0.08992663491863337  0.12136659384303534  1.0000
  O   O2        1.0  0.9667431102123127  0.9100637488448627  0.8786355008835117  1.0000
  O   O3        1.0  0.20471236161889542  0.12404365712297502  0.21653915705817892  1.0000
  O   O4        1.0  0.7952897458425239  0.8759562252270572  0.7834545310481646  1.0000
  O   O5        1.0  0.2699953978665091  0.24741615709243087  0.439196896570465  1.0000
  O   O6        1.0  0.7300073132452239  0.7525923758545973  0.560798666003393  1.0000
  O   O7        1.0  0.3929814148496788  0.4192745818731468  0.4278196328316356  1.0000
  O   O8        1.0  0.6070267819557453  0.5807296335749896  0.572178247203617  1.0000
  O   O9        1.0  0.5372334165215732  0.06036593788551412  0.9000339721482791  1.0000
  O   O10       1.0  0.46277108176659676  0.939627904643395  0.09996732909817035  1.0000
  O   O11       1.0  0.6807538728019722  0.2026148042451723  0.8785110254687966  1.0000
  O   O12       1.0  0.3192435188293243  0.7973842175926936  0.12148658831694087  1.0000
  O   O13       1.0  0.24087080291531024  0.9222497196076418  0.9596066753606753  1.0000
  O   O14       1.0  0.7591215225037969  0.0777527651778342  0.040394837558288495  1.0000
