data_image0
_chemical_formula_structural       Zn6H28C24O32
_chemical_formula_sum              "Zn6 H28 C24 O32"
_cell_length_a       6.0527459045801315
_cell_length_b       9.442610026017746
_cell_length_c       15.238947452244789
_cell_angle_alpha    90.00009711671879
_cell_angle_beta     90.00060428802526
_cell_angle_gamma    103.15306556888028

_space_group_name_H-M_alt    "P 1"
_space_group_IT_number       1

loop_
  _space_group_symop_operation_xyz
  'x, y, z'

loop_
  _atom_site_type_symbol
  _atom_site_label
  _atom_site_symmetry_multiplicity
  _atom_site_fract_x
  _atom_site_fract_y
  _atom_site_fract_z
  _atom_site_occupancy
  Zn  Zn1       1.0  0.5000079429897822  3.289752044000008e-07  0.9999999025691434  1.0000
  Zn  Zn2       1.0  0.4999972949417141  0.4999996014275041  0.4999991025240006  1.0000
  Zn  Zn3       1.0  0.9038013588009405  0.6540010194113891  0.9096753070102321  1.0000
  Zn  Zn4       1.0  0.0961986452040051  0.84599811120858  0.4096752744404738  1.0000
  Zn  Zn5       1.0  0.09620865707711347  0.3460090589599217  0.09032486671581808  1.0000
  Zn  Zn6       1.0  0.9037961601820967  0.1539923911398375  0.5903248992432066  1.0000
  H   H1        1.0  0.3336091563184097  0.6647695284370911  0.9339907579673434  1.0000
  H   H2        1.0  0.6663901788697044  0.8352352080031976  0.4339885101009031  1.0000
  H   H3        1.0  0.6663945742007725  0.33522749921527145  0.06600810331194397  1.0000
  H   H4        1.0  0.3336124561808446  0.1647726952842774  0.5660064139021087  1.0000
  H   H5        1.0  0.20808117043532084  0.4977946747860429  0.9214468882176446  1.0000
  H   H6        1.0  0.7919250942171273  0.0022047128554803  0.42144415338177044  1.0000
  H   H7        1.0  0.791914299356982  0.502202352926858  0.07854934819112457  1.0000
  H   H8        1.0  0.20808717530641738  0.9977977525333303  0.5785514268518168  1.0000
  H   H9        1.0  0.6024965494083219  0.07461443414204179  0.820945139994542  1.0000
  H   H10       1.0  0.39749562259867577  0.42538534681366963  0.32095039255842284  1.0000
  H   H11       1.0  0.39750183856885  0.9253815059845892  0.17905175263305745  1.0000
  H   H12       1.0  0.6025030437701417  0.574616031137154  0.6790484687125795  1.0000
  H   H13       1.0  0.506068802053818  0.2648886255988998  0.7387293879105312  1.0000
  H   H14       1.0  0.4939067185208542  0.2351029744860682  0.23873155961013734  1.0000
  H   H15       1.0  0.49393421915397767  0.7351203652628724  0.2612694733736731  1.0000
  H   H16       1.0  0.506094201560046  0.7648907904981358  0.7612673016615045  1.0000
  H   H17       1.0  0.2893448102615466  0.3440772067877447  0.7782080807537068  1.0000
  H   H18       1.0  0.7106374757032937  0.15592119136715613  0.278202545152638  1.0000
  H   H19       1.0  0.7106590909502515  0.6559296089545794  0.22179537402428195  1.0000
  H   H20       1.0  0.2893457647565185  0.8440693110877716  0.7218002533600156  1.0000
  H   H21       1.0  0.018567554372765485  0.12972626544969756  0.8341686125102326  1.0000
  H   H22       1.0  0.9814228549458548  0.37027686955181577  0.33416641012170323  1.0000
  H   H23       1.0  0.9814440059059846  0.8702881631643888  0.16583156122138115  1.0000
  H   H24       1.0  0.01856660789825075  0.6297125452708628  0.6658317949103034  1.0000
  H   H25       1.0  0.1892641910500998  0.05997583502110611  0.7608160977117675  1.0000
  H   H26       1.0  0.810719736674386  0.4400191802711007  0.2608132546424002  1.0000
  H   H27       1.0  0.8107361275516067  0.9400255429384712  0.23918932569569754  1.0000
  H   H28       1.0  0.18927749308788577  0.5599734971938445  0.7391895439007283  1.0000
  C   C1        1.0  0.6182446807422648  0.44292872250809967  0.8251280739135536  1.0000
  C   C2        1.0  0.3817547149432555  0.05706782459895981  0.3251341782311598  1.0000
  C   C3        1.0  0.381764392261843  0.5570693926563877  0.1748688187376075  1.0000
  C   C4        1.0  0.6182420209246899  0.9429281155483906  0.6748646830328866  1.0000
  C   C5        1.0  0.4434261528708632  0.3091945387568201  0.7981270834651963  1.0000
  C   C6        1.0  0.556565465246912  0.19080073427894456  0.2981288140509547  1.0000
  C   C7        1.0  0.5565798942683812  0.6908090142642465  0.20187309024903746  1.0000
  C   C8        1.0  0.4434238898791491  0.8091930308049697  0.70187070340976  1.0000
  C   C9        1.0  0.378761678148109  0.18676280671477488  0.8660108358442924  1.0000
  C   C10       1.0  0.621235598500469  0.3132340228583671  0.3660103438024079  1.0000
  C   C11       1.0  0.6212390264776673  0.813239658787353  0.13398933785816775  1.0000
  C   C12       1.0  0.3787590991390601  0.686760829744486  0.6339891736700806  1.0000
  C   C13       1.0  0.16542123676472187  0.0794186589136388  0.8309495108438866  1.0000
  C   C14       1.0  0.8345695730594966  0.4205811911512639  0.33094740309825704  1.0000
  C   C15       1.0  0.8345822783469073  0.9205870692679881  0.16905394393270964  1.0000
  C   C16       1.0  0.1654288149937813  0.5794147489935001  0.6690547392357543  1.0000
  C   C17       1.0  0.10092375115346643  0.9344153733960852  0.8773716750788977  1.0000
  C   C18       1.0  0.8990740501489256  0.5655846215944961  0.3773668323972358  1.0000
  C   C19       1.0  0.89909044900412  0.06559252982793849  0.12263309214785068  1.0000
  C   C20       1.0  0.100917837023772  0.4344069683333913  0.6226307164277143  1.0000
  C   C21       1.0  0.3262303064537306  0.24455453425860435  0.9562748648177715  1.0000
  C   C22       1.0  0.6737698656300352  0.2554483567711188  0.4562745310201989  1.0000
  C   C23       1.0  0.673784387522076  0.755450106264881  0.043728589981668585  1.0000
  C   C24       1.0  0.3262169574208471  0.7445475834620295  0.5437249864363736  1.0000
  O   O1        1.0  0.21049052037617594  0.5985780492332679  0.9015479351489543  1.0000
  O   O2        1.0  0.789511672283325  0.9014232003315922  0.40154496179347626  1.0000
  O   O3        1.0  0.7895097981113748  0.40142332869910285  0.09844961369891077  1.0000
  O   O4        1.0  0.2104956408269203  0.09857926509898358  0.5984506184297229  1.0000
  O   O5        1.0  0.6941713959159158  0.4538551101174589  0.9039807976756505  1.0000
  O   O6        1.0  0.3058249433914142  0.0461408942487651  0.4039813223547952  1.0000
  O   O7        1.0  0.3058383416180561  0.5461495304409922  0.09602068847350148  1.0000
  O   O8        1.0  0.6941609997125368  0.9538572211174243  0.5960175388877997  1.0000
  O   O9        1.0  0.6839655130000536  0.544661974162338  0.7704355124197801  1.0000
  O   O10       1.0  0.3160362274807936  0.9553198809500569  0.2704397994329212  1.0000
  O   O11       1.0  0.31603750822677057  0.45534701670396055  0.22956466129102887  1.0000
  O   O12       1.0  0.6839437086368958  0.04467062151685041  0.7295584055797019  1.0000
  O   O13       1.0  0.5611947490519497  0.11519308303009981  0.8795337672737771  1.0000
  O   O14       1.0  0.4387964188782689  0.3847994897770519  0.3795345559547556  1.0000
  O   O15       1.0  0.43880518330689  0.8848072073347736  0.12046181293279548  1.0000
  O   O16       1.0  0.5611978926135136  0.6151942752537637  0.6204616804498426  1.0000
  O   O17       1.0  0.17758575843032526  0.9130313051722962  0.9526618010628309  1.0000
  O   O18       1.0  0.8224029392570813  0.5869746479311643  0.4526612534750995  1.0000
  O   O19       1.0  0.8224153952606983  0.0869863862394595  0.04734362235512179  1.0000
  O   O20       1.0  0.1775906001390055  0.4130169420031962  0.547342201273018  1.0000
  O   O21       1.0  0.9618568505024852  0.8329513130819136  0.8367813825167117  1.0000
  O   O22       1.0  0.038126942959323167  0.667049489144169  0.3367776337683565  1.0000
  O   O23       1.0  0.038135378064971796  0.1670598530281637  0.16322600951894364  1.0000
  O   O24       1.0  0.9618743632597954  0.33294536340979153  0.6632238523578875  1.0000
  O   O25       1.0  0.1851121819721868  0.3264264610965455  0.9595432114128994  1.0000
  O   O26       1.0  0.8148922690165178  0.17357427733479366  0.459538131623688  1.0000
  O   O27       1.0  0.8148984354992024  0.6735760043265911  0.040458274736934585  1.0000
  O   O28       1.0  0.18510028265751538  0.8264238379802434  0.5404620420593529  1.0000
  O   O29       1.0  0.4120330629843138  0.20258585157512948  0.0250118857078476  1.0000
  O   O30       1.0  0.5879818116993221  0.2974162347400124  0.5250127169356913  1.0000
  O   O31       1.0  0.5879771683488499  0.7974155262782434  0.9749869755873917  1.0000
  O   O32       1.0  0.41200870172725246  0.7025807930259871  0.4749868005292014  1.0000
