data_image0
_chemical_formula_structural       La2H30C48O18
_chemical_formula_sum              "La2 H30 C48 O18"
_cell_length_a       7.829149014663388
_cell_length_b       9.449426444669454
_cell_length_c       13.74211623826328
_cell_angle_alpha    79.3856662866728
_cell_angle_beta     89.38147257971303
_cell_angle_gamma    84.78981044670198

_space_group_name_H-M_alt    "P 1"
_space_group_IT_number       1

loop_
  _space_group_symop_operation_xyz
  'x, y, z'

loop_
  _atom_site_type_symbol
  _atom_site_label
  _atom_site_symmetry_multiplicity
  _atom_site_fract_x
  _atom_site_fract_y
  _atom_site_fract_z
  _atom_site_occupancy
  La  La1       1.0  0.25819235970737253  0.9691553378152448  0.5517005272944999  1.0000
  La  La2       1.0  0.7418071143044004  0.030845781270379298  0.44830195811869794  1.0000
  H   H1        1.0  0.1636216976466613  0.04275404285857579  0.7752442365609652  1.0000
  H   H2        1.0  0.8363796020009175  0.9572524964852674  0.22475906247311883  1.0000
  H   H3        1.0  0.9512109357156862  0.893253843518465  0.68871601986784  1.0000
  H   H4        1.0  0.04878584805385343  0.10674833972996822  0.3112848985477185  1.0000
  H   H5        1.0  0.11636764706580745  0.8235413762082688  0.75985267946821  1.0000
  H   H6        1.0  0.8836285504374644  0.17646502103013967  0.24015284384419283  1.0000
  H   H7        1.0  0.17114715321004334  0.16363963202606874  0.16154433267330856  1.0000
  H   H8        1.0  0.8288548809199768  0.8363516597576605  0.8384651106704267  1.0000
  H   H9        1.0  0.8479194858804604  0.37419986166281666  0.43560024088898786  1.0000
  H   H10       1.0  0.15208735666775647  0.625803670967976  0.5643968329997193  1.0000
  H   H11       1.0  0.6943014030685221  0.5422264838160586  0.24211318810235838  1.0000
  H   H12       1.0  0.30569742065767974  0.4577608181620717  0.7578778147111365  1.0000
  H   H13       1.0  0.648769946605384  0.5950518314725102  0.42584281532103313  1.0000
  H   H14       1.0  0.3512375926091309  0.40495603239263994  0.5741544770339289  1.0000
  H   H15       1.0  0.9862005392133782  0.37442793196049007  0.9217464928216045  1.0000
  H   H16       1.0  0.013792854829922867  0.6255709530857133  0.07825409931520971  1.0000
  H   H17       1.0  0.11303886252046172  0.12881813238195153  0.991632978339311  1.0000
  H   H18       1.0  0.8869603162448954  0.8711850703506486  0.00837290391115892  1.0000
  H   H19       1.0  0.04745209138030762  0.2643346450837639  0.7754523646730644  1.0000
  H   H20       1.0  0.9525449834090837  0.7356654078216708  0.2245473456829359  1.0000
  H   H21       1.0  0.6184014182530078  0.6903455723320066  0.755394877891028  1.0000
  H   H22       1.0  0.3815949556435286  0.3096501026430474  0.24460680277643118  1.0000
  H   H23       1.0  0.5555507889050164  0.7559088630039881  0.3020572281063778  1.0000
  H   H24       1.0  0.44446175884856143  0.24408078499700994  0.6979370739177354  1.0000
  H   H25       1.0  0.7715296221096469  0.5885367987968663  0.9125823997014846  1.0000
  H   H26       1.0  0.22846391603472682  0.4114610055124928  0.0874183179981216  1.0000
  H   H27       1.0  0.4589460679704872  0.6925393272022828  0.955711141826846  1.0000
  H   H28       1.0  0.541041518920558  0.30746499064140664  0.04428302125604229  1.0000
  H   H29       1.0  0.6545785971070542  0.5161296914239986  0.06754633148006657  1.0000
  H   H30       1.0  0.34540774900558807  0.48386497660615674  0.9324431426776696  1.0000
  C   C1        1.0  0.010748689755253301  0.21659637531305256  0.5866569399289716  1.0000
  C   C2        1.0  0.9892543279458083  0.783407070195345  0.4133408901777571  1.0000
  C   C3        1.0  0.8977377957208078  0.35069823754763263  0.590962879827913  1.0000
  C   C4        1.0  0.10226154264301357  0.6493040556668602  0.4090351024670581  1.0000
  C   C5        1.0  0.6673363362509905  0.6004890421918816  0.5807069023846336  1.0000
  C   C6        1.0  0.33266682273343673  0.3995132914489901  0.4192925124700295  1.0000
  C   C7        1.0  0.86958717878926  0.4127509121109084  0.6783635656981061  1.0000
  C   C8        1.0  0.1304108865039879  0.5872513728165742  0.3216336958794486  1.0000
  C   C9        1.0  0.3828837338868355  0.002409547793504903  0.2977775642449386  1.0000
  C   C10       1.0  0.6171221363611749  0.9975819556353327  0.7022252861402051  1.0000
  C   C11       1.0  0.34167978397447035  0.969959094397467  0.19790285417686704  1.0000
  C   C12       1.0  0.6583311841912763  0.030032504440782808  0.8020999607076789  1.0000
  C   C13       1.0  0.5315798553658767  0.723582105670083  0.571800887244528  1.0000
  C   C14       1.0  0.4684197599292617  0.27641790154802237  0.4282031829166044  1.0000
  C   C15       1.0  0.38970150775882934  0.8259145606471918  0.0649822776880526  1.0000
  C   C16       1.0  0.6103003781550173  0.17408776470666962  0.9350164164491942  1.0000
  C   C17       1.0  0.7480705241816569  0.5380356503304996  0.6731464003691912  1.0000
  C   C18       1.0  0.25193037686374714  0.46196450526267097  0.32685182417621655  1.0000
  C   C19       1.0  0.23092418261237677  0.06831778164254132  0.13620669957799686  1.0000
  C   C20       1.0  0.7690788448392001  0.931675773293911  0.8637988358021501  1.0000
  C   C21       1.0  0.8198149728939584  0.4185688575549308  0.5022160623066938  1.0000
  C   C22       1.0  0.1801837848390235  0.581437711910894  0.49778360651482956  1.0000
  C   C23       1.0  0.2743040200609101  0.9307285547720172  0.003672976267850494  1.0000
  C   C24       1.0  0.7256951601132968  0.06927466352593112  0.9963321763900481  1.0000
  C   C25       1.0  0.6117994981264941  0.6232679362588059  0.19306965937335008  1.0000
  C   C26       1.0  0.38820030905929315  0.37672151991468183  0.8069225426245552  1.0000
  C   C27       1.0  0.4219486338783868  0.8457880468110376  0.16439696889258928  1.0000
  C   C28       1.0  0.5780604890390609  0.15420791338356574  0.8356024342456507  1.0000
  C   C29       1.0  0.7077658136217624  0.5441580655495458  0.4964370443877612  1.0000
  C   C30       1.0  0.29223607370093424  0.4558442753696499  0.5035609201569144  1.0000
  C   C31       1.0  0.9194027586179063  0.41956614929351593  0.8521435435951119  1.0000
  C   C32       1.0  0.08059205541476189  0.5804316944335355  0.14785643563677547  1.0000
  C   C33       1.0  0.19903870578929175  0.049500515305616895  0.03952701975774891  1.0000
  C   C34       1.0  0.8009607611782102  0.9505005259533092  0.9604791136183053  1.0000
  C   C35       1.0  0.9531655762385826  0.3565549680644438  0.7702899133303447  1.0000
  C   C36       1.0  0.04683149432424469  0.6434450381449751  0.22971198580337673  1.0000
  C   C37       1.0  0.7146982776212668  0.5987794457777866  0.7592475668517196  1.0000
  C   C38       1.0  0.28529723448654926  0.40122274474897074  0.2407519012538515  1.0000
  C   C39       1.0  0.5318498524226173  0.7404600171928948  0.22698538867050638  1.0000
  C   C40       1.0  0.46815715947459324  0.2595327153478452  0.7730114905361204  1.0000
  C   C41       1.0  0.22560616546282117  0.9175518501790378  0.9018521698121305  1.0000
  C   C42       1.0  0.7743868243428906  0.08244058885514251  0.0981462662062995  1.0000
  C   C43       1.0  0.7991036497275561  0.5410900161997035  0.8469683660232332  1.0000
  C   C44       1.0  0.20089130840617742  0.45890674679051097  0.15303173877144624  1.0000
  C   C45       1.0  0.4790836595326908  0.7063719504687711  0.031471465118237126  1.0000
  C   C46       1.0  0.5209096073157939  0.2936282020983326  0.9685202463449301  1.0000
  C   C47       1.0  0.5878805982699193  0.6081121783967091  0.09394902294943112  1.0000
  C   C48       1.0  0.41211083871619547  0.39188250721616674  0.9060440636705634  1.0000
  O   O1        1.0  0.1885754745132004  0.04752221582109681  0.8449009129977013  1.0000
  O   O2        1.0  0.8114255369322337  0.9524864849964201  0.15510213491079133  1.0000
  O   O3        1.0  0.2588655754088764  0.020326353680687203  0.3573527223342836  1.0000
  O   O4        1.0  0.7411407271423445  0.9796619075376396  0.6426505047392298  1.0000
  O   O5        1.0  0.5460056226181322  0.835394966448682  0.5024922086230176  1.0000
  O   O6        1.0  0.4539959708670055  0.1646094736828445  0.4975084231663586  1.0000
  O   O7        1.0  0.5386941587819223  0.013936421463078804  0.3154906365927204  1.0000
  O   O8        1.0  0.4613135371018942  0.986060502223978  0.6845130274133097  1.0000
  O   O9        1.0  0.9838303306937348  0.14744731540982062  0.5156019875587106  1.0000
  O   O10       1.0  0.016169000625822574  0.8525548999779816  0.4843996426991239  1.0000
  O   O11       1.0  0.4020039444044343  0.7161153424346623  0.6271528079121822  1.0000
  O   O12       1.0  0.5980006331605028  0.28388593432173087  0.37284672363012555  1.0000
  O   O13       1.0  0.13434672313793783  0.17029383042827823  0.64652602090964  1.0000
  O   O14       1.0  0.8656627914488764  0.8297184352196113  0.35346929225871543  1.0000
  O   O15       1.0  0.0738560020619801  0.8565512677325202  0.6903256982917794  1.0000
  O   O16       1.0  0.9261437363128735  0.1434574247979796  0.3096766288992967  1.0000
  O   O17       1.0  0.21417227687535964  0.8020379047496179  0.872719704073198  1.0000
  O   O18       1.0  0.7858170864530507  0.19798128809473076  0.1272879959491604  1.0000
