data_image0
_chemical_formula_structural       Cd12H96C168O48
_chemical_formula_sum              "Cd12 H96 C168 O48"
_cell_length_a       8.746320899031996
_cell_length_b       24.623749738049796
_cell_length_c       46.56855972416408
_cell_angle_alpha    89.9998417705939
_cell_angle_beta     90.00026085972168
_cell_angle_gamma    90.00016664473164

_space_group_name_H-M_alt    "P 1"
_space_group_IT_number       1

loop_
  _space_group_symop_operation_xyz
  'x, y, z'

loop_
  _atom_site_type_symbol
  _atom_site_label
  _atom_site_symmetry_multiplicity
  _atom_site_fract_x
  _atom_site_fract_y
  _atom_site_fract_z
  _atom_site_occupancy
  Cd  Cd1       1.0  0.9124258229846517  0.5377303305638749  0.8491205254438654  1.0000
  Cd  Cd2       1.0  0.41241836343726135  0.9622695048246469  0.6508806720114251  1.0000
  Cd  Cd3       1.0  0.5875769242878944  0.46226440285251874  0.8491193676395454  1.0000
  Cd  Cd4       1.0  0.0875694067003678  0.03773305687780491  0.6508824976132175  1.0000
  Cd  Cd5       1.0  0.08758569021016882  0.4622688075880462  0.15088068084766348  1.0000
  Cd  Cd6       1.0  0.5875942930689534  0.03773328834472521  0.34911709848345396  1.0000
  Cd  Cd7       1.0  0.4124208688455013  0.5377343291814682  0.1508814091720936  1.0000
  Cd  Cd8       1.0  0.9124180963617051  0.9622608018092439  0.3491174202489589  1.0000
  Cd  Cd9       1.0  0.2500130481947238  0.4999998314131135  0.8175094566301623  1.0000
  Cd  Cd10      1.0  0.7499905529440127  0.9999986184119934  0.6824931046499287  1.0000
  Cd  Cd11      1.0  0.7499996083353863  0.49999930673995874  0.18249153492470782  1.0000
  Cd  Cd12      1.0  0.25000105829924724  0.9999984998044981  0.3175101614792267  1.0000
  H   H1        1.0  0.9940460470017527  0.45327760761261987  0.7516963079307217  1.0000
  H   H2        1.0  0.9683647998136139  0.3778825891230042  0.7164912693051163  1.0000
  H   H3        1.0  0.77170764184671  0.277445134698155  0.7827202768707123  1.0000
  H   H4        1.0  0.7874109735507132  0.35427453812067  0.8169574898119123  1.0000
  H   H5        1.0  0.05885158507124539  0.2956919947195686  0.7024391841498456  1.0000
  H   H6        1.0  0.0587411320194633  0.2097871987477191  0.6743204902783759  1.0000
  H   H7        1.0  0.6585868158634297  0.15627766820453812  0.719400557554458  1.0000
  H   H8        1.0  0.6522099615338846  0.24261456615528235  0.7466897186996208  1.0000
  H   H9        1.0  0.4543140162812946  0.548459813278143  0.9129578118280292  1.0000
  H   H10       1.0  0.4562286070213588  0.5482180387088961  0.9662738272083189  1.0000
  H   H11       1.0  0.1636660316730669  0.4180286029498534  0.0058021769641954  1.0000
  H   H12       1.0  0.15936887527800542  0.419099784776151  0.0592983531918421  1.0000
  H   H13       1.0  0.49404781723956864  0.04672311340271311  0.7483033291774532  1.0000
  H   H14       1.0  0.4683600367931788  0.12211485654841431  0.7835098489314376  1.0000
  H   H15       1.0  0.27170553382337903  0.22255576350909934  0.7172808873943592  1.0000
  H   H16       1.0  0.2874142670400772  0.14572597014733904  0.6830428289786424  1.0000
  H   H17       1.0  0.5588431607491484  0.20430584154856754  0.7975622269851925  1.0000
  H   H18       1.0  0.558735236259608  0.2902110435216656  0.8256802765512318  1.0000
  H   H19       1.0  0.1585883766447083  0.34372148909555034  0.7805985770355476  1.0000
  H   H20       1.0  0.15221244025265432  0.25738499069239407  0.753309195682796  1.0000
  H   H21       1.0  0.9543174000295096  0.9515400652468176  0.5870419184066336  1.0000
  H   H22       1.0  0.9562249878227577  0.9517814356716839  0.5337259046661131  1.0000
  H   H23       1.0  0.6636682134194843  0.08196869796262972  0.49419695605802616  1.0000
  H   H24       1.0  0.6593743289821887  0.08089629337614211  0.44070142035771903  1.0000
  H   H25       1.0  0.5059589196490394  0.5467221007349821  0.7516958154577935  1.0000
  H   H26       1.0  0.5316381728585854  0.6221173026858794  0.7164904737864929  1.0000
  H   H27       1.0  0.7282935010779781  0.7225552241963838  0.7827205767561125  1.0000
  H   H28       1.0  0.7125887099355666  0.6457223934595435  0.8169576739285773  1.0000
  H   H29       1.0  0.4411511508784969  0.704307861637183  0.7024403375554867  1.0000
  H   H30       1.0  0.44125863785677677  0.790214022473954  0.6743225917426088  1.0000
  H   H31       1.0  0.8414059371165337  0.8437246451006999  0.7194033539984446  1.0000
  H   H32       1.0  0.8477914541629872  0.757386386611387  0.7466913585479703  1.0000
  H   H33       1.0  0.0456743695462691  0.451538539899481  0.9129585664168047  1.0000
  H   H34       1.0  0.0437702137629401  0.45178247330351695  0.9662747945408299  1.0000
  H   H35       1.0  0.33632330187051457  0.5819720409530831  0.0058025605339793  1.0000
  H   H36       1.0  0.340609174144106  0.5809001742275939  0.0592989567485134  1.0000
  H   H37       1.0  0.0059640302923682  0.9532773161682331  0.7483067512026622  1.0000
  H   H38       1.0  0.0316366546333811  0.8778809223199744  0.783510826478654  1.0000
  H   H39       1.0  0.22829756073483762  0.777446858291242  0.7172808922142764  1.0000
  H   H40       1.0  0.2126040070196424  0.8542808911972488  0.6830450699959343  1.0000
  H   H41       1.0  0.9411514807533976  0.7956907849891622  0.7975628171811379  1.0000
  H   H42       1.0  0.9412680880252964  0.7097870609363286  0.825681851511284  1.0000
  H   H43       1.0  0.3414128178130511  0.656278772177366  0.7805999299057403  1.0000
  H   H44       1.0  0.3477835214753354  0.742614600564828  0.7533106424066887  1.0000
  H   H45       1.0  0.5456813015098162  0.04846050114842631  0.5870417597337649  1.0000
  H   H46       1.0  0.5437667087660573  0.04821453521804389  0.5337257447103738  1.0000
  H   H47       1.0  0.8363282447577092  0.9180270728090251  0.49419792150250424  1.0000
  H   H48       1.0  0.840616263243632  0.9190965072757468  0.4407017437045723  1.0000
  H   H49       1.0  0.0059357394317132  0.5467259977547627  0.2483053278191036  1.0000
  H   H50       1.0  0.0316261333134449  0.6221206101387794  0.2835097222374685  1.0000
  H   H51       1.0  0.2282924379416897  0.722553597341481  0.2172787820446658  1.0000
  H   H52       1.0  0.2125742428413488  0.645721351125708  0.1830422133106424  1.0000
  H   H53       1.0  0.9411519247385842  0.7043067373201596  0.2975605189784716  1.0000
  H   H54       1.0  0.9412578044353237  0.7902119394027591  0.3256787833733767  1.0000
  H   H55       1.0  0.3414132639292333  0.8437214699465302  0.2805987160977779  1.0000
  H   H56       1.0  0.34779469161401266  0.757382947547946  0.253310413904387  1.0000
  H   H57       1.0  0.5456814901617052  0.45153851264547035  0.0870418912971545  1.0000
  H   H58       1.0  0.5437703294554836  0.4517839422232727  0.033726305389969  1.0000
  H   H59       1.0  0.8363271881306816  0.5819741902005545  0.9941990293168175  1.0000
  H   H60       1.0  0.8406106244871124  0.5809062572625551  0.9407030678180631  1.0000
  H   H61       1.0  0.5059419725218106  0.9532752125162817  0.2516970181567402  1.0000
  H   H62       1.0  0.5316377563278039  0.8778859060499971  0.216489209981475  1.0000
  H   H63       1.0  0.7282945459605797  0.777443780756194  0.2827175273089679  1.0000
  H   H64       1.0  0.7125732360327532  0.854271137436186  0.31695687414399737  1.0000
  H   H65       1.0  0.4411534890306256  0.7956941088252735  0.2024368319278267  1.0000
  H   H66       1.0  0.441262556858227  0.7097876885156752  0.1743192118374779  1.0000
  H   H67       1.0  0.8414231365175129  0.6562817101868957  0.21939854924708155  1.0000
  H   H68       1.0  0.847801359579023  0.7426198330419924  0.2466868569138541  1.0000
  H   H69       1.0  0.0456746764002247  0.04846150957374822  0.4129567110289258  1.0000
  H   H70       1.0  0.043769375284583106  0.048219326924957805  0.46627315424532867  1.0000
  H   H71       1.0  0.33633529637978643  0.9180312524164194  0.5058014586464736  1.0000
  H   H72       1.0  0.3406200341168173  0.9191024386605593  0.5592976385552078  1.0000
  H   H73       1.0  0.49404916351676315  0.4532758190814405  0.24830453188454268  1.0000
  H   H74       1.0  0.4683641936126222  0.3778806171287172  0.2835094440790868  1.0000
  H   H75       1.0  0.27170429204819163  0.27744553840091163  0.21727891163111218  1.0000
  H   H76       1.0  0.2874090831924576  0.3542775569126491  0.18304224393354931  1.0000
  H   H77       1.0  0.5588409256029365  0.29569493150928144  0.2975621571479579  1.0000
  H   H78       1.0  0.5587380119821077  0.20978958289828142  0.3256801176993561  1.0000
  H   H79       1.0  0.15859528603717624  0.15627571138301022  0.2805974228134716  1.0000
  H   H80       1.0  0.15221548566474746  0.2426127515415359  0.2533085593186755  1.0000
  H   H81       1.0  0.9543188502467288  0.5484610043544507  0.08704285460374449  1.0000
  H   H82       1.0  0.9562275793908486  0.5482186954001733  0.0337268412176428  1.0000
  H   H83       1.0  0.6636653445739285  0.4180307521966499  0.9941980015336113  1.0000
  H   H84       1.0  0.659368038934879  0.4191058678121708  0.9407016053117943  1.0000
  H   H85       1.0  0.9940566296103199  0.04672425866144892  0.2516940256167004  1.0000
  H   H86       1.0  0.9683737152224479  0.12211984028099472  0.21648973559973678  1.0000
  H   H87       1.0  0.771707092426773  0.22255146763372846  0.2827200993377517  1.0000
  H   H88       1.0  0.7874086495147239  0.14571865306724874  0.3169561362957936  1.0000
  H   H89       1.0  0.05884631234849281  0.20430469815282487  0.20243645647279607  1.0000
  H   H90       1.0  0.058745711836024804  0.29021045276937235  0.1743191400452631  1.0000
  H   H91       1.0  0.6586078421013184  0.34372564543624423  0.2194008469115474  1.0000
  H   H92       1.0  0.652224561721603  0.25738900481777455  0.246690349142952  1.0000
  H   H93       1.0  0.4543153482605007  0.9515390431151047  0.4129566549680845  1.0000
  H   H94       1.0  0.4562253676538504  0.9517833845934975  0.4662733142021693  1.0000
  H   H95       1.0  0.16366840501093802  0.08197206534251221  0.5058004931996436  1.0000
  H   H96       1.0  0.1593735264951377  0.0809026308728207  0.5592964562574848  1.0000
  C   C1        1.0  0.9080962965016042  0.45314949246548514  0.8075850513864892  1.0000
  C   C2        1.0  0.8920559706593991  0.40848128150383906  0.7864603096267685  1.0000
  C   C3        1.0  0.9438214194549063  0.41464291310717266  0.758118673472012  1.0000
  C   C4        1.0  0.9304222322132457  0.37211490952746834  0.7385917904450493  1.0000
  C   C5        1.0  0.8673121630561839  0.321934033289928  0.746979003870905  1.0000
  C   C6        1.0  0.8168169676536864  0.3163421768868631  0.7755413899483301  1.0000
  C   C7        1.0  0.8270285276429306  0.3589867333376234  0.7949259007893374  1.0000
  C   C8        1.0  0.858577775333238  0.27475564370242017  0.7274579241508902  1.0000
  C   C9        1.0  0.9690456412375925  0.2656653457473156  0.7059831890598645  1.0000
  C   C10       1.0  0.9703875326444873  0.21749481973505885  0.6903080568233689  1.0000
  C   C11       1.0  0.8613152847074232  0.17707645373964448  0.6957084643100655  1.0000
  C   C12       1.0  0.7452987873484674  0.1872181764546639  0.7157728026215509  1.0000
  C   C13       1.0  0.7435715886521876  0.23539235780243226  0.731246081764958  1.0000
  C   C14       1.0  0.8727802858539846  0.1221506609481651  0.682011285288084  1.0000
  C   C15       1.0  0.36501938602030043  0.527457654598777  0.924918218920503  1.0000
  C   C16       1.0  0.3643017311333309  0.527702462052119  0.9547411291748418  1.0000
  C   C17       1.0  0.2002325527251756  0.4542306326273789  0.0174095683028881  1.0000
  C   C18       1.0  0.1990987228648393  0.4543458900237026  0.0472777880130977  1.0000
  C   C19       1.0  0.40809786072890125  0.0468531706187179  0.6924142972488808  1.0000
  C   C20       1.0  0.3920572689785545  0.0915189283913662  0.7135398841983046  1.0000
  C   C21       1.0  0.44382106527606174  0.08535694397093613  0.7418817794980513  1.0000
  C   C22       1.0  0.430418125929357  0.1278841215264919  0.7614097247149515  1.0000
  C   C23       1.0  0.36730483640555894  0.17806655723448025  0.7530222424088748  1.0000
  C   C24       1.0  0.316814713500392  0.18365836165166635  0.7244598130151017  1.0000
  C   C25       1.0  0.3270265980641582  0.14101544016593692  0.7050740225103524  1.0000
  C   C26       1.0  0.35857473800263046  0.22524453171895686  0.772543529375177  1.0000
  C   C27       1.0  0.4690374807730749  0.2343325067353206  0.7940179297590078  1.0000
  C   C28       1.0  0.47038243339847696  0.28250425246502436  0.8096937073585622  1.0000
  C   C29       1.0  0.3613092436994378  0.32292250616715995  0.8042912736668058  1.0000
  C   C30       1.0  0.24529903825715846  0.3127831006776347  0.784227694777293  1.0000
  C   C31       1.0  0.24356535316315583  0.2646064808796709  0.7687531257282458  1.0000
  C   C32       1.0  0.3727796004342848  0.37784790465401846  0.8179882477897564  1.0000
  C   C33       1.0  0.8650215099993799  0.9725396953154686  0.5750825083976139  1.0000
  C   C34       1.0  0.864298559151557  0.9722948871216418  0.5452591680510324  1.0000
  C   C35       1.0  0.7002341565741829  0.04576711204302342  0.48259024029972153  1.0000
  C   C36       1.0  0.699101890743229  0.045650229033299204  0.45272159014438523  1.0000
  C   C37       1.0  0.5919077338719559  0.5468483001844435  0.8075846324612073  1.0000
  C   C38       1.0  0.6079475492810786  0.5915170273460576  0.7864589801419795  1.0000
  C   C39       1.0  0.556183702356563  0.5853547312144161  0.7581173085975194  1.0000
  C   C40       1.0  0.5695847044693351  0.6278856793381706  0.7385903748252717  1.0000
  C   C41       1.0  0.632700692986063  0.6780665118677691  0.7469788573786287  1.0000
  C   C42       1.0  0.683185145135937  0.683655376635585  0.7755414933257967  1.0000
  C   C43       1.0  0.6729774835381265  0.641012343618641  0.7949256283421279  1.0000
  C   C44       1.0  0.641424319004635  0.725246221513004  0.7274583603130296  1.0000
  C   C45       1.0  0.5309605075721108  0.7343346008180518  0.7059843761027195  1.0000
  C   C46       1.0  0.529611377386928  0.7825060207385732  0.6903087427405411  1.0000
  C   C47       1.0  0.6386883291857188  0.8229255769256126  0.6957106878074698  1.0000
  C   C48       1.0  0.7546984513160382  0.812785780209893  0.7157740667988648  1.0000
  C   C49       1.0  0.7564328839068751  0.7646078632207107  0.7312482768802369  1.0000
  C   C50       1.0  0.6272127070453236  0.8778506288653393  0.6820140627747903  1.0000
  C   C51       1.0  0.1349727187942946  0.4725398240315927  0.9249177309560396  1.0000
  C   C52       1.0  0.1356933809576546  0.4722956733886435  0.9547410716594272  1.0000
  C   C53       1.0  0.2997570612688564  0.5457683263400385  0.0174095440110449  1.0000
  C   C54       1.0  0.3008881828083716  0.5456537255155993  0.0472779795981211  1.0000
  C   C55       1.0  0.09190120304405269  0.9531536418747211  0.6924182226628943  1.0000
  C   C56       1.0  0.10795488190932899  0.9084833067926046  0.7135415266407036  1.0000
  C   C57       1.0  0.0561814803964253  0.9146459557327448  0.7418846569339834  1.0000
  C   C58       1.0  0.0695791748431702  0.8721133969605505  0.7614100990422942  1.0000
  C   C59       1.0  0.13268883170864143  0.8219334416302715  0.7530231737912841  1.0000
  C   C60       1.0  0.18318741118121548  0.8163442227368379  0.724459936948314  1.0000
  C   C61       1.0  0.17298191829215168  0.8589904941368051  0.7050775110708826  1.0000
  C   C62       1.0  0.14141825844046707  0.7747549593061579  0.7725434636050963  1.0000
  C   C63       1.0  0.0309594645553872  0.7656644357098444  0.7940186414779191  1.0000
  C   C64       1.0  0.0296183207166933  0.7174946388518038  0.8096944884221103  1.0000
  C   C65       1.0  0.1386913798914406  0.6770768194128324  0.8042928516637744  1.0000
  C   C66       1.0  0.2547022438820364  0.6872171416845988  0.7842284985087176  1.0000
  C   C67       1.0  0.2564275517080077  0.7353926237828646  0.7687542899131401  1.0000
  C   C68       1.0  0.127229357479294  0.6221501312138004  0.8179907552817625  1.0000
  C   C69       1.0  0.6349769025661801  0.02745849673006971  0.5750826718006863  1.0000
  C   C70       1.0  0.6356888427520602  0.027700211439686505  0.5452589022392687  1.0000
  C   C71       1.0  0.7997631644932213  0.9542291253271031  0.4825909066578973  1.0000
  C   C72       1.0  0.8008947086118923  0.9543425089809221  0.45272225730509763  1.0000
  C   C73       1.0  0.09189349327478169  0.5468468028885313  0.1924172285835795  1.0000
  C   C74       1.0  0.1079383924662949  0.5915182627518052  0.2135406819199517  1.0000
  C   C75       1.0  0.056167226986751514  0.5853554128073172  0.24188317702177642  1.0000
  C   C76       1.0  0.0695744176024746  0.627887477512715  0.26140941583773264  1.0000
  C   C77       1.0  0.1326924901052422  0.6780655109721323  0.2530215582059227  1.0000
  C   C78       1.0  0.1831853988158514  0.6836553368157468  0.2244585279175411  1.0000
  C   C79       1.0  0.1729635488071821  0.6410115925797513  0.20507552023160258  1.0000
  C   C80       1.0  0.1414223044738847  0.7252451188949326  0.2725419937116271  1.0000
  C   C81       1.0  0.030957868580763704  0.7343341985152705  0.294016943542168  1.0000
  C   C82       1.0  0.0296159771694278  0.7825055367531916  0.3096914315666055  1.0000
  C   C83       1.0  0.1386870817515558  0.8229222783022935  0.304290165131988  1.0000
  C   C84       1.0  0.2547047224663642  0.8127817739210317  0.2842269005058711  1.0000
  C   C85       1.0  0.25643420782228077  0.7646055620161719  0.2687529771534685  1.0000
  C   C86       1.0  0.1272197939203465  0.8778496955439082  0.3179860557288734  1.0000
  C   C87       1.0  0.6349818371269222  0.4725398590998823  0.0750829873678072  1.0000
  C   C88       1.0  0.6356914886415054  0.47229708220572775  0.0452587886856151  1.0000
  C   C89       1.0  0.7997629537552625  0.5457717544116605  0.9825918527165527  1.0000
  C   C90       1.0  0.8008899235957329  0.545658933684301  0.952723418264469  1.0000
  C   C91       1.0  0.5918976457163225  0.9531475919785137  0.30758476166305115  1.0000
  C   C92       1.0  0.6079416674745631  0.9084798036471257  0.2864593894537393  1.0000
  C   C93       1.0  0.556174441174349  0.91464381862518  0.258117708888193  1.0000
  C   C94       1.0  0.5695830971960021  0.8721150166262891  0.23858911946346947  1.0000
  C   C95       1.0  0.6326975300684339  0.8219358298153665  0.2469763870305073  1.0000
  C   C96       1.0  0.6831865096314544  0.8163436192861582  0.2755386016869323  1.0000
  C   C97       1.0  0.6729677650244669  0.8589832918730026  0.2949241774539644  1.0000
  C   C98       1.0  0.6414253417954185  0.7747590736668004  0.22745467058802396  1.0000
  C   C99       1.0  0.5309671723642566  0.7656662253072353  0.2059809144211826  1.0000
  C   C100      1.0  0.5296165030715089  0.7174973223562805  0.1903059957657121  1.0000
  C   C101      1.0  0.6386942661118767  0.6770778503216448  0.19570799998601265  1.0000
  C   C102      1.0  0.7547124749211847  0.6872221291630825  0.21577007571531223  1.0000
  C   C103      1.0  0.7564450166609902  0.7353979367392754  0.2312435710786929  1.0000
  C   C104      1.0  0.6272227660341443  0.6221512334982295  0.1820110258634671  1.0000
  C   C105      1.0  0.13497856979329007  0.0274594428355996  0.4249167652546291  1.0000
  C   C106      1.0  0.13569237393121367  0.02770384491384451  0.45473967612326754  1.0000
  C   C107      1.0  0.29976363654086663  0.9542328383319685  0.5174086038766319  1.0000
  C   C108      1.0  0.3008936156858725  0.9543485030056617  0.5472768245575708  1.0000
  C   C109      1.0  0.40810606600103944  0.4531520563051858  0.19241635909326502  1.0000
  C   C110      1.0  0.3920571038614469  0.4084817046953759  0.21354029351251572  1.0000
  C   C111      1.0  0.44382438079978925  0.41464278249168984  0.24188239453365407  1.0000
  C   C112      1.0  0.43041994867152056  0.372112646591269  0.2614088988295293  1.0000
  C   C113      1.0  0.36730624683907814  0.3219326262857153  0.2530208457508607  1.0000
  C   C114      1.0  0.3168172213393489  0.3163441676275341  0.22445820980143338  1.0000
  C   C115      1.0  0.3270283129533951  0.3589872006456859  0.2050742895237292  1.0000
  C   C116      1.0  0.3585780474784315  0.2747533227484382  0.2725419870256616  1.0000
  C   C117      1.0  0.4690395722598454  0.2656677862233395  0.2940170449186894  1.0000
  C   C118      1.0  0.4703852724289773  0.2174951479645202  0.30969289301744135  1.0000
  C   C119      1.0  0.36131518065302265  0.17707640400667665  0.3042903037413964  1.0000
  C   C120      1.0  0.24530277183507823  0.18721457627437843  0.2842264952759024  1.0000
  C   C121      1.0  0.24357062591315065  0.23539208715386206  0.2687518557214972  1.0000
  C   C122      1.0  0.3727896594427449  0.1221501337320703  0.3179862845630126  1.0000
  C   C123      1.0  0.8650205009866596  0.5274593141125835  0.07508283111618398  1.0000
  C   C124      1.0  0.864305555516033  0.5277042769824618  0.04525949041465079  1.0000
  C   C125      1.0  0.7002361585271117  0.4542344668120535  0.9825910180585068  1.0000
  C   C126      1.0  0.6990981769619751  0.45434947374494783  0.9527225824681904  1.0000
  C   C127      1.0  0.908105736777756  0.04684468405477561  0.3075814804671921  1.0000
  C   C128      1.0  0.8920543445924948  0.09151542524950432  0.2864583912272209  1.0000
  C   C129      1.0  0.9438254594405819  0.08535480686757782  0.2581154756686246  1.0000
  C   C130      1.0  0.9304186182881934  0.1278873656356225  0.2385898188192357  1.0000
  C   C131      1.0  0.8673112481005204  0.178065290404895  0.24697760302133528  1.0000
  C   C132      1.0  0.8168149552977725  0.1836536970760818  0.2755406251287269  1.0000
  C   C133      1.0  0.8270250215442944  0.14100823790188602  0.2949232657446785  1.0000
  C   C134      1.0  0.8585841080561281  0.22524661551410932  0.22745731320642185  1.0000
  C   C135      1.0  0.969046331929647  0.23433226576943172  0.2059817058643247  1.0000
  C   C136      1.0  0.9703931924679379  0.2825032809652654  0.1903062883960089  1.0000
  C   C137      1.0  0.8613235633203615  0.3229231309648314  0.1957083546286427  1.0000
  C   C138      1.0  0.7453126993388536  0.31278565147755444  0.21577249304446158  1.0000
  C   C139      1.0  0.7435816748168023  0.264608544928386  0.2312467016387743  1.0000
  C   C140      1.0  0.8727958757771362  0.3778481947189647  0.1820113099648708  1.0000
  C   C141      1.0  0.3650140305354909  0.9725410475260365  0.42491746079594606  1.0000
  C   C142      1.0  0.36430094699023396  0.9722985205957712  0.454739727197385  1.0000
  C   C143      1.0  0.2002323419468155  0.045771637271244  0.5174077227797298  1.0000
  C   C144      1.0  0.19909851114144322  0.0456562230568593  0.5472761573958778  1.0000
  C   C145      1.0  0.24999891570330135  0.4999988615437375  0.8780088582961908  1.0000
  C   C146      1.0  0.24999586936961293  0.49999918490417633  0.9097671950086266  1.0000
  C   C147      1.0  0.24999774259731566  0.5000002458228822  0.9701822049783572  1.0000
  C   C148      1.0  0.24999747763600066  0.5000003321932951  0.0018722493503134  1.0000
  C   C149      1.0  0.2499982102008858  0.49999895586037024  0.0625095122761437  1.0000
  C   C150      1.0  0.24999288211445508  0.4999996842702076  0.0946752053692208  1.0000
  C   C151      1.0  0.74999943396233  1.2020896136000002e-06  0.621992502084403  1.0000
  C   C152      1.0  0.7499974417065121  0.9999996710326544  0.5902334336323563  1.0000
  C   C153      1.0  0.7499944251222103  0.9999965795556492  0.5298175647150103  1.0000
  C   C154      1.0  0.7499963289505942  0.9999974743521067  0.4981277291534454  1.0000
  C   C155      1.0  0.750000169730562  0.9999972262394297  0.4374904662307628  1.0000
  C   C156      1.0  0.7499940644391075  0.9999960917111537  0.4053249878702374  1.0000
  C   C157      1.0  0.7500000207731645  0.4999998704897166  0.1219923479902505  1.0000
  C   C158      1.0  0.7500007804285005  0.4999995471286597  0.0902337965396711  1.0000
  C   C159      1.0  0.7499989072106246  0.5000021412189853  0.0298183570929638  1.0000
  C   C160      1.0  0.7499968854720861  0.5000012426278886  0.9981265948233826  1.0000
  C   C161      1.0  0.749995009602678  0.5000050556271277  0.9374912645296688  1.0000
  C   C162      1.0  0.7499911909862504  0.5000031088754967  0.9053260009078699  1.0000
  C   C163      1.0  0.24999492914778898  0.9999983421693771  0.37800720103939506  1.0000
  C   C164      1.0  0.24999577808556236  2.7933382540000025e-07  0.40976777265073133  1.0000
  C   C165      1.0  0.2499976512925031  1.3402570076e-06  0.4701810647232278  1.0000
  C   C166      1.0  0.24999689081571572  1.2576828823000002e-06  0.5018717592333033  1.0000
  C   C167      1.0  0.2499953367096595  2.3180218349000003e-06  0.5625085926820645  1.0000
  C   C168      1.0  0.24998886528201336  2.2342071091000003e-06  0.5946742857752411  1.0000
  O   O1        1.0  0.9908774881832796  0.49465500805079193  0.80167506055966  1.0000
  O   O2        1.0  0.8387268354088419  0.4496020053940839  0.8318138173589916  1.0000
  O   O3        1.0  0.9820053945611421  0.11463728559000691  0.6642283096686796  1.0000
  O   O4        1.0  0.7732618230152611  0.08743126287542681  0.689924332146333  1.0000
  O   O5        1.0  0.12682005407368993  0.4887791779155749  0.8642991347840265  1.0000
  O   O6        1.0  0.1853634067012067  0.45984367123363523  0.1070855113956029  1.0000
  O   O7        1.0  0.4908731375073643  0.0053465219214246  0.6983252180385336  1.0000
  O   O8        1.0  0.3387335600448936  0.0504013984969589  0.6681850422934232  1.0000
  O   O9        1.0  0.4819983405395122  0.38536261079839557  0.8357719613184003  1.0000
  O   O10       1.0  0.2732646616537906  0.4125688247206157  0.8100729681859703  1.0000
  O   O11       1.0  0.6268152790625336  0.011220352785926502  0.6357004020253924  1.0000
  O   O12       1.0  0.6853776610360142  0.040153245910424615  0.3929142844571771  1.0000
  O   O13       1.0  0.5091275427207052  0.5053440337367548  0.8016735576745616  1.0000
  O   O14       1.0  0.6612766370345895  0.5503952548851319  0.8318121643295912  1.0000
  O   O15       1.0  0.5179963153420815  0.8853645030158788  0.6642292645643976  1.0000
  O   O16       1.0  0.7267245010884834  0.9125724223647542  0.6899290768261749  1.0000
  O   O17       1.0  0.3731843061037594  0.5112178043944411  0.8642996535139886  1.0000
  O   O18       1.0  0.31461922737990733  0.5401552265191256  0.10708593754552707  1.0000
  O   O19       1.0  0.009113492344866398  0.9946549803074946  0.6983287969590961  1.0000
  O   O20       1.0  0.16127292167899296  0.9496087891585745  0.6681896766182547  1.0000
  O   O21       1.0  0.018015620428243995  0.6146345201709948  0.8357752450634094  1.0000
  O   O22       1.0  0.22674410501085163  0.5874320951812493  0.8100747529117953  1.0000
  O   O23       1.0  0.8731777381800541  0.9887807722548914  0.6357021544897563  1.0000
  O   O24       1.0  0.8146117765214598  0.9598381793250682  0.3929136669218138  1.0000
  O   O25       1.0  0.0091157316260251  0.5053453484243208  0.19832743414606568  1.0000
  O   O26       1.0  0.1612698143974214  0.5503942899628952  0.1681886773511749  1.0000
  O   O27       1.0  0.0180015452493549  0.8853614464542832  0.3357703197753352  1.0000
  O   O28       1.0  0.22672682335839772  0.9125707180648776  0.3100706467558396  1.0000
  O   O29       1.0  0.8731823124197576  0.511220366343622  0.1357020715032888  1.0000
  O   O30       1.0  0.8146115196918231  0.5401611524701053  0.8929146211903073  1.0000
  O   O31       1.0  0.509123512281853  0.9946538345627258  0.3016744850856483  1.0000
  O   O32       1.0  0.6612619463868016  0.9495973335414476  0.3318135871456889  1.0000
  O   O33       1.0  0.518009742625182  0.6146369334676651  0.16422774181128116  1.0000
  O   O34       1.0  0.7267377048248349  0.5874315317664839  0.1899267349406699  1.0000
  O   O35       1.0  0.3731767973797986  0.9887836587060195  0.3642984421455394  1.0000
  O   O36       1.0  0.31461555873622166  0.9598462983479836  0.6070854186661307  1.0000
  O   O37       1.0  0.490886257152475  0.49465510441578436  0.19832786335511088  1.0000
  O   O38       1.0  0.3387394495019365  0.4496059138330111  0.1681875388023428  1.0000
  O   O39       1.0  0.48201862784359417  0.11463666570447373  0.3357693648812727  1.0000
  O   O40       1.0  0.2732790087580454  0.08742955856585162  0.3100725589341522  1.0000
  O   O41       1.0  0.6268180603794916  0.488780521529911  0.1357011232999099  1.0000
  O   O42       1.0  0.685377422430065  0.4598451299605557  0.8929154834758891  1.0000
  O   O43       1.0  0.9908888741176369  0.005343345621334101  0.3016702619575611  1.0000
  O   O44       1.0  0.8387363048308032  0.050388724544767206  0.3318113149363313  1.0000
  O   O45       1.0  0.9820336229635201  0.38536339965318694  0.16423025598828636  1.0000
  O   O46       1.0  0.7732765548469941  0.4125686674334048  0.18992258811369567  1.0000
  O   O47       1.0  0.12681205157575448  0.011214304766511403  0.36429883705827854  1.0000
  O   O48       1.0  0.185363149816709  0.040157709918816  0.6070849625105481  1.0000
