data_image0
_chemical_formula_structural       H22Pb2C36N4O8
_chemical_formula_sum              "H22 Pb2 C36 N4 O8"
_cell_length_a       8.092835563152638
_cell_length_b       10.4155720385569
_cell_length_c       10.365992654021282
_cell_angle_alpha    109.0460347767357
_cell_angle_beta     99.65577873348848
_cell_angle_gamma    103.03020502457284

_space_group_name_H-M_alt    "P 1"
_space_group_IT_number       1

loop_
  _space_group_symop_operation_xyz
  'x, y, z'

loop_
  _atom_site_type_symbol
  _atom_site_label
  _atom_site_symmetry_multiplicity
  _atom_site_fract_x
  _atom_site_fract_y
  _atom_site_fract_z
  _atom_site_occupancy
  H   H1        1.0  0.9706846335265527  0.31704040084439816  0.58518409905885  1.0000
  H   H2        1.0  0.029340551219391442  0.6828068025598457  0.4148316818331495  1.0000
  H   H3        1.0  0.8199845402571172  0.4188376326256177  0.7645205388635646  1.0000
  H   H4        1.0  0.18014353591560459  0.5812333091041354  0.23547674008903396  1.0000
  H   H5        1.0  0.2811155581084535  0.4777517217596668  0.08581098459828954  1.0000
  H   H6        1.0  0.7189644208064863  0.5223070814726043  0.9142037496308009  1.0000
  H   H7        1.0  0.4077853550018419  0.37124029732237324  0.8924215805697601  1.0000
  H   H8        1.0  0.5923165473536116  0.6287980304035018  0.10761736398730194  1.0000
  H   H9        1.0  0.0812271586301421  0.3947409798067483  0.3633479883645877  1.0000
  H   H10       1.0  0.9187083938384009  0.6052869137258698  0.6366504816856351  1.0000
  H   H11       1.0  0.8640815141527938  0.2906000738993201  0.13032244158637243  1.0000
  H   H12       1.0  0.13589013044126128  0.7094226917546537  0.8696618720153427  1.0000
  H   H13       1.0  0.8781334758549235  0.8751178736243332  0.12339971236544059  1.0000
  H   H14       1.0  0.12179382536829311  0.12490118781838792  0.8766371781313609  1.0000
  H   H15       1.0  0.08919010854071271  0.9976322160471868  0.3593210451225134  1.0000
  H   H16       1.0  0.9108858523769996  0.0023972115440713962  0.6406130488179616  1.0000
  H   H17       1.0  0.7065283345646095  0.2006742516578157  0.936620543685315  1.0000
  H   H18       1.0  0.2935048319884217  0.7993030007993839  0.0633696743677561  1.0000
  H   H19       1.0  0.3487637326643878  0.8245071266168084  0.6067725511427114  1.0000
  H   H20       1.0  0.6512292369603756  0.17546251177931546  0.39321935391180324  1.0000
  H   H21       1.0  0.6903774681819996  0.784744140349453  0.945528493771832  1.0000
  H   H22       1.0  0.3094109647114394  0.21524806558118573  0.054590692975089894  1.0000
  Pb  Pb1       1.0  0.3940856583012433  0.31517917649352983  0.5674126954515091  1.0000
  Pb  Pb2       1.0  0.6059314473933172  0.6847208564104363  0.432498791942571  1.0000
  C   C1        1.0  0.03447624268947895  0.3548575435417903  0.6977891675494093  1.0000
  C   C2        1.0  0.9655930901105165  0.6450891402468175  0.30222579978330805  1.0000
  C   C3        1.0  0.9518998899378774  0.4139490425604252  0.7994628265469218  1.0000
  C   C4        1.0  0.04821739417246826  0.5861046508354165  0.20054371005057453  1.0000
  C   C5        1.0  0.039225977678832236  0.4648293659296742  0.943914696490012  1.0000
  C   C6        1.0  0.9608991270591289  0.5352593824091657  0.05608997093298031  1.0000
  C   C7        1.0  0.2052422927098831  0.4459821197287894  0.9775066120192408  1.0000
  C   C8        1.0  0.7948646483880568  0.5540859924328816  0.022504232907493916  1.0000
  C   C9        1.0  0.2782449157677078  0.3855657953541893  0.8696042080274397  1.0000
  C   C10       1.0  0.7218520439035103  0.6144608474827751  0.13041381895227744  1.0000
  C   C11       1.0  0.031346669467836825  0.27953083981642385  0.30602289503962515  1.0000
  C   C12       1.0  0.9686190938923149  0.7204970013138238  0.6939642210026664  1.0000
  C   C13       1.0  0.9110207801311604  0.21987876812303858  0.17433498109704712  1.0000
  C   C14       1.0  0.08893254112629023  0.7801381161929372  0.8256564869640999  1.0000
  C   C15       1.0  0.8491657604790321  0.0710839276095427  0.10249291981490674  1.0000
  C   C16       1.0  0.15075608116804062  0.9289255593822077  0.8975178894619162  1.0000
  C   C17       1.0  0.9172491117232655  0.9907540058839365  0.17118326530305705  1.0000
  C   C18       1.0  0.08269333769671762  0.0092645840612278  0.8288246541921823  1.0000
  C   C19       1.0  0.03589626723717741  0.058270687891450706  0.30383197412592017  1.0000
  C   C20       1.0  0.9641151115920865  0.9417618239674614  0.696139715030711  1.0000
  C   C21       1.0  0.7164263078458362  0.003241590080001803  0.9640236324125554  1.0000
  C   C22       1.0  0.2834744770515485  0.9967387034021018  0.036001721272867895  1.0000
  C   C23       1.0  0.6552013863327775  0.08500776156006401  0.8939358463386141  1.0000
  C   C24       1.0  0.34474743251718826  0.9149730685524491  0.10607208286014475  1.0000
  C   C25       1.0  0.5250530050858091  0.021505565403522612  0.7657902316166486  1.0000
  C   C26       1.0  0.4748794629806453  0.9784831317604484  0.23423157524292293  1.0000
  C   C27       1.0  0.45323689775805337  0.8734618130143945  0.7048651692141946  1.0000
  C   C28       1.0  0.5467099924009277  0.12652102990547584  0.2951528081287052  1.0000
  C   C29       1.0  0.5162758910517128  0.7895158416271856  0.7703582522791095  1.0000
  C   C30       1.0  0.483633728521241  0.21045313907774954  0.2296655404070265  1.0000
  C   C31       1.0  0.6460094449869516  0.8546015233203832  0.8987624424333589  1.0000
  C   C32       1.0  0.353844633631816  0.14537505518960364  0.101296834412139  1.0000
  C   C33       1.0  0.46422599480830234  0.11373017495950684  0.6948862381839547  1.0000
  C   C34       1.0  0.5357605844933746  0.8862739726205364  0.30513063152604775  1.0000
  C   C35       1.0  0.4523251218198539  0.6295592012018434  0.7010642623845414  1.0000
  C   C36       1.0  0.5476634429056944  0.37039989251616134  0.2988869143762544  1.0000
  N   N1        1.0  0.09246739253919861  0.20066305889010755  0.3713309279059018  1.0000
  N   N2        1.0  0.907539497338938  0.7993672088618881  0.6286384487285376  1.0000
  N   N3        1.0  0.19633449829891705  0.34254845979128135  0.7317509718184996  1.0000
  N   N4        1.0  0.8037387794608577  0.6574025676892178  0.26826403129427945  1.0000
  O   O1        1.0  0.33689634870017926  0.058493246609984305  0.5848010440356932  1.0000
  O   O2        1.0  0.6630924818052364  0.9415289280717972  0.41520759510550687  1.0000
  O   O3        1.0  0.5475604237003466  0.2479663523159417  0.7524345664784633  1.0000
  O   O4        1.0  0.4524668526588301  0.7520275485433886  0.24756612162671127  1.0000
  O   O5        1.0  0.3330450692753999  0.5704439302076239  0.5846095559169769  1.0000
  O   O6        1.0  0.6669932275819832  0.4295358232098395  0.4153146513463924  1.0000
  O   O7        1.0  0.5279492657873704  0.5606254472099297  0.7611682936798091  1.0000
  O   O8        1.0  0.47206645970396727  0.43931988193882193  0.2387444125522508  1.0000
