data_image0
_chemical_formula_structural       K12H100Pt4C176S12N16O36
_chemical_formula_sum              "K12 H100 Pt4 C176 S12 N16 O36"
_cell_length_a       7.799552005889916
_cell_length_b       22.8796327253193
_cell_length_c       33.181840970320586
_cell_angle_alpha    90.000730404387
_cell_angle_beta     90.0006285355126
_cell_angle_gamma    96.033124933662

_space_group_name_H-M_alt    "P 1"
_space_group_IT_number       1

loop_
  _space_group_symop_operation_xyz
  'x, y, z'

loop_
  _atom_site_type_symbol
  _atom_site_label
  _atom_site_symmetry_multiplicity
  _atom_site_fract_x
  _atom_site_fract_y
  _atom_site_fract_z
  _atom_site_occupancy
  K   K1        1.0  0.8074648237091894  0.7938545717250207  0.7554861078755193  1.0000
  K   K2        1.0  0.6926180289901969  0.20616382088584825  0.25552438242658576  1.0000
  K   K3        1.0  0.19258811647011248  0.20615785300851996  0.24450385998238738  1.0000
  K   K4        1.0  0.3074517207945817  0.7938331829718874  0.744489092218309  1.0000
  K   K5        1.0  0.5510111081542277  0.7838631040959567  0.6229647585129499  1.0000
  K   K6        1.0  0.9488178013543946  0.2161345504006391  0.1229781599803701  1.0000
  K   K7        1.0  0.44890843457491064  0.2161293290291438  0.3770348529155782  1.0000
  K   K8        1.0  0.05105959241046776  0.7838663126552702  0.8770057802091312  1.0000
  K   K9        1.0  0.5371787630563247  0.6824692211864941  0.8318050290874266  1.0000
  K   K10       1.0  0.962872719124633  0.3175283654198964  0.33180669875206786  1.0000
  K   K11       1.0  0.46280784332635977  0.3175164965499703  0.16818795226497227  1.0000
  K   K12       1.0  0.037159296721575995  0.6824748618172334  0.6681950224552862  1.0000
  H   H1        1.0  0.8047771916741128  0.09959090314432469  0.7831611478353933  1.0000
  H   H2        1.0  0.6952311155743588  0.9004110391193052  0.28317327690890437  1.0000
  H   H3        1.0  0.19524101716505982  0.9004053125565787  0.21683695688765425  1.0000
  H   H4        1.0  0.3047613147069796  0.0996006137234531  0.7168347730475801  1.0000
  H   H5        1.0  0.8950138505030626  0.17968931421663104  0.8407699314162257  1.0000
  H   H6        1.0  0.6049653477591053  0.8203213375211289  0.3407799210556916  1.0000
  H   H7        1.0  0.10497787307842532  0.8203122255096245  0.15922787192666016  1.0000
  H   H8        1.0  0.39503733795419305  0.1796823815652218  0.6592245124432167  1.0000
  H   H9        1.0  0.3109757419231587  0.3820568041485684  0.8415195789319937  1.0000
  H   H10       1.0  0.189012459744191  0.6179389527828644  0.34151866462283204  1.0000
  H   H11       1.0  0.6890151288775925  0.617942098612218  0.15848063535547394  1.0000
  H   H12       1.0  0.8109784131632054  0.3820559922055508  0.6584803441686445  1.0000
  H   H13       1.0  0.404694756409569  0.4624411719162038  0.7846292961679209  1.0000
  H   H14       1.0  0.09532586175554768  0.5375559986585755  0.2846286420100767  1.0000
  H   H15       1.0  0.5953196082507406  0.5375550506248459  0.21537031539852333  1.0000
  H   H16       1.0  0.9046776787085167  0.4624463995685487  0.7153670517640973  1.0000
  H   H17       1.0  0.2625017348639034  0.479266639687431  0.627174693531195  1.0000
  H   H18       1.0  0.2375197371605964  0.5207321358460745  0.12717184447788543  1.0000
  H   H19       1.0  0.7375079285350881  0.5207348682391809  0.3728279317489934  1.0000
  H   H20       1.0  0.762495193948382  0.4792698024576651  0.8728286712233381  1.0000
  H   H21       1.0  0.16884197292145595  0.3997833623032391  0.5697446204778842  1.0000
  H   H22       1.0  0.33113856027803484  0.6002200243019971  0.06974391418452798  1.0000
  H   H23       1.0  0.8311534507200026  0.6002216889061316  0.43025770342998715  1.0000
  H   H24       1.0  0.668868395988426  0.3997850064207851  0.9302572042593765  1.0000
  H   H25       1.0  0.03421731364966969  0.16518449476014038  0.5692015559665862  1.0000
  H   H26       1.0  0.4658023457867985  0.8348170523021848  0.06920717126016027  1.0000
  H   H27       1.0  0.9657798177081393  0.8348218726262715  0.4307965487740616  1.0000
  H   H28       1.0  0.534222550200731  0.16518794658401958  0.9307951526851779  1.0000
  H   H29       1.0  0.9426881723381728  0.08546900589563218  0.6266298628979639  1.0000
  H   H30       1.0  0.5573154880228515  0.9145292929968889  0.12663663983342127  1.0000
  H   H31       1.0  0.05730753757909202  0.9145329664949811  0.3733670363429552  1.0000
  H   H32       1.0  0.4426857741593367  0.0854739888721809  0.873368396401055  1.0000
  H   H33       1.0  0.19778889022387605  0.19601736409032358  0.8602321664069235  1.0000
  H   H34       1.0  0.30219760268237644  0.8039822979410828  0.36024131172866447  1.0000
  H   H35       1.0  0.8022210617183207  0.8039771073067143  0.1397698561034346  1.0000
  H   H36       1.0  0.6977864305633192  0.19602321328708427  0.6397655327114931  1.0000
  H   H37       1.0  0.19207461335365397  0.19453795672582427  0.9346044576948667  1.0000
  H   H38       1.0  0.30791541768969927  0.8054658635282406  0.4346115210562472  1.0000
  H   H39       1.0  0.8079425984974835  0.8054591402990139  0.06539877031492837  1.0000
  H   H40       1.0  0.692088975884623  0.19453917179054503  0.5653941179292443  1.0000
  H   H41       1.0  0.09675772505121216  0.27940091197013556  0.972688791683822  1.0000
  H   H42       1.0  0.40324971206362653  0.7206076165984922  0.47269776493805427  1.0000
  H   H43       1.0  0.9032526511023635  0.7205988356543142  0.027310518523336193  1.0000
  H   H44       1.0  0.5967768917608043  0.2793986985109099  0.5273048603849019  1.0000
  H   H45       1.0  0.006399947388423763  0.36539455925305475  0.9349931342249531  1.0000
  H   H46       1.0  0.4935932358307228  0.6346110224093522  0.43500278920778596  1.0000
  H   H47       1.0  0.9935937725570912  0.6346012601606714  0.06500376498640748  1.0000
  H   H48       1.0  0.5064266744611104  0.3653983828072427  0.564996822423609  1.0000
  H   H49       1.0  0.007886623872600746  0.36574295675426766  0.8605524216535796  1.0000
  H   H50       1.0  0.49208636137670686  0.6342545370867823  0.360562672452957  1.0000
  H   H51       1.0  0.9921099452578802  0.6342497793277955  0.13944266932995927  1.0000
  H   H52       1.0  0.5079066393656789  0.36575491589698567  0.6394363364049196  1.0000
  H   H53       1.0  0.16159685513397898  0.5128628183461856  0.7503044081872473  1.0000
  H   H54       1.0  0.3384317549015066  0.487136272223374  0.2503018237304033  1.0000
  H   H55       1.0  0.8383952928196339  0.48714399766902977  0.24969671024555842  1.0000
  H   H56       1.0  0.6615715015541356  0.5128652471116979  0.7497041166078586  1.0000
  H   H57       1.0  0.27061884277950554  0.6187556167216071  0.7513905459081867  1.0000
  H   H58       1.0  0.2293850500975338  0.38124617859354964  0.2513951913422899  1.0000
  H   H59       1.0  0.7293825613265242  0.3812481045627152  0.2486063533476893  1.0000
  H   H60       1.0  0.770600264618807  0.6187593303843143  0.7486140640567456  1.0000
  H   H61       1.0  0.6493631130065937  0.5883657043625231  0.6614332601129076  1.0000
  H   H62       1.0  0.8506344351041553  0.41162452444950753  0.16143637285838955  1.0000
  H   H63       1.0  0.3506486931829118  0.4116226072328716  0.33856876237279465  1.0000
  H   H64       1.0  0.14935629152143556  0.5883778966129967  0.8385677592498693  1.0000
  H   H65       1.0  0.549320766341566  0.48105594518937506  0.6629548792922434  1.0000
  H   H66       1.0  0.95068213061262  0.5189347450680089  0.16295497077817334  1.0000
  H   H67       1.0  0.4506698246158437  0.5189341631161496  0.3370513623493919  1.0000
  H   H68       1.0  0.04933977829455927  0.48106498211908627  0.8370479558795195  1.0000
  H   H69       1.0  0.907156185557412  0.3442845887753805  0.5520347306695469  1.0000
  H   H70       1.0  0.5928471959650069  0.6557156979708265  0.052036312884403885  1.0000
  H   H71       1.0  0.09285319570673777  0.6557120823975566  0.44796819595870824  1.0000
  H   H72       1.0  0.4071637446270345  0.3442937232256043  0.9479687233893939  1.0000
  H   H73       1.0  0.8854315010377222  0.3390686898259857  0.4773814983794437  1.0000
  H   H74       1.0  0.6145514319798127  0.6609298067549502  0.9773825499792461  1.0000
  H   H75       1.0  0.11455809055976826  0.6609262574742798  0.5226211268462748  1.0000
  H   H76       1.0  0.38544684309791694  0.3390682034057803  0.022622184858619193  1.0000
  H   H77       1.0  0.2587559041587966  0.2135871171544322  0.47560387331319004  1.0000
  H   H78       1.0  0.24123959136017703  0.7864118178616123  0.9756078573331376  1.0000
  H   H79       1.0  0.7412604505214804  0.7864152583819716  0.5243975465007438  1.0000
  H   H80       1.0  0.7587386117553125  0.21357963161121765  0.024390850057130792  1.0000
  H   H81       1.0  0.28647862345754055  0.22105532388655288  0.5501790684198793  1.0000
  H   H82       1.0  0.2135501240422357  0.7789572502284656  0.05018324663861049  1.0000
  H   H83       1.0  0.7135533902418275  0.778951861107558  0.4498223514351877  1.0000
  H   H84       1.0  0.7864667970304496  0.22105084104907743  0.9498169677225119  1.0000
  H   H85       1.0  0.04594942287211269  0.04248818004857919  0.7412653252439579  1.0000
  H   H86       1.0  0.454054789421491  0.9575041722550848  0.2412774121684719  1.0000
  H   H87       1.0  0.9540561116644852  0.9575124555676026  0.25872373839260376  1.0000
  H   H88       1.0  0.5459506030948234  0.042496023908917394  0.7587161720108212  1.0000
  H   H89       1.0  0.9268928333768545  0.9381919129017148  0.7353798120597402  1.0000
  H   H90       1.0  0.573117342617927  0.0618028891912061  0.2353984317022294  1.0000
  H   H91       1.0  0.0731239495030778  0.06180782323118448  0.2646080461086341  1.0000
  H   H92       1.0  0.42686569509537253  0.9381995453392447  0.7645879195865459  1.0000
  H   H93       1.0  0.5119289676361305  0.9886284772301507  0.6615430328194021  1.0000
  H   H94       1.0  0.9880252963427483  0.011374583434218303  0.16154479178382528  1.0000
  H   H95       1.0  0.488032002450119  0.011373117192675898  0.3384644143133784  1.0000
  H   H96       1.0  0.011976676246263104  0.9886308958127258  0.8384490937839287  1.0000
  H   H97       1.0  0.6361231107317239  0.09374052795855188  0.6664115071607666  1.0000
  H   H98       1.0  0.8638473604606034  0.906260405061502  0.16641206419262025  1.0000
  H   H99       1.0  0.3638381434995708  0.9062619454086587  0.33359081669208723  1.0000
  H   H100      1.0  0.13618081107814115  0.09374282896653338  0.8335863419436362  1.0000
  Pt  Pt1       1.0  0.10403974077907213  0.28188830514880436  0.7056352144891063  1.0000
  Pt  Pt2       1.0  0.3959607167111087  0.7181094791814286  0.20564083215780465  1.0000
  Pt  Pt3       1.0  0.8959488514504631  0.7181114811431328  0.2943634929510494  1.0000
  Pt  Pt4       1.0  0.6040577722848541  0.28189553109476145  0.7943629986276688  1.0000
  C   C1        1.0  0.9438192112792765  0.16654457817686816  0.7420587162658661  1.0000
  C   C2        1.0  0.5561575734006752  0.8334570163922307  0.24206688818009775  1.0000
  C   C3        1.0  0.056157848260951784  0.8334552285770439  0.25793878568099865  1.0000
  C   C4        1.0  0.4438483857893446  0.16654889562062888  0.7579360384843382  1.0000
  C   C5        1.0  0.8790659727349424  0.14204619729326853  0.7797441986661935  1.0000
  C   C6        1.0  0.6209190869282323  0.8579557161223687  0.2797554636186347  1.0000
  C   C7        1.0  0.12092902647813014  0.857953577605599  0.22025270056416693  1.0000
  C   C8        1.0  0.37907633467890633  0.14205329288706992  0.7202507781121311  1.0000
  C   C9        1.0  0.9260564490962866  0.182353735155445  0.8089718676669901  1.0000
  C   C10       1.0  0.5739130826265253  0.8176514440460919  0.3089832613180973  1.0000
  C   C11       1.0  0.07393356664829287  0.8176464883476054  0.19102563429827768  1.0000
  C   C12       1.0  0.42608234107119375  0.18235360718482238  0.6910211721773647  1.0000
  C   C13       1.0  0.02259892340666877  0.23198528613755792  0.7897552992764643  1.0000
  C   C14       1.0  0.47737512066081683  0.7680217469114936  0.2897639743041579  1.0000
  C   C15       1.0  0.977387106018206  0.7680145047072954  0.21024370953008995  1.0000
  C   C16       1.0  0.5226259971854716  0.23198505319774648  0.7102389523579828  1.0000
  C   C17       1.0  0.1031765572213388  0.28114245331497756  0.810068234283811  1.0000
  C   C18       1.0  0.39681451985362054  0.7188588097298875  0.31007205249321146  1.0000
  C   C19       1.0  0.896827698345078  0.7188542269299416  0.18993198001102474  1.0000
  C   C20       1.0  0.6031828958501608  0.28114843667784567  0.6899284632089078  1.0000
  C   C21       1.0  0.18388195484237002  0.33059053538629957  0.7901257189242796  1.0000
  C   C22       1.0  0.3161111920593669  0.6694081160267159  0.2901285952350959  1.0000
  C   C23       1.0  0.8161150387164896  0.6694074770062668  0.20987479673676998  1.0000
  C   C24       1.0  0.6838903542839462  0.330596044792891  0.7098719204587595  1.0000
  C   C25       1.0  0.27976711502162743  0.3799698579115045  0.8097202092261069  1.0000
  C   C26       1.0  0.22023448109486307  0.6200283010367967  0.3097215026880206  1.0000
  C   C27       1.0  0.7202304470764817  0.6200299124652273  0.19027940233441845  1.0000
  C   C28       1.0  0.7797689173489107  0.3799736577381482  0.6902787116288848  1.0000
  C   C29       1.0  0.3274730063205525  0.4206343653515032  0.78076756449893  1.0000
  C   C30       1.0  0.1725404281466111  0.5793649374952634  0.28076717350358377  1.0000
  C   C31       1.0  0.672527831489511  0.5793636402286068  0.21923415664562634  1.0000
  C   C32       1.0  0.8274719401416208  0.42063700535523896  0.7192330408247256  1.0000
  C   C33       1.0  0.2627444561055157  0.39677676101167936  0.7428252386659863  1.0000
  C   C34       1.0  0.237276350921654  0.6032230694727756  0.2428249213240434  1.0000
  C   C35       1.0  0.7372486932503649  0.6032212582118033  0.25717587972948747  1.0000
  C   C36       1.0  0.762733312437149  0.3967784384384458  0.757176197107867  1.0000
  C   C37       1.0  0.2769332115268099  0.4264941706130045  0.7059106180769348  1.0000
  C   C38       1.0  0.22308221094795042  0.5735022734874134  0.20591030492137458  1.0000
  C   C39       1.0  0.7230558072136548  0.5735069342078345  0.2940914044357683  1.0000
  C   C40       1.0  0.7769388429271729  0.4264987744511826  0.794090813523084  1.0000
  C   C41       1.0  0.22268918366852125  0.4015080317497776  0.668916711008819  1.0000
  C   C42       1.0  0.277322840038302  0.5984911773400583  0.16891796143651305  1.0000
  C   C43       1.0  0.7773088048842498  0.5984930571343055  0.3310841060366626  1.0000
  C   C44       1.0  0.7226882468435819  0.4015107677853607  0.8310822528901693  1.0000
  C   C45       1.0  0.2254138431266455  0.43263935462606895  0.6311009866905477  1.0000
  C   C46       1.0  0.2746004342336975  0.5673603937739954  0.1311010527682512  1.0000
  C   C47       1.0  0.7745922603269337  0.5673630391189306  0.3689013372193201  1.0000
  C   C48       1.0  0.7254110790787397  0.4326428698495518  0.8688994629344149  1.0000
  C   C49       1.0  0.17607722263130654  0.3923957883624211  0.6019046574138684  1.0000
  C   C50       1.0  0.32392026274577296  0.6076038305220948  0.10190399746625187  1.0000
  C   C51       1.0  0.8239290229631139  0.6076070448809217  0.39809766649810996  1.0000
  C   C52       1.0  0.6760831335592103  0.39240208601290744  0.8980962168680262  1.0000
  C   C53       1.0  0.13925331133673782  0.33624055560718347  0.62138098060484  1.0000
  C   C54       1.0  0.3607450707452315  0.6637590215815122  0.12138211327820866  1.0000
  C   C55       1.0  0.8607488057167673  0.663761405448838  0.37861983644975067  1.0000
  C   C56       1.0  0.6392550520428558  0.3362447020115836  0.8786181010422565  1.0000
  C   C57       1.0  0.1021756506697926  0.2826653840078491  0.601218766674158  1.0000
  C   C58       1.0  0.3978200903904606  0.7173329046843049  0.10122166995941478  1.0000
  C   C59       1.0  0.8978274635083852  0.7173356957765478  0.3987820503778393  1.0000
  C   C60       1.0  0.6021794638664136  0.2826690609277165  0.8987797498312274  1.0000
  C   C61       1.0  0.0669956499983257  0.22861584086574988  0.6210374571391453  1.0000
  C   C62       1.0  0.4330062738332998  0.7713828435369121  0.12104363721287109  1.0000
  C   C63       1.0  0.9330024806872501  0.7713856875136001  0.37896305853879386  1.0000
  C   C64       1.0  0.567000826777104  0.2286186689487764  0.8789598921730286  1.0000
  C   C65       1.0  0.028626268718092294  0.1725491413389193  0.6013661617904305  1.0000
  C   C66       1.0  0.47138784645040493  0.8274504370615926  0.10137413768007517  1.0000
  C   C67       1.0  0.9713673048491744  0.8274541541119689  0.3986322443018436  1.0000
  C   C68       1.0  0.5286258033647401  0.17255150356015037  0.8986305971947032  1.0000
  C   C69       1.0  0.9805083868129859  0.13208451640937108  0.6304608255704096  1.0000
  C   C70       1.0  0.5195001771638204  0.8679125331637323  0.130470712993791  1.0000
  C   C71       1.0  0.01948091610467624  0.8679174673681584  0.3695372791409851  1.0000
  C   C72       1.0  0.4805082049172287  0.13208897707166048  0.8695352273509867  1.0000
  C   C73       1.0  0.9853179662382914  0.16286595166710066  0.6683910503656703  1.0000
  C   C74       1.0  0.51468806364403  0.8371336396488541  0.16839734022232725  1.0000
  C   C75       1.0  0.014671194570673958  0.8371355926243849  0.3316082598222393  1.0000
  C   C76       1.0  0.48532444685737647  0.16286874272769583  0.8316055864349962  1.0000
  C   C77       1.0  0.928775868783511  0.13745281293994074  0.7050359098313519  1.0000
  C   C78       1.0  0.5712109024496855  0.8625453657363664  0.20504407422937723  1.0000
  C   C79       1.0  0.07120147504643622  0.8625478728137422  0.2949618934893933  1.0000
  C   C80       1.0  0.42880829934908604  0.137457884256122  0.7949582497009968  1.0000
  C   C81       1.0  0.1023630853874948  0.2808360914549155  0.8548270504762028  1.0000
  C   C82       1.0  0.3976249691291684  0.7191652158742841  0.3548335857791186  1.0000
  C   C83       1.0  0.8976556941779493  0.719157924488556  0.14517195834689284  1.0000
  C   C84       1.0  0.6023694552488196  0.28084467436676863  0.645168738148719  1.0000
  C   C85       1.0  0.1524184428335715  0.23269281268510864  0.8765475184162452  1.0000
  C   C86       1.0  0.34756493171518327  0.7673107076337042  0.37655434828407397  1.0000
  C   C87       1.0  0.8476043209931491  0.7673055937073981  0.12345299727950014  1.0000
  C   C88       1.0  0.6524223749188139  0.23269699648712813  0.6234476742554022  1.0000
  C   C89       1.0  0.14965352049544836  0.232009942243188  0.9185331268850729  1.0000
  C   C90       1.0  0.3503372190342943  0.7679944264866375  0.41853966846382207  1.0000
  C   C91       1.0  0.8503682462307086  0.7679893454301734  0.08146829292223148  1.0000
  C   C92       1.0  0.6496704479524383  0.23201280173404365  0.5814620527299537  1.0000
  C   C93       1.0  0.09803236852848579  0.27975275104299147  0.9398334749556481  1.0000
  C   C94       1.0  0.4019726054719471  0.7202529089879448  0.439841537735944  1.0000
  C   C95       1.0  0.9019909638535497  0.7202474133398337  0.060166739378878696  1.0000
  C   C96       1.0  0.5980450284999962  0.27975342204282316  0.560160786205955  1.0000
  C   C97       1.0  0.04934628398306266  0.3281534981377731  0.9187540231554789  1.0000
  C   C98       1.0  0.4506561443059027  0.6718473363831803  0.418762086956903  1.0000
  C   C99       1.0  0.9506720670371396  0.6718431570768642  0.08124558841795697  1.0000
  C   C100      1.0  0.5493612053522129  0.32815811563857966  0.5812390315021501  1.0000
  C   C101      1.0  0.05098512907422757  0.32858551105543643  0.8767650970790652  1.0000
  C   C102      1.0  0.44901463326785784  0.6714131473951568  0.3767737556221462  1.0000
  C   C103      1.0  0.9490322269440271  0.6714080676646075  0.12323391174028586  1.0000
  C   C104      1.0  0.550994599406913  0.3285949575472954  0.6232279655774774  1.0000
  C   C105      1.0  0.345859543782403  0.489510770267344  0.7060628731307687  1.0000
  C   C106      1.0  0.15415673961457094  0.5104883139161415  0.20606092638456625  1.0000
  C   C107      1.0  0.6541381605610257  0.5104894396477417  0.293940656237396  1.0000
  C   C108      1.0  0.8458601857839342  0.4895118618597534  0.7939410961597556  1.0000
  C   C109      1.0  0.26907224057774204  0.5291255279867001  0.7310040001520334  1.0000
  C   C110      1.0  0.23094651238400846  0.4708736238316007  0.23100310757579476  1.0000
  C   C111      1.0  0.7309217616312156  0.47087512822994876  0.2689974196257622  1.0000
  C   C112      1.0  0.7690667109362794  0.529126998267401  0.768998914965749  1.0000
  C   C113      1.0  0.32901462566097456  0.5885028734743614  0.7315594603415361  1.0000
  C   C114      1.0  0.1710051541141056  0.41149540844092053  0.23156090689324316  1.0000
  C   C115      1.0  0.670990909181029  0.41149776225877577  0.2684410553419525  1.0000
  C   C116      1.0  0.8289961102068802  0.5885039156680917  0.7684441293238675  1.0000
  C   C117      1.0  0.46519588352684604  0.6095192756386112  0.7062983194605507  1.0000
  C   C118      1.0  0.03481685690076831  0.390472783705718  0.20630134270631828  1.0000
  C   C119      1.0  0.5348184811977603  0.39047694692705875  0.2937037030631443  1.0000
  C   C120      1.0  0.9651996420832633  0.6095260735782018  0.7937009812013187  1.0000
  C   C121      1.0  0.5434229969396327  0.5713197145135211  0.6810151459327045  1.0000
  C   C122      1.0  0.9565871261209085  0.4286748515257414  0.18101837798663203  1.0000
  C   C123      1.0  0.4565882363928326  0.4286747546024472  0.3189862738399754  1.0000
  C   C124      1.0  0.04342922863170163  0.5713275240383594  0.8189857541542052  1.0000
  C   C125      1.0  0.4848918570446232  0.5114812138383512  0.6814554108678406  1.0000
  C   C126      1.0  0.015114430527482613  0.48851430495191295  0.18145623063404057  1.0000
  C   C127      1.0  0.5151067044214344  0.48851371754670936  0.3185481184782545  1.0000
  C   C128      1.0  0.9849006427705549  0.5114880728686443  0.8185460932872243  1.0000
  C   C129      1.0  0.09717287622163438  0.2826135606923684  0.5564741058440886  1.0000
  C   C130      1.0  0.4028311538682415  0.7173890721973275  0.056477625151067884  1.0000
  C   C131      1.0  0.9028440491366825  0.7173866150681362  0.44352640985195524  1.0000
  C   C132      1.0  0.5971706767728194  0.2826159676251336  0.9435234932863209  1.0000
  C   C133      1.0  0.9873869115726779  0.3166602004840796  0.5352484222025635  1.0000
  C   C134      1.0  0.512613438286678  0.6833410664824695  0.035251849885561584  1.0000
  C   C135      1.0  0.012622753916893594  0.6833373496640077  0.46475239484232117  1.0000
  C   C136      1.0  0.4873920945049265  0.31666352704457507  0.964751980881509  1.0000
  C   C137      1.0  0.9739584010186209  0.3134580401928133  0.49343395393405115  1.0000
  C   C138      1.0  0.5260316531350641  0.6865403333949657  0.99343741484968  1.0000
  C   C139      1.0  0.02604343387592676  0.6865390841002963  0.5065662603596407  1.0000
  C   C140      1.0  0.4739624934178295  0.31345680458459657  0.0065664158701110985  1.0000
  C   C141      1.0  0.07078732316202968  0.2758077820485596  0.4720492508864352  1.0000
  C   C142      1.0  0.42919516870075824  0.7241911031164461  0.9720531695567728  1.0000
  C   C143      1.0  0.9292163617263397  0.7241910979722517  0.5279518675262905  1.0000
  C   C144      1.0  0.5707826080645475  0.27579902788903604  0.027948250154075493  1.0000
  C   C145      1.0  0.18389228022869022  0.2427855209573124  0.49254992147129417  1.0000
  C   C146      1.0  0.3161115211642951  0.7572168252839758  0.9925544434595535  1.0000
  C   C147      1.0  0.8161366021187252  0.7572199106024796  0.5074524024810428  1.0000
  C   C148      1.0  0.6838723762122857  0.24277637311026712  0.007446976272582597  1.0000
  C   C149      1.0  0.19732677610274865  0.24650173859856742  0.5343071317690543  1.0000
  C   C150      1.0  0.30269315427949545  0.753505688247145  0.0343119173836044  1.0000
  C   C151      1.0  0.8027058082746664  0.753503246619644  0.4656933839681229  1.0000
  C   C152      1.0  0.6973091049389596  0.246496712316457  0.9656898037820624  1.0000
  C   C153      1.0  0.850520426564657  0.07526806135563648  0.7037161404484207  1.0000
  C   C154      1.0  0.6494755283584581  0.924730953420969  0.20372263996209475  1.0000
  C   C155      1.0  0.14946403504946187  0.9247348105336567  0.2962834711089641  1.0000
  C   C156      1.0  0.3505438154766696  0.07527273602985929  0.796275766164868  1.0000
  C   C157      1.0  0.9295596204799638  0.030949709881426198  0.7235666635330416  1.0000
  C   C158      1.0  0.5704410975340864  0.9690453062838813  0.22357756905086024  1.0000
  C   C159      1.0  0.0704393650045958  0.9690504976571787  0.2764269206381016  1.0000
  C   C160      1.0  0.42956272713129107  0.030957970909170685  0.7764151110309708  1.0000
  C   C161      1.0  0.8621475137636666  0.9723271384879977  0.720577505671926  1.0000
  C   C162      1.0  0.6378301217274256  0.0276682971049453  0.22059147071374946  1.0000
  C   C163      1.0  0.13784364110979655  0.027672643189468705  0.2794148730087044  1.0000
  C   C164      1.0  0.3621534845411957  0.972335895415824  0.7793945792138074  1.0000
  C   C165      1.0  0.7123437413246735  0.9577134530252136  0.6979443887517006  1.0000
  C   C166      1.0  0.7876306926641805  0.04228328282071198  0.19795524886070123  1.0000
  C   C167      1.0  0.28764000961739816  0.04228722138464749  0.30205642827374385  1.0000
  C   C168      1.0  0.2123526315499688  0.957716072977156  0.8020341161114855  1.0000
  C   C169      1.0  0.630040891323873  0.000989997526438899  0.678413138843247  1.0000
  C   C170      1.0  0.869924952361281  0.9990107502677148  0.1784187447831299  1.0000
  C   C171      1.0  0.36992150225330533  0.9990120340982782  0.3215921987056801  1.0000
  C   C172      1.0  0.13007645377103222  0.0009890132134699999  0.8215739352801916  1.0000
  C   C173      1.0  0.7001664052082649  0.05952783356585908  0.6812373191437898  1.0000
  C   C174      1.0  0.7998169601674832  0.9404711820414984  0.18124042363387358  1.0000
  C   C175      1.0  0.2998062395875749  0.9404741798471861  0.31876681293955034  1.0000
  C   C176      1.0  0.20020024940821918  0.059529872691086894  0.818757681109133  1.0000
  S   S1        1.0  0.5313668083131304  0.6861730411668389  0.7066986580716585  1.0000
  S   S2        1.0  0.9686462503249448  0.3138229261624658  0.20670272099233958  1.0000
  S   S3        1.0  0.4686552447772458  0.31382316772160823  0.2933006521349028  1.0000
  S   S4        1.0  0.03135586672856042  0.6861790348935555  0.7932980960622442  1.0000
  S   S5        1.0  0.054990831943364106  0.27007762062123675  0.4184816532771122  1.0000
  S   S6        1.0  0.44496617242352693  0.7299056988624738  0.9184835529690288  1.0000
  S   S7        1.0  0.9449792628243401  0.729900650762829  0.5815206704808203  1.0000
  S   S8        1.0  0.5549985145035664  0.2700677448368153  0.08151605843389118  1.0000
  S   S9        1.0  0.6234405581762205  0.8828520049379307  0.6968993992367202  1.0000
  S   S10       1.0  0.8765140281982868  0.11714694342462907  0.1969072260987303  1.0000
  S   S11       1.0  0.3765352200139206  0.11714780411244156  0.30310021229610834  1.0000
  S   S12       1.0  0.12348039991881173  0.8828550310901022  0.8030749060274117  1.0000
  N   N1        1.0  0.0266451583183738  0.2223423031178129  0.7486104684658413  1.0000
  N   N2        1.0  0.47333708677039255  0.7776603531324042  0.24861951915140418  1.0000
  N   N3        1.0  0.9733338933725907  0.7776596988683123  0.25138854034148744  1.0000
  N   N4        1.0  0.5266754216243612  0.22234598701651004  0.7513846130019102  1.0000
  N   N5        1.0  0.18064261105596563  0.3408552483622103  0.7490252675109301  1.0000
  N   N6        1.0  0.319365854819047  0.6591451710309001  0.24902806203036928  1.0000
  N   N7        1.0  0.8193511068632734  0.6591445288546678  0.2509758508929848  1.0000
  N   N8        1.0  0.680646797799085  0.34085765083476355  0.7509739605200989  1.0000
  N   N9        1.0  0.16428025118584338  0.34309051838373944  0.6625357815420185  1.0000
  N   N10       1.0  0.3357180474368492  0.6569107829046955  0.16253769417907185  1.0000
  N   N11       1.0  0.8357170245400102  0.6569123307748156  0.3374656382495899  1.0000
  N   N12       1.0  0.6642834989064568  0.3430933779149114  0.8374628215147835  1.0000
  N   N13       1.0  0.044333214655885904  0.22130078686463148  0.6622255869384472  1.0000
  N   N14       1.0  0.45566293323155094  0.7786978733965025  0.16222977960373433  1.0000
  N   N15       1.0  0.9556556618553316  0.7786998784240067  0.3377731205059291  1.0000
  N   N16       1.0  0.5443443094634335  0.22130407856599268  0.8377716401966849  1.0000
  O   O1        1.0  0.5346911476100189  0.7041951590867868  0.7495815338929928  1.0000
  O   O2        1.0  0.9653058278790285  0.2958083129634231  0.24958633422956203  1.0000
  O   O3        1.0  0.4653410124434957  0.2958045498609322  0.25041747497220956  1.0000
  O   O4        1.0  0.03468603793170629  0.7041936662950402  0.7504147841816502  1.0000
  O   O5        1.0  0.3965194697292347  0.7136934630838354  0.6842405396125955  1.0000
  O   O6        1.0  0.10349793292059666  0.2862963764755618  0.18425246790866368  1.0000
  O   O7        1.0  0.6034919057038906  0.28630144551508596  0.3157593733139165  1.0000
  O   O8        1.0  0.8964916586286691  0.7136985708062367  0.8157483490991237  1.0000
  O   O9        1.0  0.7008800358557468  0.6952605798206051  0.6875342156098083  1.0000
  O   O10       1.0  0.7991453852504339  0.30473277352704997  0.18753324457836834  1.0000
  O   O11       1.0  0.2991387415146392  0.3047373938613801  0.31246268364306207  1.0000
  O   O12       1.0  0.20085487965437912  0.6952713895551665  0.8124660656352345  1.0000
  O   O13       1.0  0.869939026283575  0.26450672710938505  0.4078862127278383  1.0000
  O   O14       1.0  0.6300121233486423  0.7355422904703843  0.9078816298959109  1.0000
  O   O15       1.0  0.13002406314675596  0.7355252063736584  0.5921236454980627  1.0000
  O   O16       1.0  0.3699533757380778  0.2645089876416549  0.09211617363173728  1.0000
  O   O17       1.0  0.145870832000135  0.32505029524213563  0.4022496383848803  1.0000
  O   O18       1.0  0.3542467810931528  0.6749007440651908  0.9022580559682181  1.0000
  O   O19       1.0  0.854237100732199  0.6748982680105369  0.5977403292630752  1.0000
  O   O20       1.0  0.6459186818938891  0.32503144648983096  0.0977527061877268  1.0000
  O   O21       1.0  0.14081524530595863  0.2178806535981009  0.4082042259450772  1.0000
  O   O22       1.0  0.3589712314867909  0.7820644993700651  0.9081994323919742  1.0000
  O   O23       1.0  0.8590129171368023  0.7820631295536984  0.5918074399392808  1.0000
  O   O24       1.0  0.6407887400660004  0.21786269407552789  0.09178872649917479  1.0000
  O   O25       1.0  0.4695686141793942  0.878082292183876  0.6710540211552072  1.0000
  O   O26       1.0  0.030350693582960307  0.12191536631313941  0.17105075782132664  1.0000
  O   O27       1.0  0.5303895087803173  0.12191842777978219  0.3289522204914731  1.0000
  O   O28       1.0  0.9696122697640849  0.8780844651879107  0.8289196208385758  1.0000
  O   O29       1.0  0.5814487998714172  0.8691034306296144  0.739742598226165  1.0000
  O   O30       1.0  0.9185580442337699  0.13090026176863737  0.23974733821806635  1.0000
  O   O31       1.0  0.41856641768215047  0.1308954289199917  0.2602588215708862  1.0000
  O   O32       1.0  0.08150444047237203  0.8691020316398048  0.7602314789303077  1.0000
  O   O33       1.0  0.7579489881686214  0.8475231496017057  0.6821241660941408  1.0000
  O   O34       1.0  0.7419848786283438  0.15247333373107344  0.18214250688743047  1.0000
  O   O35       1.0  0.24202137777471222  0.15247974723477137  0.31786791120391905  1.0000
  O   O36       1.0  0.2580014306157565  0.8475352515598117  0.8178495704559905  1.0000
