data_image0
_chemical_formula_structural       Cu4H12C8S4N16
_chemical_formula_sum              "Cu4 H12 C8 S4 N16"
_cell_length_a       6.4764067980488464
_cell_length_b       7.597213482502766
_cell_length_c       9.947375752631144
_cell_angle_alpha    104.97508956221095
_cell_angle_beta     89.99977478502844
_cell_angle_gamma    90.00045857634225

_space_group_name_H-M_alt    "P 1"
_space_group_IT_number       1

loop_
  _space_group_symop_operation_xyz
  'x, y, z'

loop_
  _atom_site_type_symbol
  _atom_site_label
  _atom_site_symmetry_multiplicity
  _atom_site_fract_x
  _atom_site_fract_y
  _atom_site_fract_z
  _atom_site_occupancy
  Cu  Cu1       1.0  0.09180240101594711  0.14766470600611828  0.6591114290456233  1.0000
  Cu  Cu2       1.0  0.5917960648238393  0.3523296689117926  0.8408909543940483  1.0000
  Cu  Cu3       1.0  0.9082056597479637  0.8523278510645868  0.34088758144525855  1.0000
  Cu  Cu4       1.0  0.40819809940744284  0.6476752057911811  0.15910759514284226  1.0000
  H   H1        1.0  0.29744496564738654  0.37693433914208185  0.3240108340749971  1.0000
  H   H2        1.0  0.797432907629464  0.12306846189296292  0.17599439587365853  1.0000
  H   H3        1.0  0.70255846289502  0.6230500993031783  0.6759834761312506  1.0000
  H   H4        1.0  0.2025612565852981  0.8769349944873781  0.824006875597654  1.0000
  H   H5        1.0  0.0381512912671624  0.3792615886326587  0.3850803551635239  1.0000
  H   H6        1.0  0.5381396394961017  0.12074643281347622  0.11492552355183965  1.0000
  H   H7        1.0  0.9618459610807265  0.6207378736725316  0.6149150608474585  1.0000
  H   H8        1.0  0.46185915694837837  0.8792611853765919  0.8850725897077254  1.0000
  H   H9        1.0  0.17532525959242662  0.16801589350873766  0.3354691497170279  1.0000
  H   H10       1.0  0.6753292272708081  0.33198883673173196  0.16453876020860042  1.0000
  H   H11       1.0  0.824668904588215  0.8319793883570127  0.664530426023731  1.0000
  H   H12       1.0  0.32467728946224383  0.6680172327180998  0.8354690856129567  1.0000
  C   C1        1.0  0.5131944056668162  0.24888644049384115  0.5347400013221204  1.0000
  C   C2        1.0  0.013205781641893602  0.25111702049385803  0.965262429327325  1.0000
  C   C3        1.0  0.4868105670067352  0.7511076653314889  0.4652492766046522  1.0000
  C   C4        1.0  0.986816175810269  0.748901348044825  0.03474595704555843  1.0000
  C   C5        1.0  0.18965165737326123  0.31455481933673474  0.38263714464257254  1.0000
  C   C6        1.0  0.6896437110506001  0.1854513622586467  0.11737103480585633  1.0000
  C   C7        1.0  0.810354859323489  0.685432399859842  0.6173547262495946  1.0000
  C   C8        1.0  0.31035971758541353  0.8145588876114475  0.8826326512887592  1.0000
  S   S1        1.0  0.2739649660135727  0.3570537916987888  0.5612846121047426  1.0000
  S   S2        1.0  0.7739466249367697  0.1429444020553419  0.9387201729966748  1.0000
  S   S3        1.0  0.7260369185160231  0.6429442522981503  0.4387135258385514  1.0000
  S   S4        1.0  0.22604290709629282  0.8570604726332507  0.061278376542340175  1.0000
  N   N1        1.0  0.6476930579350865  0.2612423985171048  0.6405187546702464  1.0000
  N   N2        1.0  0.14767417450099882  0.2387508119705828  0.8594913071798445  1.0000
  N   N3        1.0  0.35231500285266293  0.738760946099319  0.35948852590708213  1.0000
  N   N4        1.0  0.8523138134437929  0.7612512819714825  0.14050968167253336  1.0000
  N   N5        1.0  0.8094043291209942  0.15633206270738492  0.5830576776267905  1.0000
  N   N6        1.0  0.3093953351380919  0.343662245276967  0.9169472287072867  1.0000
  N   N7        1.0  0.1906006435056327  0.843661800869299  0.4169446200434452  1.0000
  N   N8        1.0  0.6906019172258767  0.6563452983702617  0.08305489062789918  1.0000
  N   N9        1.0  0.7688974167157457  0.083842542580058  0.44860086789373815  1.0000
  N   N10       1.0  0.2688855254117187  0.41615190664891333  0.05140269243681672  1.0000
  N   N11       1.0  0.23110446775653068  0.9161485402452954  0.5514038690905637  1.0000
  N   N12       1.0  0.7311024625366828  0.5838502059276678  0.9485972948968353  1.0000
  N   N13       1.0  0.5835033395803535  0.1399544509172727  0.4153344951234815  1.0000
  N   N14       1.0  0.08348603214803063  0.36003489010582257  0.08466137629378781  1.0000
  N   N15       1.0  0.416504721169659  0.8600407005500442  0.5846720912420125  1.0000
  N   N16       1.0  0.9165034998663373  0.6399578905214797  0.9153256159808338  1.0000
