data_image0
_chemical_formula_structural       Ni2H28C40N4O10
_chemical_formula_sum              "Ni2 H28 C40 N4 O10"
_cell_length_a       7.951709288373932
_cell_length_b       10.476847563249224
_cell_length_c       11.184089497958677
_cell_angle_alpha    112.38821019331104
_cell_angle_beta     92.85511097112526
_cell_angle_gamma    89.2867671946385

_space_group_name_H-M_alt    "P 1"
_space_group_IT_number       1

loop_
  _space_group_symop_operation_xyz
  'x, y, z'

loop_
  _atom_site_type_symbol
  _atom_site_label
  _atom_site_symmetry_multiplicity
  _atom_site_fract_x
  _atom_site_fract_y
  _atom_site_fract_z
  _atom_site_occupancy
  Ni  Ni1       1.0  0.24990196691018698  0.7730907973496388  0.9955452431198  1.0000
  Ni  Ni2       1.0  0.7501403493115149  0.2269041943484069  0.004497899514454674  1.0000
  H   H1        1.0  0.14417252152621526  0.4691675799708932  0.8842073875525216  1.0000
  H   H2        1.0  0.8558240606619805  0.5308462360003221  0.11579286891182515  1.0000
  H   H3        1.0  0.1961832787267781  0.28138190164862925  0.9655297599326359  1.0000
  H   H4        1.0  0.8038172656743041  0.7186143638600342  0.0344543266516339  1.0000
  H   H5        1.0  0.3860160892703987  0.3268545304241854  0.166741755560345  1.0000
  H   H6        1.0  0.6139867622799997  0.6731373720106787  0.8332506371784518  1.0000
  H   H7        1.0  0.6594430795603898  0.750507072415978  0.4648484317015757  1.0000
  H   H8        1.0  0.34055891723239273  0.2494908941632233  0.5351568972381031  1.0000
  H   H9        1.0  0.5494363527798212  0.5109130680731441  0.35997556489351723  1.0000
  H   H10       1.0  0.4505543822274589  0.4890863264602388  0.6400290180761915  1.0000
  H   H11       1.0  0.6829095722262365  0.9965285744018357  0.45848230613543706  1.0000
  H   H12       1.0  0.31709940422766886  0.003480427298789798  0.5415335824037726  1.0000
  H   H13       1.0  0.6052334178757519  0.14867218094900636  0.3359734852645175  1.0000
  H   H14       1.0  0.394768735613411  0.8513494798717928  0.6640450501896141  1.0000
  H   H15       1.0  0.42152047653380004  0.057524578224772006  0.1361920042695814  1.0000
  H   H16       1.0  0.5784945933596859  0.9424811722910607  0.8638193139849764  1.0000
  H   H17       1.0  0.8682725580955973  0.5615395852037609  0.7114716936362838  1.0000
  H   H18       1.0  0.13173052065220503  0.43843472785387416  0.2885151200886753  1.0000
  H   H19       1.0  0.29326367724254954  0.5762924875625756  0.49540311529510467  1.0000
  H   H20       1.0  0.7067080834761866  0.4236849374582761  0.5045846883672098  1.0000
  H   H21       1.0  0.0046906859059277035  0.1973915933438164  0.4281828303863832  1.0000
  H   H22       1.0  0.9953379919343989  0.8026107895773363  0.5718151847316549  1.0000
  H   H23       1.0  0.017794020167947608  0.7608002661398601  0.33625046387221863  1.0000
  H   H24       1.0  0.9822205732575495  0.23919848690230341  0.6637439527797895  1.0000
  H   H25       1.0  0.13537653518204001  0.9943967763227449  0.06231587028516126  1.0000
  H   H26       1.0  0.8646237719063734  0.00559404106891039  0.9376849793982984  1.0000
  H   H27       1.0  0.11832380019266964  0.9359904771137763  0.906198365006567  1.0000
  H   H28       1.0  0.8816769425090597  0.0640088130786012  0.0937913137395299  1.0000
  C   C1        1.0  0.22223252255917458  0.48711075834964396  0.9718968983163593  1.0000
  C   C2        1.0  0.7777593359823171  0.5129083706069366  0.028106051438342775  1.0000
  C   C3        1.0  0.25479549064713325  0.3819183437302485  0.018953284869738247  1.0000
  C   C4        1.0  0.7452034758249297  0.6180933661096759  0.9810435929572136  1.0000
  C   C5        1.0  0.3551060543402187  0.40787130178105013  0.1307563762722808  1.0000
  C   C6        1.0  0.6448917342858635  0.5921413986904797  0.8692461922992792  1.0000
  C   C7        1.0  0.41903589407147734  0.5428932434609521  0.1991158292110313  1.0000
  C   C8        1.0  0.5809445778968011  0.4571252646207853  0.800884721279246  1.0000
  C   C9        1.0  0.38101934242708074  0.6416357481115682  0.14477593640292247  1.0000
  C   C10       1.0  0.6189633922142265  0.35837859113562587  0.8552204713612639  1.0000
  C   C11       1.0  0.44219133893904683  0.7783964707766415  0.20473334788340475  1.0000
  C   C12       1.0  0.5577910980289077  0.22161268396396144  0.7952629280705779  1.0000
  C   C13       1.0  0.5447433402773569  0.8201668500315976  0.31979364763792983  1.0000
  C   C14       1.0  0.45524107122091095  0.17983290974517271  0.6802010213970249  1.0000
  C   C15       1.0  0.5809030364114491  0.7195653497972075  0.3755109274712609  1.0000
  C   C16       1.0  0.4190903197476246  0.2804360917598387  0.6244900266269227  1.0000
  C   C17       1.0  0.519686329810817  0.5872767964031239  0.3181306711417449  1.0000
  C   C18       1.0  0.48029702545230885  0.412726016708497  0.6818704527265069  1.0000
  C   C19       1.0  0.6030818399259201  0.9582057903736186  0.36991147463772484  1.0000
  C   C20       1.0  0.39691430029520797  0.041799580545337285  0.6300981743524688  1.0000
  C   C21       1.0  0.5593892714629688  0.042760196956876904  0.3038735667038708  1.0000
  C   C22       1.0  0.44060169405848637  0.9572433784799301  0.6961289876201918  1.0000
  C   C23       1.0  0.4561390622577406  0.9926746867217279  0.1896774983048249  1.0000
  C   C24       1.0  0.5438514680951343  0.007321710876396987  0.8103197140915412  1.0000
  C   C25       1.0  0.19180618954995043  0.6574525362097389  0.7377872280000871  1.0000
  C   C26       1.0  0.8081803474309767  0.3425205722075333  0.2621789141638189  1.0000
  C   C27       1.0  0.0909615505035006  0.575974158077301  0.6159047331013454  1.0000
  C   C28       1.0  0.9090443926177796  0.4240063274105098  0.38407997992946724  1.0000
  C   C29       1.0  0.9251149227404054  0.5337773750384186  0.6185012894003065  1.0000
  C   C30       1.0  0.07491861262023043  0.46622040714164836  0.38151486620415653  1.0000
  C   C31       1.0  0.1648936057217227  0.5416357794510702  0.4964116983613708  1.0000
  C   C32       1.0  0.8351206351340252  0.45835543502237625  0.5036004957126535  1.0000
  C   C33       1.0  0.003065431042422501  0.11176471593952189  0.46067860213813117  1.0000
  C   C34       1.0  0.9969468579659019  0.8882370913401656  0.5393249104301744  1.0000
  C   C35       1.0  0.010654962556266417  0.8651772426420907  0.4091624650995485  1.0000
  C   C36       1.0  0.9893563473514603  0.13482987491494916  0.5908358175101398  1.0000
  C   C37       1.0  0.01321504519839322  0.9765630020266728  0.36861952348095883  1.0000
  C   C38       1.0  0.9867916561798251  0.023429734812552297  0.6313777769338245  1.0000
  C   C39       1.0  0.01867687549144391  0.9482770325827019  0.2267403621464439  1.0000
  C   C40       1.0  0.9813300114799189  0.05171878443717049  0.7732589736071347  1.0000
  N   N1        1.0  0.28700093624772893  0.6142620334666945  0.031919197645187664  1.0000
  N   N2        1.0  0.7129916581726689  0.38574765980602876  0.9680874538907459  1.0000
  N   N3        1.0  0.39639162172910136  0.8631452137486945  0.14148793594662826  1.0000
  N   N4        1.0  0.6035995198548533  0.13686148349145097  0.8585139860989556  1.0000
  O   O1        1.0  0.33531032492486895  0.7015290913197846  0.7324008344139727  1.0000
  O   O2        1.0  0.6646764418206316  0.29846739223174273  0.2675989659968181  1.0000
  O   O3        1.0  0.11947549412313657  0.6740505431389606  0.8450566782483618  1.0000
  O   O4        1.0  0.880533873327913  0.3259453414467259  0.15493292931044786  1.0000
  O   O5        1.0  0.008811001207362803  0.8249652331313014  0.1480320402886406  1.0000
  O   O6        1.0  0.9911856734151457  0.1750276912943178  0.8519748291152068  1.0000
  O   O7        1.0  0.035044579767209406  0.053668145164792194  0.1937411910190789  1.0000
  O   O8        1.0  0.9649526936837274  0.9463146452069111  0.8062476571834764  1.0000
  O   O9        1.0  0.20172324823716536  0.9450358200572566  0.980685815625229  1.0000
  O   O10       1.0  0.7982841732754623  0.0549693346241753  0.0193134017044301  1.0000
