data_image0
_chemical_formula_structural       Cu4H24C36I4N24
_chemical_formula_sum              "Cu4 H24 C36 I4 N24"
_cell_length_a       4.8698923490693575
_cell_length_b       12.974381044345009
_cell_length_c       16.85908302560584
_cell_angle_alpha    104.26853154506246
_cell_angle_beta     90.0006022677679
_cell_angle_gamma    89.99968628102597

_space_group_name_H-M_alt    "P 1"
_space_group_IT_number       1

loop_
  _space_group_symop_operation_xyz
  'x, y, z'

loop_
  _atom_site_type_symbol
  _atom_site_label
  _atom_site_symmetry_multiplicity
  _atom_site_fract_x
  _atom_site_fract_y
  _atom_site_fract_z
  _atom_site_occupancy
  Cu  Cu1       1.0  0.4590495392421233  0.9394167109650693  0.6834504415612345  1.0000
  Cu  Cu2       1.0  0.9590259637813221  0.060573414647862506  0.8165457713069841  1.0000
  Cu  Cu3       1.0  0.540978518973759  0.060585636232374895  0.3165557316554768  1.0000
  Cu  Cu4       1.0  0.04094459811977911  0.939420483446639  0.1834479893907783  1.0000
  H   H1        1.0  0.4452928973646734  0.7782066403630095  0.3718130846924623  1.0000
  H   H2        1.0  0.9452908055205285  0.2217832326692175  0.1281813714763729  1.0000
  H   H3        1.0  0.5547207867982635  0.22180206773916916  0.6281943934907304  1.0000
  H   H4        1.0  0.05470850448578091  0.7782058617247569  0.8718125903079041  1.0000
  H   H5        1.0  0.2508158872008721  0.9243229870321558  0.510078667803576  1.0000
  H   H6        1.0  0.7508294660235392  0.07566435301906442  0.989912209055312  1.0000
  H   H7        1.0  0.7492039572446174  0.0756841638520314  0.489927304353941  1.0000
  H   H8        1.0  0.24918832491128742  0.924323118128825  0.010082606294631093  1.0000
  H   H9        1.0  0.9143259056912214  0.8153690004358506  0.7136917794969547  1.0000
  H   H10       1.0  0.4143431034903173  0.18462681695609004  0.786303096660447  1.0000
  H   H11       1.0  0.0856405495023225  0.18463178958905502  0.2863128876038914  1.0000
  H   H12       1.0  0.585631565216417  0.8153727129386894  0.21368944633026396  1.0000
  H   H13       1.0  0.36112990689431973  0.6840412828680585  0.7211684121201571  1.0000
  H   H14       1.0  0.8611589273559305  0.31595617960502415  0.7788272385874464  1.0000
  H   H15       1.0  0.6388365483277098  0.3159689659746974  0.2788411619277795  1.0000
  H   H16       1.0  0.1388177946918034  0.6840442774399307  0.22116074837933306  1.0000
  H   H17       1.0  0.386563413718669  0.4938824406477948  0.4187224699302448  1.0000
  H   H18       1.0  0.8865597871778303  0.5061177816143996  0.08127631007752001  1.0000
  H   H19       1.0  0.6134790185103468  0.5061310216014618  0.5812865769241569  1.0000
  H   H20       1.0  0.11344157613567771  0.49387228944462425  0.9187113260016275  1.0000
  H   H21       1.0  0.14524522858903313  0.4882740532320682  0.2692313785409794  1.0000
  H   H22       1.0  0.6452533409236949  0.5117200823761152  0.23076722379843062  1.0000
  H   H23       1.0  0.8547622953841694  0.5117313258820744  0.7307807561848065  1.0000
  H   H24       1.0  0.3547582895770987  0.488274709832467  0.7692231607147946  1.0000
  C   C1        1.0  0.5030735075546034  0.7939902652443462  0.4355889818744955  1.0000
  C   C2        1.0  0.0030779139049244  0.20600111173244778  0.0644003309993479  1.0000
  C   C3        1.0  0.4969299094300013  0.20601450031519866  0.5644165008915537  1.0000
  C   C4        1.0  0.9969193426224903  0.7939920077372163  0.9355926767170075  1.0000
  C   C5        1.0  0.4106759832474935  0.864858972071673  0.5045342313819178  1.0000
  C   C6        1.0  0.9106663751421281  0.1351314990164099  0.9954518245429114  1.0000
  C   C7        1.0  0.5893438611439732  0.13514746622541907  0.4954686281837368  1.0000
  C   C8        1.0  0.08932472108251942  0.8648624155692771  0.004541346288448308  1.0000
  C   C9        1.0  0.8787969742492122  0.6575891033853052  0.41733262942846483  1.0000
  C   C10       1.0  0.37881048320807764  0.34240645764364064  0.08266161182653782  1.0000
  C   C11       1.0  0.12120028249594127  0.34241398942981494  0.5826754765516499  1.0000
  C   C12       1.0  0.6211806130301553  0.6575866453251962  0.9173319857753555  1.0000
  C   C13       1.0  0.7376127132154336  0.7771747970081009  0.5455295241940661  1.0000
  C   C14       1.0  0.23761316485703787  0.22281728192237438  0.9544640659214281  1.0000
  C   C15       1.0  0.26239070378044005  0.22282995204648862  0.4544765484657134  1.0000
  C   C16       1.0  0.7623861450972242  0.7771742638270994  0.04552802565752505  1.0000
  C   C17       1.0  0.11187072516961649  0.6536738909524329  0.5432480974578482  1.0000
  C   C18       1.0  0.611881421581124  0.3463255126795203  0.9567466260598536  1.0000
  C   C19       1.0  0.8881306383652545  0.3463364403917027  0.4567585271678852  1.0000
  C   C20       1.0  0.3881076211284906  0.6536732716086107  0.043243984145583246  1.0000
  C   C21       1.0  0.019576693975452003  0.7560609363794412  0.6669572980813783  1.0000
  C   C22       1.0  0.5195943706417551  0.24393531159654458  0.8330400666321013  1.0000
  C   C23       1.0  0.9804164558347779  0.24394621452265133  0.33304867404061156  1.0000
  C   C24       1.0  0.480398779031944  0.7560609553135007  0.1669547733590591  1.0000
  C   C25       1.0  0.23793518861531743  0.689411075346747  0.668640945877435  1.0000
  C   C26       1.0  0.7379560019160607  0.3105849456869407  0.8313546405270529  1.0000
  C   C27       1.0  0.7620579611700505  0.31059690367715115  0.331364009580291  1.0000
  C   C28       1.0  0.2620350942499173  0.6894098465354187  0.16863574395883768  1.0000
  C   C29       1.0  0.21864326724297461  0.5400080297991748  0.4023395925281434  1.0000
  C   C30       1.0  0.7186408877152956  0.4599877461101797  0.09765422238280759  1.0000
  C   C31       1.0  0.7813888978209603  0.46000463734508656  0.5976692911893907  1.0000
  C   C32       1.0  0.281362529081072  0.5400046277583357  0.9023368525373456  1.0000
  C   C33       1.0  0.0963968756296367  0.539818613627773  0.3288002987906467  1.0000
  C   C34       1.0  0.5963870081575067  0.46017966211890377  0.1711954497460368  1.0000
  C   C35       1.0  0.9036291292220257  0.4601907575383707  0.6712120616820201  1.0000
  C   C36       1.0  0.4036184620879197  0.5398150640739844  0.828797294333917  1.0000
  I   I1        1.0  0.5497935779310409  0.9341184414798176  0.8302825001793009  1.0000
  I   I2        1.0  0.049810034150468106  0.0658720681337286  0.6697185222561686  1.0000
  I   I3        1.0  0.4501975186157737  0.06587658468585998  0.1697281038167304  1.0000
  I   I4        1.0  0.9501974897359275  0.9341207707447625  0.3302845136673157  1.0000
  N   N1        1.0  0.07533471807094122  0.6161842573757639  0.4600512227061486  1.0000
  N   N2        1.0  0.5753455655888616  0.38381091568232517  0.03994204761745833  1.0000
  N   N3        1.0  0.9246892332434911  0.3838260574482604  0.5399559918433781  1.0000
  N   N4        1.0  0.42465579781480056  0.6161790233370397  0.9600503076115602  1.0000
  N   N5        1.0  0.9359877612679242  0.7329954095627185  0.5853268295033587  1.0000
  N   N6        1.0  0.4360004806599703  0.2670003457597544  0.9146692840985581  1.0000
  N   N7        1.0  0.064005388569484  0.2670101181056879  0.4146799961596983  1.0000
  N   N8        1.0  0.5639885620814766  0.7329952250709085  0.08532185340153836  1.0000
  N   N9        1.0  0.5571179633847264  0.8543235724634001  0.5732557330892973  1.0000
  N   N10       1.0  0.057126629255172603  0.14566162562474713  0.9267347286708869  1.0000
  N   N11       1.0  0.4428875070784385  0.14568112707493694  0.42675210925442286  1.0000
  N   N12       1.0  0.9428706273044016  0.8543243213329748  0.07325740083038576  1.0000
  N   N13       1.0  0.7125677246386033  0.7376901977461898  0.4618670224719068  1.0000
  N   N14       1.0  0.21256626436508702  0.26230565233360886  0.038124416692482996  1.0000
  N   N15       1.0  0.28744390605506703  0.2623153959296545  0.5381374436408138  1.0000
  N   N16       1.0  0.7874268852479602  0.737688328270522  0.9618663945666769  1.0000
  N   N17       1.0  0.8847014528573212  0.6138087901699052  0.33835146690716306  1.0000
  N   N18       1.0  0.3847050334116702  0.38618118065581086  0.16164223808343783  1.0000
  N   N19       1.0  0.1152937504884974  0.38619029407723804  0.6616570032416789  1.0000
  N   N20       1.0  0.6152963299396107  0.6138151687735203  0.8383496524499918  1.0000
  N   N21       1.0  0.29516539915070444  0.6260748316793467  0.591196758506328  1.0000
  N   N22       1.0  0.7951759599320029  0.3739218581754925  0.9088009130335024  1.0000
  N   N23       1.0  0.7048400712623958  0.37393548315707636  0.4088104560186068  1.0000
  N   N24       1.0  0.20480692252258592  0.6260729010424626  0.09119065122892782  1.0000
