data_image0
_chemical_formula_structural       Ag4H40C40N20O12
_chemical_formula_sum              "Ag4 H40 C40 N20 O12"
_cell_length_a       3.826990781
_cell_length_b       15.236745999
_cell_length_c       19.739
_cell_angle_alpha    90.0
_cell_angle_beta     90.0
_cell_angle_gamma    90.0

_space_group_name_H-M_alt    "P 1"
_space_group_IT_number       1

loop_
  _space_group_symop_operation_xyz
  'x, y, z'

loop_
  _atom_site_type_symbol
  _atom_site_label
  _atom_site_symmetry_multiplicity
  _atom_site_fract_x
  _atom_site_fract_y
  _atom_site_fract_z
  _atom_site_occupancy
  Ag  Ag1       1.0  2.6130190989e-06  0.3697101730493983  0.75  1.0000
  Ag  Ag2       1.0  0.5000038174902528  0.130289630090985  0.24999949338872093  1.0000
  Ag  Ag3       1.0  0.0  0.6302894332313684  0.25  1.0000
  Ag  Ag4       1.0  0.4999985914520551  0.869709976189782  0.75  1.0000
  H   H1        1.0  0.865222883848908  0.7324871072033687  0.36483053852779085  1.0000
  H   H2        1.0  0.6347702774881583  0.7675129585258915  0.8648300319165116  1.0000
  H   H3        1.0  0.134776912074301  0.7324864508952587  0.1351699680834884  1.0000
  H   H4        1.0  0.3652242923968529  0.7675142711421117  0.6351689548609372  1.0000
  H   H5        1.0  0.134776912074301  0.2675144680017283  0.6351694614722093  1.0000
  H   H6        1.0  0.3652295184350507  0.23248533513864805  0.13516895486093722  1.0000
  H   H7        1.0  0.865222883848908  0.2675131553855081  0.8648305385277908  1.0000
  H   H8        1.0  0.6347781165454549  0.23248664775487535  0.3648300319165116  1.0000
  H   H9        1.0  0.9554765635062523  0.7420619862496949  0.4541754901464118  1.0000
  H   H10       1.0  0.5445192108499128  0.7579380794795654  0.9541744769238535  1.0000
  H   H11       1.0  0.0445232324169567  0.7420606736334676  0.0458250164648675  1.0000
  H   H12       1.0  0.45547535903509834  0.7579393920957856  0.5458240032423092  1.0000
  H   H13       1.0  0.0445232324169567  0.2579402452635193  0.5458240032423092  1.0000
  H   H14       1.0  0.4554805850732961  0.2420602141849741  0.0458240032423092  1.0000
  H   H15       1.0  0.9554765635062523  0.257938276339182  0.9541759967576908  1.0000
  H   H16       1.0  0.5445244368881035  0.2420608704930842  0.4541754901464118  1.0000
  H   H17       1.0  0.2791044089531098  0.7673318174869692  0.3926678149855648  1.0000
  H   H18       1.0  0.2208863434416486  0.732666935626064  0.8926673083742855  1.0000
  H   H19       1.0  0.7208953869700991  0.7673337864113067  0.10733269162571452  1.0000
  H   H20       1.0  0.7791082264433626  0.7326689045504011  0.6073316784031633  1.0000
  H   H21       1.0  0.7208927739510003  0.23266910141001776  0.6073321850144354  1.0000
  H   H22       1.0  0.7791108394624615  0.2673307017303657  0.1073321850144353  1.0000
  H   H23       1.0  0.2791070219722087  0.2326671324856804  0.8926678149855647  1.0000
  H   H24       1.0  0.2208941824989452  0.267332670654703  0.39266730837428554  1.0000
  H   H25       1.0  0.3476648040558743  0.4674042607566876  0.3013632909468598  1.0000
  H   H26       1.0  0.15233640041527957  0.032596198691806  0.8013632909468598  1.0000
  H   H27       1.0  0.6523349918673347  0.4674042607566876  0.1986377222756985  1.0000
  H   H28       1.0  0.847671234565226  0.0325948860755858  0.6986367090531405  1.0000
  H   H29       1.0  0.6523376048864336  0.5325960018321894  0.6986377222756985  1.0000
  H   H30       1.0  0.8476686215461271  0.9674034075889537  0.1986377222756985  1.0000
  H   H31       1.0  0.3476674170749732  0.5325946892159621  0.8013637975581319  1.0000
  H   H32       1.0  0.1523259483388841  0.9674060328214011  0.3013622777243015  1.0000
  H   H33       1.0  0.5901608154409601  0.4022899640384027  0.4083018389989377  1.0000
  H   H34       1.0  0.9098427979725017  0.09771049541009091  0.9083018389989379  1.0000
  H   H35       1.0  0.4098389804822489  0.4022899640384027  0.09169917422362063  1.0000
  H   H36       1.0  0.0901622239889051  0.09771115171820102  0.5916986676123415  1.0000
  H   H37       1.0  0.4098415935013477  0.5977109548585844  0.5916996808348928  1.0000
  H   H38       1.0  0.0901622239889051  0.9022884545625587  0.09169917422362063  1.0000
  H   H39       1.0  0.5901529763836635  0.5977102985504743  0.9083018389989379  1.0000
  H   H40       1.0  0.9098271198579084  0.9022910797950061  0.4082998125538282  1.0000
  C   C1        1.0  0.1926448330265771  0.630764600304474  0.40660975733320026  1.0000
  C   C2        1.0  0.3073433063490825  0.8692354654247865  0.906608744110642  1.0000
  C   C3        1.0  0.8073445108202364  0.6307639439963566  0.09339125588935812  1.0000
  C   C4        1.0  0.6926486505168299  0.8692367780410066  0.5933897360555279  1.0000
  C   C5        1.0  0.807352349877533  0.36923763120874054  0.5933902426667998  1.0000
  C   C6        1.0  0.6926512635359288  0.130762171931643  0.09339074927807903  1.0000
  C   C7        1.0  0.1926526720838737  0.36923566228440313  0.9066102639444723  1.0000
  C   C8        1.0  0.3073485323872802  0.1307647971640904  0.4066082374993698  1.0000
  C   C9        1.0  0.4410854628604355  0.5171681670428327  0.4667581944374106  1.0000
  C   C10       1.0  0.0589105155725207  0.9828305860702002  0.9667576878261315  1.0000
  C   C11       1.0  0.5589143330627735  0.5171688233509428  0.033242312173868506  1.0000
  C   C12       1.0  0.9410892803506882  0.9828325549945378  0.5332418055625894  1.0000
  C   C13       1.0  0.5589143330627735  0.4828334081622715  0.5332423121738685  1.0000
  C   C14       1.0  0.9410866673315894  0.017166394978112  0.0332418055625894  1.0000
  C   C15       1.0  0.4410802368222377  0.4828314392379341  0.9667592076599618  1.0000
  C   C16       1.0  0.0589105155725207  0.0171696765186695  0.4667566746035732  1.0000
  C   C17       1.0  0.0607709851705565  0.7228347837998257  0.40475150716854813  1.0000
  C   C18       1.0  0.4392223802433008  0.7771652819294346  0.904751000557269  1.0000
  C   C19       1.0  0.9392261977335536  0.7228347837998257  0.09524950605400312  1.0000
  C   C20       1.0  0.5607695766226115  0.7771659382375449  0.5952474796088936  1.0000
  C   C21       1.0  0.9392314237717514  0.2771667914052784  0.595248999442731  1.0000
  C   C22       1.0  0.5607774156799081  0.2228330117351049  0.095248999442731  1.0000
  C   C23       1.0  0.0607735981896553  0.2771654787890513  0.9047515071685482  1.0000
  C   C24       1.0  0.4392302193005975  0.2228343243513322  0.4047510005572691  1.0000
  C   C25       1.0  0.342749715131859  0.5037007245840854  0.3487902122701243  1.0000
  C   C26       1.0  0.157248876320196  0.9962980285289476  0.848788692436294  1.0000
  C   C27       1.0  0.6572526938104488  0.5037007245840854  0.15121181417498522  1.0000
  C   C28       1.0  0.8427561456412107  0.9962999974532851  0.6512092811185967  1.0000
  C   C29       1.0  0.6572553068295477  0.4963001943129015  0.6512118141749852  1.0000
  C   C30       1.0  0.842750919603013  0.0036996088274819008  0.151211307563706  1.0000
  C   C31       1.0  0.3427471021127602  0.4962988816966742  0.8487891990475731  1.0000
  C   C32       1.0  0.1572462633010971  0.0037015777518192  0.3487881858250148  1.0000
  C   C33       1.0  0.472060191252389  0.4670071943489092  0.4080090176807333  1.0000
  C   C34       1.0  0.0279384001996661  0.032991296175247015  0.9080080044581821  1.0000
  C   C35       1.0  0.5279343786326223  0.4670085069651365  0.09199300876437633  1.0000
  C   C36       1.0  0.9720613957235429  0.0329926087914671  0.591991488930546  1.0000
  C   C37       1.0  0.52793960467082  0.5329930682399608  0.5919930087643763  1.0000
  C   C38       1.0  0.9720666217617406  0.9670063411811827  0.09199250215309723  1.0000
  C   C39       1.0  0.4720575782332901  0.5329917556237405  0.9080080044581821  1.0000
  C   C40       1.0  0.0279331741614683  0.96700962272174  0.4080064846243446  1.0000
  N   N1        1.0  0.3035126203508867  0.5986803219400445  0.4658898627083445  1.0000
  N   N2        1.0  0.1964807450629706  0.9013190874810989  0.9658898627083448  1.0000
  N   N3        1.0  0.6964793365150257  0.5986803219400445  0.0341106439029346  1.0000
  N   N4        1.0  0.8035164378411395  0.9013217127135464  0.5341091240691044  1.0000
  N   N5        1.0  0.6964845625532233  0.4013219095731699  0.5341106439029346  1.0000
  N   N6        1.0  0.8035164378411395  0.0986772372591034  0.0341101372916555  1.0000
  N   N7        1.0  0.3035178463890844  0.4013199406488326  0.9658903693196237  1.0000
  N   N8        1.0  0.1964859711011684  0.0986798624915508  0.46588935609706544  1.0000
  N   N9        1.0  0.2017538176034606  0.5847409939487562  0.34762146005370204  1.0000
  N   N10       1.0  0.2982447738485945  0.915259071780504  0.8476204468311437  1.0000
  N   N11       1.0  0.7982433653006495  0.5847416502568663  0.1523800597801284  1.0000
  N   N12       1.0  0.7017576350937134  0.9152584154723871  0.652378539946298  1.0000
  N   N13       1.0  0.7982485913388473  0.4152605812563408  0.6523795531688564  1.0000
  N   N14       1.0  0.7017576350937134  0.0847392218840355  0.15237904655757722  1.0000
  N   N15       1.0  0.2017538176034606  0.4152586123320035  0.8476209534424228  1.0000
  N   N16       1.0  0.2982421608294956  0.08474184711649002  0.3476199402198716  1.0000
  N   N17       1.0  0.4999985914520551  0.177866717747861  0.7499994933887209  1.0000
  N   N18       1.0  2.6130190989e-06  0.32213374170063264  0.24999949338872093  1.0000
  N   N19       1.0  0.4999959784329561  0.8221342011491259  0.2500005066112791  1.0000
  N   N20       1.0  0.999999795923209  0.6778652082720171  0.7499989867774488  1.0000
  O   O1        1.0  0.3389007379999782  0.137402697409108  0.7039561274633996  1.0000
  O   O2        1.0  0.1611004664711757  0.3625977620393855  0.2039566340746717  1.0000
  O   O3        1.0  0.6610990579232308  0.1374040100253282  0.7960428593140492  1.0000
  O   O4        1.0  0.8388993294520333  0.3625964494231653  0.29604235270277013  1.0000
  O   O5        1.0  0.6610886058468424  0.8625995341041062  0.29604437914787957  1.0000
  O   O6        1.0  0.8389123945475205  0.6374018442413745  0.7960443791478796  1.0000
  O   O7        1.0  0.3389111900763666  0.8625995341041062  0.2039556208521205  1.0000
  O   O8        1.0  0.1610795623183918  0.6373985627008167  0.7039541010182901  1.0000
  O   O9        1.0  0.4999985914520551  0.2624707401608219  0.75  1.0000
  O   O10       1.0  2.6130190989e-06  0.23752906297956144  0.2500005066112791  1.0000
  O   O11       1.0  0.4999959784329561  0.737530178736165  0.2500005066112791  1.0000
  O   O12       1.0  2.6130190989e-06  0.7624698869930953  0.7499979735548905  1.0000
