data_image0
_chemical_formula_structural       Zr2H52C40N8O16
_chemical_formula_sum              "Zr2 H52 C40 N8 O16"
_cell_length_a       8.39143850598497
_cell_length_b       10.24434282424558
_cell_length_c       14.870139081404465
_cell_angle_alpha    100.9948937448612
_cell_angle_beta     90.00217128477873
_cell_angle_gamma    114.17258841389616

_space_group_name_H-M_alt    "P 1"
_space_group_IT_number       1

loop_
  _space_group_symop_operation_xyz
  'x, y, z'

loop_
  _atom_site_type_symbol
  _atom_site_label
  _atom_site_symmetry_multiplicity
  _atom_site_fract_x
  _atom_site_fract_y
  _atom_site_fract_z
  _atom_site_occupancy
  Zr  Zr1       1.0  0.28503261780807787  0.9999937983727919  0.7499845931173821  1.0000
  Zr  Zr2       1.0  0.7149670484680541  5.1476959796999e-06  0.2500158405898816  1.0000
  H   H1        1.0  0.08604861995876686  0.7950874324040169  0.9961373645356486  1.0000
  H   H2        1.0  0.2909115967475415  0.2049429659592761  0.5038418943270456  1.0000
  H   H3        1.0  0.913951495710357  0.2049147961401516  0.003863504129476795  1.0000
  H   H4        1.0  0.7090879728659021  0.7950581704162546  0.4961581571217763  1.0000
  H   H5        1.0  0.7004775903601583  0.6431147167826906  0.7557673616065441  1.0000
  H   H6        1.0  0.05719185963209846  0.35675314726384505  0.7441957914283674  1.0000
  H   H7        1.0  0.2995220759159736  0.35688422928608776  0.24423307210071235  1.0000
  H   H8        1.0  0.9428083555966893  0.6432468969035199  0.25580344281169687  1.0000
  H   H9        1.0  0.5827671027994938  0.5926014683135322  0.8528029082469287  1.0000
  H   H10       1.0  0.9900525890208769  0.4073553325906971  0.6471814512655242  1.0000
  H   H11       1.0  0.41723311146363784  0.407398573877181  0.14719699822096993  1.0000
  H   H12       1.0  0.009946433571222692  0.5926447096395576  0.35281845519482846  1.0000
  H   H13       1.0  0.3193831042505622  0.4225932660229432  0.7563163073055958  1.0000
  H   H14       1.0  0.8967213846885544  0.5773817203546586  0.7437392621177918  1.0000
  H   H15       1.0  0.6806183026492505  0.577406778104887  0.24368292694202145  1.0000
  H   H16       1.0  0.10327882860891441  0.42261831985940296  0.2562613165779409  1.0000
  H   H17       1.0  0.4926855146030961  0.383716123736896  0.7113848447707837  1.0000
  H   H18       1.0  0.10893993339570336  0.6162104598941909  0.7886086238365022  1.0000
  H   H19       1.0  0.5073164383523975  0.6162850125595724  0.2886152066931372  1.0000
  H   H20       1.0  0.8910590891964035  0.3837895823360569  0.21139128262384324  1.0000
  H   H21       1.0  0.5149517703406802  0.5106610988406857  0.5875725127017046  1.0000
  H   H22       1.0  0.004315024113957093  0.48918501909533063  0.912423531899371  1.0000
  H   H23       1.0  0.4850501826148205  0.48934003745578286  0.41242753876222327  1.0000
  H   H24       1.0  0.995684643127831  0.5108139289500997  0.08757622958005837  1.0000
  H   H25       1.0  0.2880453628523938  0.39818211502606  0.5897705303648805  1.0000
  H   H26       1.0  0.8899257039262027  0.6017131960016685  0.9102646573158351  1.0000
  H   H27       1.0  0.7119560440474261  0.6018179291017702  0.41022870388274396  1.0000
  H   H28       1.0  0.11007515402095441  0.3982857500275756  0.08973577639897459  1.0000
  H   H29       1.0  0.23860444218497884  0.540573578078188  0.5056037814138532  1.0000
  H   H30       1.0  0.6980149489946612  0.45937471312765876  0.9943975041512159  1.0000
  H   H31       1.0  0.7613957720781458  0.459426464112525  0.4943961250540453  1.0000
  H   H32       1.0  0.301985361931152  0.5406231387562954  0.005602784575117396  1.0000
  H   H33       1.0  0.3599474401734  0.7352811133891491  0.5341107450094993  1.0000
  H   H34       1.0  0.6246304354918664  0.264672104341237  0.9659078478602935  1.0000
  H   H35       1.0  0.6400515824187067  0.26471892884109854  0.46588916145085335  1.0000
  H   H36       1.0  0.37537042245529045  0.735326841688007  0.03409258585451616  1.0000
  H   H37       1.0  0.15351088028477736  0.6527141345321326  0.5788351319248121  1.0000
  H   H38       1.0  0.5007943694011914  0.34725995857562  0.9211584725763371  1.0000
  H   H39       1.0  0.8464887859913546  0.347284811536646  0.4211653017824445  1.0000
  H   H40       1.0  0.49920713222999785  0.6527378912921477  0.07884248838537637  1.0000
  H   H41       1.0  0.6481299123736123  0.8253436144777808  0.9151370891134716  1.0000
  H   H42       1.0  0.8225665604496443  0.17464400552572099  0.5848240309546142  1.0000
  H   H43       1.0  0.3518703018895195  0.1746564277129323  0.08486281735442697  1.0000
  H   H44       1.0  0.17743365381348752  0.8253560366649921  0.4151758755132845  1.0000
  H   H45       1.0  0.4852220728654972  0.8868163518978209  0.8903484513682256  1.0000
  H   H46       1.0  0.5981954950548384  0.11316003850091512  0.609609041416668  1.0000
  H   H47       1.0  0.5147781423632978  0.1131836922695442  0.10965078287184578  1.0000
  H   H48       1.0  0.4018035285029242  0.8868400057059844  0.3903901928158504  1.0000
  H   H49       1.0  0.6873562724618125  0.9452513155555167  0.8377175687039367  1.0000
  H   H50       1.0  0.7419562759402466  0.0547552175721577  0.6622341809893298  1.0000
  H   H51       1.0  0.312645132506681  0.05474872461901729  0.16228300999934928  1.0000
  H   H52       1.0  0.2580433913015482  0.9452437304732725  0.33776558049009237  1.0000
  C   C1        1.0  0.11612719372383397  0.977189241889242  0.9353637171802658  1.0000
  C   C2        1.0  0.1389746255736668  0.0228036762451254  0.5645904376213408  1.0000
  C   C3        1.0  0.883870092107216  0.0228097101885538  0.06463469982838888  1.0000
  C   C4        1.0  0.8610261347451457  0.9771974581142261  0.4354102860628685  1.0000
  C   C5        1.0  0.0673425736437068  0.0956731810708078  0.9389722754029248  1.0000
  C   C6        1.0  0.9717360195295014  0.9043275727016673  0.5610168868754994  1.0000
  C   C7        1.0  0.9326552592086867  0.9043268651522779  0.061026286594206176  1.0000
  C   C8        1.0  0.028264740789310804  0.0956735616576836  0.4389838368087096  1.0000
  C   C9        1.0  0.13625053128861  0.202746667416676  0.8776478662731646  1.0000
  C   C10       1.0  0.933596702404735  0.7972596048943926  0.6223510998668329  1.0000
  C   C11       1.0  0.8637484913034899  0.7972533748135717  0.12235204018718088  1.0000
  C   C12       1.0  0.06640351185838972  0.2027404372963275  0.3776488066010656  1.0000
  C   C13       1.0  0.04716450907913848  0.884565455314771  0.9970540773287622  1.0000
  C   C14       1.0  0.1625794721923342  0.1154518916209  0.502920984864133  1.0000
  C   C15       1.0  0.9528368987863446  0.11543459078971101  0.002944484691020894  1.0000
  C   C16       1.0  0.837421386720486  0.884547056384996  0.4970787766228426  1.0000
  C   C17       1.0  0.4189457108041736  0.7295674916976296  0.713938628550842  1.0000
  C   C18       1.0  0.6892638953843075  0.27040910318509503  0.7860420220797549  1.0000
  C   C19       1.0  0.5810527638009262  0.2704314544106765  0.2860618051488614  1.0000
  C   C20       1.0  0.3107375105498491  0.7295909389660835  0.21395788439569685  1.0000
  C   C21       1.0  0.5701958527353101  0.6075203405222355  0.7823491277566886  1.0000
  C   C22       1.0  0.9625572283843767  0.3924301442786629  0.7176292573523353  1.0000
  C   C23       1.0  0.4298043615278218  0.3924797016684778  0.21765077871121005  1.0000
  C   C24       1.0  0.03744353290009173  0.6075709920573403  0.28237079410403954  1.0000
  C   C25       1.0  0.4396840633732139  0.4665897314535313  0.7216514774669063  1.0000
  C   C26       1.0  0.9730591880547621  0.5333547666073031  0.778365848138776  1.0000
  C   C27       1.0  0.5603166988769176  0.5334114068591234  0.27834790176164137  1.0000
  C   C28       1.0  0.026940478221362706  0.4666441794614684  0.22163458556848062  1.0000
  C   C29       1.0  0.40125641096877734  0.4925266784779367  0.6284322997169269  1.0000
  C   C30       1.0  0.9087471957519428  0.5073478814484818  0.8715874331318003  1.0000
  C   C31       1.0  0.5987455429523791  0.5074744597951762  0.3715670795191669  1.0000
  C   C32       1.0  0.0912524705241822  0.4926510646202971  0.12841300057545618  1.0000
  C   C33       1.0  0.2731183756391005  0.6388686618709158  0.5599931737601763  1.0000
  C   C34       1.0  0.6342230395013004  0.3610762121136517  0.940011379689025  1.0000
  C   C35       1.0  0.7268800999316626  0.361130286214042  0.4400065877116929  1.0000
  C   C36       1.0  0.3657784640612079  0.6389216417074196  0.05998823681702697  1.0000
  C   C37       1.0  0.5860431421848276  0.8529550254482317  0.861358467223283  1.0000
  C   C38       1.0  0.7328700070896091  0.1470420283419926  0.6385948763845376  1.0000
  C   C39       1.0  0.4139570720783041  0.14704501674248147  0.13864143924462263  1.0000
  C   C40       1.0  0.2671284694468099  0.8529569217196169  0.3614042128595044  1.0000
  N   N1        1.0  0.36014697349240515  0.6203652673395367  0.6388254320957144  1.0000
  N   N2        1.0  0.7397687950893682  0.37955239531027724  0.8611890149100174  1.0000
  N   N3        1.0  0.6398537877920631  0.3796358689964663  0.3611746193606605  1.0000
  N   N4        1.0  0.26023206285778844  0.6204465507189666  0.13881141880479214  1.0000
  N   N5        1.0  0.5093000608674175  0.7235517932932041  0.7869401540913186  1.0000
  N   N6        1.0  0.7855899823996141  0.2764504044635316  0.7130237006328598  1.0000
  N   N7        1.0  0.4907013450667463  0.2764482488579745  0.21305975238413302  1.0000
  N   N8        1.0  0.2144108765132061  0.7235485435423571  0.28697606085411553  1.0000
  O   O1        1.0  0.3874453726805386  0.842850838771028  0.7158255610298239  1.0000
  O   O2        1.0  0.5444318301393736  0.15719189954975826  0.784122957093025  1.0000
  O   O3        1.0  0.6125548415825861  0.1571492034196851  0.2841743454380817  1.0000
  O   O4        1.0  0.45556957579479024  0.8428081426014202  0.21587694938242652  1.0000
  O   O5        1.0  0.1924544878711529  0.15960395443117648  0.8001468108394217  1.0000
  O   O6        1.0  0.03290397099773657  0.8404915554296011  0.6998724006193624  1.0000
  O   O7        1.0  0.807548560092684  0.8403993721325165  0.19985285837361735  1.0000
  O   O8        1.0  0.9670950515943632  0.15950848680064666  0.3001275058409901  1.0000
  O   O9        1.0  0.22827635446097366  0.95420850986239  0.8770841792168794  1.0000
  O   O10       1.0  0.27411251132824094  0.045780604934428495  0.6228640559190167  1.0000
  O   O11       1.0  0.7717221220754524  0.0457904401992195  0.12291491002715557  1.0000
  O   O12       1.0  0.7258865102981958  0.9542194353191671  0.37713652276916304  1.0000
  O   O13       1.0  0.1383471991950742  0.3272000511323228  0.8997151973509572  1.0000
  O   O14       1.0  0.8112791939597415  0.6728024554626799  0.6003142589565795  1.0000
  O   O15       1.0  0.8616529174397061  0.6728021793884978  0.100284999086341  1.0000
  O   O16       1.0  0.18872037565370192  0.32719868091285786  0.39968579249224934  1.0000
