data_image0
_chemical_formula_structural       Zr6H86C124N6O32
_chemical_formula_sum              "Zr6 H86 C124 N6 O32"
_cell_length_a       14.913242100245554
_cell_length_b       23.560405492641095
_cell_length_c       40.71765557487891
_cell_angle_alpha    86.14033186343798
_cell_angle_beta     82.21918992460455
_cell_angle_gamma    90.04409705929392

_space_group_name_H-M_alt    "P 1"
_space_group_IT_number       1

loop_
  _space_group_symop_operation_xyz
  'x, y, z'

loop_
  _atom_site_type_symbol
  _atom_site_label
  _atom_site_symmetry_multiplicity
  _atom_site_fract_x
  _atom_site_fract_y
  _atom_site_fract_z
  _atom_site_occupancy
  Zr  Zr1       1.0  0.9515542305016922  0.08174354923942671  0.0413674178638033  1.0000
  Zr  Zr2       1.0  0.9873270529885828  0.9175415514448344  0.966288793325944  1.0000
  Zr  Zr3       1.0  0.0698531661557169  0.9513842110258249  0.04151408909621781  1.0000
  Zr  Zr4       1.0  0.8693244227550423  0.04806172799412421  0.9676979063695371  1.0000
  Zr  Zr5       1.0  0.1079964171786045  0.04734619921894279  0.9693760671985601  1.0000
  Zr  Zr6       1.0  0.8337443171347588  0.9492357965725233  0.03714791502244449  1.0000
  H   H1        1.0  0.986781466645496  0.1407575226931712  0.9720919413630683  1.0000
  H   H2        1.0  0.1707714516106194  0.9355299781827  0.977176867886712  1.0000
  H   H3        1.0  0.7972265654482482  0.9393335939346344  0.9699283320872994  1.0000
  H   H4        1.0  0.9161132110083867  0.9866132134901523  0.0891910693489493  1.0000
  H   H5        1.0  0.2660793322831267  0.06831911338075258  0.9939540197219259  1.0000
  H   H6        1.0  0.0166885278633089  0.904510096418136  0.10680542621225442  1.0000
  H   H7        1.0  0.8184016125448821  0.8541662754490035  0.07580177449565892  1.0000
  H   H8        1.0  0.1570360851725283  0.1414417401451615  0.931117220414592  1.0000
  H   H9        1.0  0.8617530588086595  0.09279641194418534  0.9053136153433101  1.0000
  H   H10       1.0  0.6926257901203458  0.07181139131805743  0.9790845883860015  1.0000
  H   H11       1.0  0.6572917789429057  0.9358360860007265  0.0184124598627378  1.0000
  H   H12       1.0  0.1817312728802705  0.026884056474024504  0.9072421112290456  1.0000
  H   H13       1.0  0.14466147889467607  0.9620983690902847  0.9213607590952791  1.0000
  H   H14       1.0  0.8648965136629913  0.0913019567559985  0.10344148918485979  1.0000
  H   H15       1.0  0.6944061927804128  0.0094366278367133  0.06899439707540012  1.0000
  H   H16       1.0  0.8343195637464121  0.1443037150157309  0.9284759753875349  1.0000
  H   H17       1.0  0.1254893433098658  0.8739453345483527  0.9284258585933642  1.0000
  H   H18       1.0  0.2469802814515774  0.9257087088245443  0.033446729300408214  1.0000
  H   H19       1.0  0.2386391412217748  0.0029212261234051  0.008340443287956098  1.0000
  H   H20       1.0  0.6996764658409591  0.9999092391307727  0.0012601988207236886  1.0000
  H   H21       1.0  0.937958646306825  0.8872957350196558  0.08479866331303748  1.0000
  H   H22       1.0  0.7835715623817592  0.0382144739443291  0.08082954366240361  1.0000
  H   H23       1.0  0.6331804100612713  0.5028515967206246  0.0007116564606945993  1.0000
  H   H24       1.0  0.29912713369153476  0.49737292070685873  0.0077453402390688045  1.0000
  H   H25       1.0  0.36300449603040613  0.9912525565185035  0.498090273850508  1.0000
  H   H26       1.0  0.6851825173301692  0.005564022662177601  0.5094409209646714  1.0000
  H   H27       1.0  0.3375351722464898  0.9011619002400835  0.5157161255577876  1.0000
  H   H28       1.0  0.1997436011067677  0.863935885263757  0.5510153300665905  1.0000
  H   H29       1.0  0.42771628650690013  0.974871946453874  0.5998366054913333  1.0000
  H   H30       1.0  0.33808349813786975  0.959232684904471  0.6553506589104288  1.0000
  H   H31       1.0  0.19100794396288018  0.9315379465771088  0.689392652567463  1.0000
  H   H32       1.0  0.0956202655010685  0.8659561620837266  0.6042734851699905  1.0000
  H   H33       1.0  0.8785874583286811  0.8274842530386053  0.61640604996132  1.0000
  H   H34       1.0  0.7739048390441354  0.8341289092919836  0.573747319828513  1.0000
  H   H35       1.0  0.7449913144208364  0.966798457702431  0.6652173219959749  1.0000
  H   H36       1.0  0.6262219235399087  0.0206110076365249  0.6381427249524094  1.0000
  H   H37       1.0  0.5437294076519876  0.03827405520570441  0.5897746548907463  1.0000
  H   H38       1.0  0.6614549432585122  0.8894089979831181  0.5462717328630262  1.0000
  H   H39       1.0  0.028659627662570096  0.9917244576628265  0.3909912974681832  1.0000
  H   H40       1.0  0.9016745073079235  0.9601712834907444  0.43453794046217803  1.0000
  H   H41       1.0  0.8597634574728303  0.11864813606933211  0.3500798821964111  1.0000
  H   H42       1.0  0.7042590204911647  0.1359255400060349  0.3814932687755359  1.0000
  H   H43       1.0  0.5846364155428887  0.10971910047459231  0.42775125389138685  1.0000
  H   H44       1.0  0.7475288266594333  0.9720664974471235  0.46119145567032405  1.0000
  H   H45       1.0  0.3500014055550765  0.013238020307909402  0.3126897640594066  1.0000
  H   H46       1.0  0.467357234584007  0.9914104131099323  0.34934179368113394  1.0000
  H   H47       1.0  0.2076281019347732  0.114470016841814  0.38659060530694944  1.0000
  H   H48       1.0  0.2699247158024249  0.13090563654880327  0.4374075176036881  1.0000
  H   H49       1.0  0.37117604262704856  0.09747727933336853  0.4782706244643222  1.0000
  H   H50       1.0  0.5144308583569739  0.9912389126607549  0.40695503429703445  1.0000
  H   H51       1.0  0.8415423601612133  0.24606659260558672  0.0470446311631534  1.0000
  H   H52       1.0  0.7650878040506655  0.33952135974464426  0.05317195227944181  1.0000
  H   H53       1.0  0.6920562832206015  0.21187841503365948  0.9673185275220318  1.0000
  H   H54       1.0  0.5804692504056418  0.2823116679248869  0.9496627732050413  1.0000
  H   H55       1.0  0.4980290259830724  0.37229021165689596  0.9578669759810836  1.0000
  H   H56       1.0  0.6509947135884885  0.4083561095399589  0.03665692023260901  1.0000
  H   H57       1.0  0.0961282778129586  0.7580839869115436  0.06268345485289473  1.0000
  H   H58       1.0  0.17180582269344308  0.6646510731560654  0.0697395298856733  1.0000
  H   H59       1.0  0.22720133128425596  0.7808023506056331  0.961742230067358  1.0000
  H   H60       1.0  0.3490564529195908  0.7141511844735221  0.9414837713420708  1.0000
  H   H61       1.0  0.4373423173822957  0.6269608032665984  0.9509253858598825  1.0000
  H   H62       1.0  0.28202531669303704  0.5933291353809836  0.047433956048621405  1.0000
  H   H63       1.0  0.46529508921930324  0.6309655241449477  0.04788719213303949  1.0000
  H   H64       1.0  0.5429367777194614  0.7212292738837577  0.05429913947556742  1.0000
  H   H65       1.0  0.6654416481196891  0.5956106257089218  0.9652557477277455  1.0000
  H   H66       1.0  0.7919489557843561  0.6639774809492778  0.9470499365197825  1.0000
  H   H67       1.0  0.8696805688665917  0.7553530894701339  0.953544175367938  1.0000
  H   H68       1.0  0.6689217378202272  0.7904376331251869  0.03557510692824911  1.0000
  H   H69       1.0  0.4396505118529462  0.3629627510773048  0.0531030918060651  1.0000
  H   H70       1.0  0.35528427819920694  0.27193044449212067  0.0644215658263789  1.0000
  H   H71       1.0  0.2878731959958643  0.40988793038061294  0.9727997766123407  1.0000
  H   H72       1.0  0.1745752698013732  0.3429194524989683  0.95791344930322  1.0000
  H   H73       1.0  0.09735018121472187  0.2490244246128412  0.9666242366137467  1.0000
  H   H74       1.0  0.240362436336838  0.204659458466864  0.04989071920704189  1.0000
  H   H75       1.0  0.7717847100488767  0.024115058917409695  0.8655039131647159  1.0000
  H   H76       1.0  0.7673377705549739  0.013864532812895902  0.8053147453064325  1.0000
  H   H77       1.0  0.9696321378779941  0.8920024190389028  0.8677302254305772  1.0000
  H   H78       1.0  0.029594099778236696  0.8475323441941143  0.8158348086190016  1.0000
  H   H79       1.0  0.03812000737419649  0.8445507447930108  0.7544336651121313  1.0000
  H   H80       1.0  0.8261102733906539  0.9680961605312106  0.7528665223175821  1.0000
  H   H81       1.0  0.9734141997234288  0.13752158103167028  0.26143995682024007  1.0000
  H   H82       1.0  0.950627042596885  0.1419448940432915  0.20184725873609471  1.0000
  H   H83       1.0  0.21095202618135292  0.03581413071229629  0.2404787896823137  1.0000
  H   H84       1.0  0.251604516088797  0.0013475007090377996  0.1837850313301104  1.0000
  H   H85       1.0  0.21280098908020756  0.9923586221868493  0.1265925816694491  1.0000
  H   H86       1.0  0.9920395230041237  0.1080901074018996  0.14519625678462228  1.0000
  C   C1        1.0  0.1201891569395244  0.16367924658172234  0.011389883632574503  1.0000
  C   C2        1.0  0.8183025647811135  0.16796795506947151  0.004078710779481311  1.0000
  C   C3        1.0  0.0725748753113891  0.04024893075092711  0.099634499216414  1.0000
  C   C4        1.0  0.11042137205591018  0.8302588375173485  0.00797366839475441  1.0000
  C   C5        1.0  0.8205791003113417  0.8329146882569346  0.9982203505566076  1.0000
  C   C6        1.0  0.8784070356952539  0.9648721708714163  0.9056298538007894  1.0000
  C   C7        1.0  0.5157172632025321  0.4489699575735102  0.0027049041411757054  1.0000
  C   C8        1.0  0.4199748926645909  0.44720489991567536  0.006404561104140811  1.0000
  C   C9        1.0  0.37281077653998546  0.4985291978803872  0.0060769220244481096  1.0000
  C   C10       1.0  0.41696138773154695  0.5512908112780649  0.003728484428876313  1.0000
  C   C11       1.0  0.5119746879266599  0.5529594895172921  0.0033557342776191104  1.0000
  C   C12       1.0  0.55953161266509  0.5016918055692159  0.0021338278339654965  1.0000
  C   C13       1.0  0.10204054842301247  0.08076753976458662  0.2900430603656687  1.0000
  C   C14       1.0  0.18539622708584597  0.0676930678241519  0.3324386340967038  1.0000
  C   C15       1.0  0.031135042025390195  0.07041824181173692  0.3429688998285911  1.0000
  C   C16       1.0  0.9440900212292361  0.9040478840211604  0.7137284682528816  1.0000
  C   C17       1.0  0.8903063889106447  0.8966811358832562  0.6648533255858524  1.0000
  C   C18       1.0  0.0419059264593358  0.8922894556323016  0.6667726543510213  1.0000
  C   C19       1.0  0.4931815482989208  0.0178381744243552  0.4735006578179934  1.0000
  C   C20       1.0  0.5867377406198883  0.019432980675453796  0.47577307381817485  1.0000
  C   C21       1.0  0.6139352237704898  0.0011270377994847995  0.5065154366728919  1.0000
  C   C22       1.0  0.55483731810164  0.9788726320376993  0.5340685251449315  1.0000
  C   C23       1.0  0.4623497176289533  0.9721192674695015  0.530615150785259  1.0000
  C   C24       1.0  0.4347604342357627  0.9935966067324034  0.500604010950191  1.0000
  C   C25       1.0  0.39107047650021093  0.9432743670779898  0.55497604912199  1.0000
  C   C26       1.0  0.32604859218415067  0.9095619288784605  0.5419519192109234  1.0000
  C   C27       1.0  0.249647873873279  0.8884144340400295  0.5615784051003416  1.0000
  C   C28       1.0  0.23305344303260253  0.8992338799433598  0.5957193160374672  1.0000
  C   C29       1.0  0.3012657231660825  0.9286494404392441  0.6098598656230436  1.0000
  C   C30       1.0  0.37918041113089623  0.950137698966202  0.588882172632637  1.0000
  C   C31       1.0  0.2853825327143937  0.9381876576022847  0.6442881435046104  1.0000
  C   C32       1.0  0.2042812789153174  0.9229683460214914  0.6632148559807121  1.0000
  C   C33       1.0  0.1339695081593888  0.8980063074630708  0.6484090893600296  1.0000
  C   C34       1.0  0.1498673881451111  0.8850405848911291  0.6154162078376686  1.0000
  C   C35       1.0  0.8178518466089385  0.897166192478636  0.6432977209979214  1.0000
  C   C36       1.0  0.8254110423317441  0.8592309276999972  0.617317638757534  1.0000
  C   C37       1.0  0.7681001258446827  0.8634016531586821  0.5935789867640722  1.0000
  C   C38       1.0  0.70352543645037  0.9076705929143856  0.5933465130398474  1.0000
  C   C39       1.0  0.6942344362370818  0.9453020176458296  0.6198723011257457  1.0000
  C   C40       1.0  0.7507231242963072  0.9378500706062453  0.6452155473479024  1.0000
  C   C41       1.0  0.6332510176949244  0.9913970908307661  0.6182657990208399  1.0000
  C   C42       1.0  0.5866508104189448  0.0009654001007461998  0.591403745866053  1.0000
  C   C43       1.0  0.5959332937462279  0.9640177919294218  0.5649116732917818  1.0000
  C   C44       1.0  0.6527168691164958  0.9177784600204932  0.5665809142061208  1.0000
  C   C45       1.0  0.9508765633348872  0.05671678882858091  0.3678237221786063  1.0000
  C   C46       1.0  0.9629056574098414  0.0121391490633229  0.3922124993524463  1.0000
  C   C47       1.0  0.8930962515486273  0.9952407038665853  0.4163477248253074  1.0000
  C   C48       1.0  0.8091553608088445  0.023971892991937697  0.41858532629157  1.0000
  C   C49       1.0  0.7971608804750261  0.0700985350011578  0.39474565246175086  1.0000
  C   C50       1.0  0.8687630306103173  0.0844787413397228  0.36878959235115627  1.0000
  C   C51       1.0  0.7139636900945516  0.09994757871561431  0.3989488354948989  1.0000
  C   C52       1.0  0.646622463520238  0.08507654449769568  0.4248017897525358  1.0000
  C   C53       1.0  0.6570678216806272  0.03812391952720869  0.44791362325361916  1.0000
  C   C54       1.0  0.7379064581689079  0.0086122446807977  0.44411701452474267  1.0000
  C   C55       1.0  0.26962510966868797  0.064327169605555  0.34798499133771094  1.0000
  C   C56       1.0  0.34593222346101976  0.0312875787358351  0.3368069526217781  1.0000
  C   C57       1.0  0.41119431905087833  0.0192371674811938  0.3572982380703706  1.0000
  C   C58       1.0  0.4046669077044172  0.0402158973980917  0.3895448172226779  1.0000
  C   C59       1.0  0.3325733725875395  0.07862417580589212  0.39902837976435984  1.0000
  C   C60       1.0  0.2662414627750779  0.0891807971418643  0.37799916602657657  1.0000
  C   C61       1.0  0.32379625954278163  0.10072733408666322  0.4308209550547772  1.0000
  C   C62       1.0  0.37950968070467167  0.08208460758116591  0.4533841004022676  1.0000
  C   C63       1.0  0.44782296870155147  0.0411227972064125  0.44525740503404887  1.0000
  C   C64       1.0  0.4617036802114853  0.0222273112345661  0.4134451598875443  1.0000
  C   C65       1.0  0.771377309160492  0.22377098142228394  0.0065590363196150955  1.0000
  C   C66       1.0  0.7918553640478975  0.26021271459165973  0.031053984041868415  1.0000
  C   C67       1.0  0.7493269024157315  0.31168669710341845  0.034315831087532396  1.0000
  C   C68       1.0  0.6835425598049696  0.3293845117033172  0.013676818494694504  1.0000
  C   C69       1.0  0.6626534365697127  0.2925745772737257  0.9889746003123818  1.0000
  C   C70       1.0  0.7081516422275271  0.2401512395088048  0.985906184833901  1.0000
  C   C71       1.0  0.5957375484900282  0.30981040340361693  0.968761186537847  1.0000
  C   C72       1.0  0.5499007782744698  0.35985476487092427  0.9733187630800445  1.0000
  C   C73       1.0  0.5688386598579386  0.3962600274641446  0.9981675305862368  1.0000
  C   C74       1.0  0.6361234050718494  0.3811518938151863  0.017353151650212294  1.0000
  C   C75       1.0  0.15631659624695257  0.7741794830814186  0.011420366637239016  1.0000
  C   C76       1.0  0.14189662568334424  0.7417322790435107  0.04236800243308643  1.0000
  C   C77       1.0  0.1846325418523378  0.6904452962239772  0.04626825941297601  1.0000
  C   C78       1.0  0.24805660739217927  0.6708582355288257  0.020322752401845903  1.0000
  C   C79       1.0  0.26596095955362387  0.7051374141715744  0.9896095960188802  1.0000
  C   C80       1.0  0.2160307422829248  0.7555991247393762  0.9854588253008602  1.0000
  C   C81       1.0  0.3346059372674759  0.6878506934107379  0.9647278405226699  1.0000
  C   C82       1.0  0.38353093953471523  0.639358112601961  0.9699147949695616  1.0000
  C   C83       1.0  0.3641855869055064  0.6040984670351647  0.9998349013638331  1.0000
  C   C84       1.0  0.2964952458945475  0.6196700738419523  0.02418682445444631  1.0000
  C   C85       1.0  0.5601849895194917  0.6071924295046928  0.005802524228783991  1.0000
  C   C86       1.0  0.5262143378241433  0.6436632667772529  0.031097453073286395  1.0000
  C   C87       1.0  0.5695472148763088  0.693884817262955  0.03471412133993112  1.0000
  C   C88       1.0  0.6494967597092725  0.7110088421396981  0.013265556648534009  1.0000
  C   C89       1.0  0.684891030221813  0.6744742630397127  0.9878506983018411  1.0000
  C   C90       1.0  0.6388000010025933  0.6228461592109724  0.9848996673634218  1.0000
  C   C91       1.0  0.7649542104770433  0.6916397569833419  0.9664087307708585  1.0000
  C   C92       1.0  0.8081911535868257  0.742078410292855  0.9698469096916824  1.0000
  C   C93       1.0  0.7732558439317003  0.7782067188459009  0.9950262437892334  1.0000
  C   C94       1.0  0.6952812046221908  0.7625590130380788  0.016258313571221098  1.0000
  C   C95       1.0  0.3690044727984442  0.3926766644220478  0.0120249574510538  1.0000
  C   C96       1.0  0.3876174722316037  0.3527006894248571  0.0379956499559171  1.0000
  C   C97       1.0  0.3406943768432811  0.30201350990761  0.044292064260510224  1.0000
  C   C98       1.0  0.27338979871818486  0.28759845201794587  0.024660957906341697  1.0000
  C   C99       1.0  0.2542632988408116  0.32751524821298966  0.9983596874786401  1.0000
  C   C100      1.0  0.30229158429735037  0.37993056579067996  0.9930337692101573  1.0000
  C   C101      1.0  0.18914876615129123  0.3126244220064934  0.9779378850895596  1.0000
  C   C102      1.0  0.14610047573909668  0.26047019828327933  0.9828557235137012  1.0000
  C   C103      1.0  0.16465731053312987  0.22116237175315234  0.0090091004935218  1.0000
  C   C104      1.0  0.22611841494018137  0.2348511803537789  0.029754357671755806  1.0000
  C   C105      1.0  0.8714252688076201  0.9581291438014505  0.8699131180111762  1.0000
  C   C106      1.0  0.8142530051316114  0.9931334056468799  0.8521935389474252  1.0000
  C   C107      1.0  0.8118368545901331  0.9872865998729735  0.8188880327924934  1.0000
  C   C108      1.0  0.8681276720478195  0.947438751568839  0.8013781858433404  1.0000
  C   C109      1.0  0.9265701225694514  0.9125070764574872  0.819355018624016  1.0000
  C   C110      1.0  0.9255339788221306  0.918099726590576  0.8537139377765968  1.0000
  C   C111      1.0  0.9860360381066116  0.874285714643115  0.8019513442946433  1.0000
  C   C112      1.0  0.9902702825737322  0.8721390598913104  0.7681819465669405  1.0000
  C   C113      1.0  0.9320372403080128  0.9062466600633099  0.7502640733508059  1.0000
  C   C114      1.0  0.8705359505083193  0.9421116730328973  0.7667914989692265  1.0000
  C   C115      1.0  0.0941079836230898  0.08638870694156961  0.2542067316822596  1.0000
  C   C116      1.0  0.019910935713411997  0.11655894757183213  0.24320820279943686  1.0000
  C   C117      1.0  0.0071156439221198  0.1183937940155317  0.2103648214326768  1.0000
  C   C118      1.0  0.0647972374632602  0.08790341351236461  0.187162764291493  1.0000
  C   C119      1.0  0.1397573084030341  0.0573044165492647  0.1981945505151543  1.0000
  C   C120      1.0  0.1542431205069477  0.0587815737611521  0.2317587159101535  1.0000
  C   C121      1.0  0.1943191722169502  0.024243561673543492  0.17541437021839099  1.0000
  C   C122      1.0  0.17361676087058703  0.019391365395883  0.1437963489963963  1.0000
  C   C123      1.0  0.09957479013895919  0.0497189208797622  0.1328864328541997  1.0000
  C   C124      1.0  0.0481622641724897  0.08454237687741539  0.1539695339239557  1.0000
  N   N1        1.0  0.18472796697714242  0.0712625385154837  0.299419366064221  1.0000
  N   N2        1.0  0.1103159995675327  0.0651691583442826  0.3549085298939758  1.0000
  N   N3        1.0  0.023492433867708898  0.08300972363169729  0.3108217498459354  1.0000
  N   N4        1.0  0.8720694486642272  0.9088342970915093  0.6969851049469113  1.0000
  N   N5        1.0  0.9731010868097554  0.8860123003069802  0.6490763585812118  1.0000
  N   N6        1.0  0.030213221385309907  0.8975932472911053  0.6996892381646163  1.0000
  O   O1        1.0  0.846737227030502  0.08835670836068492  0.08161520420024708  1.0000
  O   O2        1.0  0.049749923217888195  0.1542828099308267  0.0324162253241624  1.0000
  O   O3        1.0  0.026391737634781996  0.078624313019418  0.08624069237041  1.0000
  O   O4        1.0  0.8037944837487102  0.13619740832577068  0.9807926779834517  1.0000
  O   O5        1.0  0.09518841403371431  0.9926169728825373  0.08789142541778722  1.0000
  O   O6        1.0  0.8709647739793881  0.15576389284570516  0.0254342282536228  1.0000
  O   O7        1.0  0.1558503271069114  0.1298450019202377  0.990400923329041  1.0000
  O   O8        1.0  0.0595872279481355  0.0332039341893307  0.021572850720467298  1.0000
  O   O9        1.0  0.9827469321892008  0.10102058810191042  0.9800718926570013  1.0000
  O   O10       1.0  0.9334739766784068  0.9895542084488724  0.0652985763959748  1.0000
  O   O11       1.0  0.8630378150494807  0.03539067737906271  0.017910322779108884  1.0000
  O   O12       1.0  0.7227127568803411  0.03594008025397952  0.9746685402350224  1.0000
  O   O13       1.0  0.2459248026701673  0.0321301707025228  0.9871261372855642  1.0000
  O   O14       1.0  0.9924337315098412  0.005850932686129801  0.95703502900831  1.0000
  O   O15       1.0  0.11388739847494378  0.953444176893207  0.9847972565992293  1.0000
  O   O16       1.0  0.9618897459708791  0.9245716694344496  0.017960958969759133  1.0000
  O   O17       1.0  0.8437663880840061  0.9559263378553382  0.9808777528653607  1.0000
  O   O18       1.0  0.21337968983032599  0.9606995278666731  0.03647094192771051  1.0000
  O   O19       1.0  0.11681745970500401  0.8630820169042934  0.03123334976522331  1.0000
  O   O20       1.0  0.07103089592548877  0.8412194065832851  0.9824656336085837  1.0000
  O   O21       1.0  0.7505792866651574  0.00017435903310309992  0.0778208835788661  1.0000
  O   O22       1.0  0.8905712404330329  0.8451101529180677  0.9772817308062969  1.0000
  O   O23       1.0  0.0081981862018452  0.8894447525393544  0.08576067304386471  1.0000
  O   O24       1.0  0.8411062819886084  0.891826965167553  0.0789625185693268  1.0000
  O   O25       1.0  0.6899856279832335  0.9688305665773956  0.02393047294732041  1.0000
  O   O26       1.0  0.7875347033473119  0.8642688366256123  0.021440000686915508  1.0000
  O   O27       1.0  0.0864833921472865  0.9062826105948786  0.9252021761817844  1.0000
  O   O28       1.0  0.8811157841243825  0.11663939263277713  0.9220436008360978  1.0000
  O   O29       1.0  0.91117815346972  0.9237078572036664  0.9216692904969648  1.0000
  O   O30       1.0  0.8520120807224884  0.012154818879487602  0.917619145178115  1.0000
  O   O31       1.0  0.1423015198172237  0.1019882307714894  0.9287050362256154  1.0000
  O   O32       1.0  0.1794634534578137  0.9980349924579954  0.9257068844400747  1.0000
