data_image0
_chemical_formula_structural       K4H12C20N8O16
_chemical_formula_sum              "K4 H12 C20 N8 O16"
_cell_length_a       7.374079297640382
_cell_length_b       8.321063728359201
_cell_length_c       11.262635415051909
_cell_angle_alpha    90.00017560590962
_cell_angle_beta     89.9996900085444
_cell_angle_gamma    91.0443628115987

_space_group_name_H-M_alt    "P 1"
_space_group_IT_number       1

loop_
  _space_group_symop_operation_xyz
  'x, y, z'

loop_
  _atom_site_type_symbol
  _atom_site_label
  _atom_site_symmetry_multiplicity
  _atom_site_fract_x
  _atom_site_fract_y
  _atom_site_fract_z
  _atom_site_occupancy
  K   K1        1.0  0.2299184318129548  0.4217351587010398  0.46996910226103955  1.0000
  K   K2        1.0  0.2700902753634367  0.5782492102798786  0.9699649697435644  1.0000
  K   K3        1.0  0.7700947723274254  0.5782589107979632  0.530030618732809  1.0000
  K   K4        1.0  0.7299088667958171  0.42172690808686036  0.030038302822170196  1.0000
  H   H1        1.0  0.1413501366978451  0.855664240348581  0.42917556904219367  1.0000
  H   H2        1.0  0.35865804338479984  0.14433800065106786  0.9291772419247832  1.0000
  H   H3        1.0  0.8586523207218235  0.1443334973901358  0.5708214883002823  1.0000
  H   H4        1.0  0.6413447157295452  0.8556705545870216  0.07082247910428659  1.0000
  H   H5        1.0  0.1539030258358025  0.9399427944298893  0.057084221563385995  1.0000
  H   H6        1.0  0.3461147397438751  0.06005189326751291  0.5570866380701958  1.0000
  H   H7        1.0  0.8461007204507142  0.060052531619554414  0.942912835774045  1.0000
  H   H8        1.0  0.6538838175275997  0.939951877607811  0.4429166345277195  1.0000
  H   H9        1.0  0.4100270317050132  0.45708220268439703  0.21691259090086845  1.0000
  H   H10       1.0  0.08996277416293447  0.5429289125919111  0.7169143588147833  1.0000
  H   H11       1.0  0.5899728144439536  0.5429191564962679  0.7830880180170396  1.0000
  H   H12       1.0  0.9100358836698844  0.4570784641183323  0.2830906895703222  1.0000
  C   C1        1.0  0.025466872430023102  0.6807633524973012  0.22295209050864875  1.0000
  C   C2        1.0  0.474538753864138  0.3192332702467339  0.7229501856721043  1.0000
  C   C3        1.0  0.9745342290629823  0.31923439305031553  0.777048518402921  1.0000
  C   C4        1.0  0.5254570916001313  0.6807705162230634  0.27704864747247626  1.0000
  C   C5        1.0  0.11292356558921311  0.840780276886683  0.2384715704196623  1.0000
  C   C6        1.0  0.3870873938545857  0.15921757934820852  0.7384696222336231  1.0000
  C   C7        1.0  0.8870802142307568  0.1592162511011495  0.7615228232440927  1.0000
  C   C8        1.0  0.612908518662401  0.8407886110055427  0.261527435130226  1.0000
  C   C9        1.0  0.1675850236540768  0.951918085576338  0.1526630832576572  1.0000
  C   C10       1.0  0.3324212313763296  0.0480806568475245  0.6526664102973356  1.0000
  C   C11       1.0  0.8324160443338542  0.048078458018530106  0.8473330861943396  1.0000
  C   C12       1.0  0.6675746475965665  0.9519243315732241  0.3473359744151523  1.0000
  C   C13       1.0  0.2388928900336893  0.08311925781272582  0.2176210175522471  1.0000
  C   C14       1.0  0.2611087781561494  0.916879770675351  0.71762300720993  1.0000
  C   C15       1.0  0.7611068220453133  0.9168772935820684  0.7823742640105563  1.0000
  C   C16       1.0  0.7388871008238382  0.0831252177418094  0.2823776017192472  1.0000
  C   C17       1.0  0.31942842933690235  0.2338593233532436  0.1715927379166615  1.0000
  C   C18       1.0  0.18057499611784777  0.766140713160155  0.6715955679289464  1.0000
  C   C19       1.0  0.6805700944330512  0.766143245567534  0.8284052073300356  1.0000
  C   C20       1.0  0.8194221046656195  0.23385945968915678  0.3284094804508726  1.0000
  N   N1        1.0  0.15333155085117064  0.9089435556939236  0.34605474211743104  1.0000
  N   N2        1.0  0.34667451462475196  0.0910559609132378  0.8460545626895452  1.0000
  N   N3        1.0  0.8466708730492342  0.0910529800992208  0.6539414273321  1.0000
  N   N4        1.0  0.6533254656225651  0.9089502060389449  0.15394427045021786  1.0000
  N   N5        1.0  0.22843614195281248  0.055094143189848004  0.3365017065517292  1.0000
  N   N6        1.0  0.27156318677891983  0.9449041718546525  0.8365019456305374  1.0000
  N   N7        1.0  0.7715636036419085  0.9449036101523091  0.663495350795685  1.0000
  N   N8        1.0  0.7284395052897992  0.055101979495887604  0.16349777539594607  1.0000
  O   O1        1.0  0.9957681475227388  0.6317253382539152  0.1192773841315713  1.0000
  O   O2        1.0  0.5042337577427033  0.3682728687263506  0.6192755179591813  1.0000
  O   O3        1.0  0.004231430436632902  0.368266405380126  0.8807250005593018  1.0000
  O   O4        1.0  0.495766256016779  0.6317345001749928  0.3807259788568372  1.0000
  O   O5        1.0  0.985214311194511  0.6006198670619441  0.3187386770030897  1.0000
  O   O6        1.0  0.5147899672536055  0.39937551721698833  0.8187368426068244  1.0000
  O   O7        1.0  0.014789569165522199  0.39938026677157973  0.68126281979778  1.0000
  O   O8        1.0  0.4852111677551107  0.6006234302779985  0.18126554208934206  1.0000
  O   O9        1.0  0.35921554018643326  0.2542516325208339  0.0645573497607614  1.0000
  O   O10       1.0  0.14079413077781308  0.7457467380301636  0.5645567264478473  1.0000
  O   O11       1.0  0.6407815271061565  0.7457473383685382  0.93543970759287  1.0000
  O   O12       1.0  0.8592096490066866  0.2542497899756171  0.4354465461324608  1.0000
  O   O13       1.0  0.34692928514412796  0.34545788353214857  0.2522844073279841  1.0000
  O   O14       1.0  0.15305213609228469  0.6545546235302168  0.7522879737036374  1.0000
  O   O15       1.0  0.6530706280611084  0.6545458795306869  0.7477135379175407  1.0000
  O   O16       1.0  0.8469410645571854  0.3454515824485256  0.2477197383650065  1.0000
