data_image0
_chemical_formula_structural       Cd2H40C40N8O8
_chemical_formula_sum              "Cd2 H40 C40 N8 O8"
_cell_length_a       8.473644280264427
_cell_length_b       10.283634297890146
_cell_length_c       12.550543454670004
_cell_angle_alpha    83.24751330110108
_cell_angle_beta     77.465021281168
_cell_angle_gamma    77.56837870442888

_space_group_name_H-M_alt    "P 1"
_space_group_IT_number       1

loop_
  _space_group_symop_operation_xyz
  'x, y, z'

loop_
  _atom_site_type_symbol
  _atom_site_label
  _atom_site_symmetry_multiplicity
  _atom_site_fract_x
  _atom_site_fract_y
  _atom_site_fract_z
  _atom_site_occupancy
  Cd  Cd1       1.0  0.1290151109917161  0.48156844960486467  0.7895967974509477  1.0000
  Cd  Cd2       1.0  0.8709879037380901  0.5184263312704829  0.21040400327920844  1.0000
  H   H1        1.0  0.6840482182319504  0.9104582744902598  0.6390737258213761  1.0000
  H   H2        1.0  0.3159647169451106  0.0895305507630084  0.36092707191161105  1.0000
  H   H3        1.0  0.6341386219288269  0.24889120332029782  0.4016379807578971  1.0000
  H   H4        1.0  0.3658740826387544  0.7511025350063817  0.5983680207455038  1.0000
  H   H5        1.0  0.8754478876794067  0.1343861793705869  0.27568120348066577  1.0000
  H   H6        1.0  0.12455793287121963  0.8656065690936641  0.7243225880322727  1.0000
  H   H7        1.0  0.021829071301390144  0.905947869605967  0.3290184356524009  1.0000
  H   H8        1.0  0.9781779100365069  0.09404095870031169  0.6709807460078425  1.0000
  H   H9        1.0  0.22422857860238563  0.48940180422513185  0.49183235552438026  1.0000
  H   H10       1.0  0.7757825615632541  0.5105928767440916  0.5081769601876616  1.0000
  H   H11       1.0  0.8860140942193694  0.748286527555763  0.7079590877306075  1.0000
  H   H12       1.0  0.11398411975774542  0.2517082385972884  0.2920415423813623  1.0000
  H   H13       1.0  0.20236424293823774  0.15436927658541316  0.8191123399026099  1.0000
  H   H14       1.0  0.797635201211513  0.8456355431491785  0.18088411120464087  1.0000
  H   H15       1.0  0.47709911393815946  0.3759973875541931  0.5714325239036029  1.0000
  H   H16       1.0  0.5229079674741329  0.6239925985688544  0.42855618701974413  1.0000
  H   H17       1.0  0.5768740873803536  0.25269043229990024  0.08941388875570062  1.0000
  H   H18       1.0  0.4231139563255723  0.7473112879054681  0.9105866944166013  1.0000
  H   H19       1.0  0.595619792557116  0.41080162892557603  0.9340381350144683  1.0000
  H   H20       1.0  0.40437214486519213  0.5892119535303947  0.06597132324316853  1.0000
  H   H21       1.0  0.48406871498856674  0.22127007089417108  0.9168303538751277  1.0000
  H   H22       1.0  0.5159188984548563  0.7787476199111935  0.0831705602714834  1.0000
  H   H23       1.0  0.6045018440117076  0.2631132352739129  0.7886982406409475  1.0000
  H   H24       1.0  0.3954863537523752  0.7369114212530546  0.2113044132569329  1.0000
  H   H25       1.0  0.656235312836408  0.0141711769247479  0.8341410183192937  1.0000
  H   H26       1.0  0.3437468235416574  0.9858506400053175  0.16584990626173382  1.0000
  H   H27       1.0  0.8364439011121901  0.0788606394824711  0.8221551654528838  1.0000
  H   H28       1.0  0.16354181747374968  0.9211561620062623  0.17783809812141274  1.0000
  H   H29       1.0  0.8079022476775037  0.9207262805036791  0.9856582333169545  1.0000
  H   H30       1.0  0.19208908266423919  0.07928366255496401  0.01432769217878161  1.0000
  H   H31       1.0  0.6086946450070414  0.011632459349826303  0.03744340963475419  1.0000
  H   H32       1.0  0.391296162431189  0.9883694337334604  0.9625464372465731  1.0000
  H   H33       1.0  0.8174757502006713  0.07440132794281601  0.1262441037352318  1.0000
  H   H34       1.0  0.18251280085392807  0.9255944930194033  0.8737505240034837  1.0000
  H   H35       1.0  0.9313314092612114  0.1175067968857135  0.9978159204903251  1.0000
  H   H36       1.0  0.06865352496945586  0.882497929639996  0.002183225162369209  1.0000
  H   H37       1.0  0.09040728988709645  0.6756185335980406  0.37324468020170093  1.0000
  H   H38       1.0  0.9096024434411094  0.3243682377761488  0.6267590954413365  1.0000
  H   H39       1.0  0.41542325029239885  0.9893408676207187  0.6992671836514291  1.0000
  H   H40       1.0  0.5845821128130453  0.010648878807096192  0.3007369154174669  1.0000
  C   C1        1.0  0.8597813310967408  0.8912523429938732  0.4870537866446015  1.0000
  C   C2        1.0  0.14022401279424201  0.10873348879078289  0.5129450587170439  1.0000
  C   C3        1.0  0.7233704397947635  0.9587293913692889  0.5583871128988563  1.0000
  C   C4        1.0  0.2766391782857838  0.0412584397376463  0.4416126048073183  1.0000
  C   C5        1.0  0.6417241035940436  0.0873016958583648  0.5296194006508231  1.0000
  C   C6        1.0  0.3582844075297444  0.912690079927536  0.4703833237080346  1.0000
  C   C7        1.0  0.6965992388586245  0.149011490278447  0.4259186799929751  1.0000
  C   C8        1.0  0.30340825375496666  0.8509803645852755  0.5740785909112986  1.0000
  C   C9        1.0  0.8327808900966573  0.08327699434965301  0.3547255381187  1.0000
  C   C10       1.0  0.16722483049374395  0.9167118026899247  0.6452754044870092  1.0000
  C   C11       1.0  0.9137352413189889  0.9552776182888604  0.3845300092941529  1.0000
  C   C12       1.0  0.08627390402894256  0.044712221939064996  0.6154688069383526  1.0000
  C   C13       1.0  0.1336630299921069  0.5746813253954599  0.5235915036256531  1.0000
  C   C14       1.0  0.8663510429839931  0.4253124932399288  0.4764095305322655  1.0000
  C   C15       1.0  0.9519925414769476  0.7080660079083928  0.631110495472477  1.0000
  C   C16       1.0  0.04801617726808161  0.29192976834418977  0.36889187139359353  1.0000
  C   C17       1.0  0.9483609231316878  0.762733864637525  0.5249567593702976  1.0000
  C   C18       1.0  0.051650689880730696  0.2372560136028028  0.4750401381712878  1.0000
  C   C19       1.0  0.2937876687788901  0.17972008162652034  0.7492972771164121  1.0000
  C   C20       1.0  0.7062098458973267  0.8202877389136062  0.25069838032577973  1.0000
  C   C21       1.0  0.43617156363370685  0.28989125353371037  0.6185749321375624  1.0000
  C   C22       1.0  0.5638383966443641  0.7101006393424143  0.3814204200757985  1.0000
  C   C23       1.0  0.5037458848882465  0.15602547245483578  0.6066669209176041  1.0000
  C   C24       1.0  0.4962578523981094  0.843966300869276  0.3933348312230579  1.0000
  C   C25       1.0  0.7035954897437476  0.256131018424  0.043881191017547415  1.0000
  C   C26       1.0  0.2963928768310852  0.7438736425152898  0.9561230925988229  1.0000
  C   C27       1.0  0.683693507857953  0.31447880662829414  0.927357250845539  1.0000
  C   C28       1.0  0.31630235396975337  0.6855338221555344  0.07265018091256081  1.0000
  C   C29       1.0  0.6113429926824807  0.22147941024410758  0.8724729726748351  1.0000
  C   C30       1.0  0.3886493331812274  0.7785393672768067  0.12752325255310382  1.0000
  C   C31       1.0  0.7123605360937333  0.07891205144439792  0.8725931629172976  1.0000
  C   C32       1.0  0.2876249326682796  0.9211057484745879  0.1274000507201762  1.0000
  C   C33       1.0  0.7310182038882757  0.0218156455873242  0.9883074883563483  1.0000
  C   C34       1.0  0.26896894059630233  0.978191226155779  0.011682424331716831  1.0000
  C   C35       1.0  0.8052591058170505  0.11363988358575479  0.04242199190051111  1.0000
  C   C36       1.0  0.194728822641224  0.8863628963523668  0.9575745333349348  1.0000
  C   C37       1.0  0.7658540577791938  0.34809151761601237  0.10540806268254951  1.0000
  C   C38       1.0  0.23413578082399064  0.6519071404813063  0.8945973221548301  1.0000
  C   C39       1.0  0.8410210945108147  0.3508644636758048  0.8549341348649337  1.0000
  C   C40       1.0  0.15897372947807045  0.64914712315057  0.14507590937547124  1.0000
  N   N1        1.0  0.06532915394321755  0.6757078480030572  0.45872962891536434  1.0000
  N   N2        1.0  0.9346881245413458  0.32427798993607837  0.5412716469917671  1.0000
  N   N3        1.0  0.0679450822491461  0.592055392528735  0.6290689364976032  1.0000
  N   N4        1.0  0.9320629292267738  0.40793838011765604  0.37093368798758775  1.0000
  N   N5        1.0  0.41212930046599877  0.0892614244074181  0.6920596021288788  1.0000
  N   N6        1.0  0.587881647747409  0.9107404117057314  0.3079387854798057  1.0000
  N   N7        1.0  0.3064760543611484  0.3025181336504091  0.7070040596092682  1.0000
  N   N8        1.0  0.693533029569643  0.6974727908312773  0.2929890954863624  1.0000
  O   O1        1.0  0.8877390897501626  0.3014705563972697  0.1526391369021241  1.0000
  O   O2        1.0  0.11224419895120964  0.6985189092214412  0.8473782223849967  1.0000
  O   O3        1.0  0.6880685932423136  0.4689582896676824  0.11222955287499296  1.0000
  O   O4        1.0  0.3119292210471656  0.5310424247705257  0.8877738262705394  1.0000
  O   O5        1.0  0.9498617182528547  0.37484219814575676  0.9030428671990622  1.0000
  O   O6        1.0  0.05013428573776932  0.6251693831658186  0.09696782089589112  1.0000
  O   O7        1.0  0.8533951371118179  0.3627415254501543  0.7522503020274627  1.0000
  O   O8        1.0  0.14660731277919584  0.6372691647226815  0.24775483767702872  1.0000
