data_image0
_chemical_formula_structural       K4Zn4P4H16C32O28
_chemical_formula_sum              "K4 Zn4 P4 H16 C32 O28"
_cell_length_a       5.033454868090962
_cell_length_b       9.42862757706982
_cell_length_c       25.013196421001304
_cell_angle_alpha    89.9999691350777
_cell_angle_beta     89.99998813166152
_cell_angle_gamma    104.63739427687003

_space_group_name_H-M_alt    "P 1"
_space_group_IT_number       1

loop_
  _space_group_symop_operation_xyz
  'x, y, z'

loop_
  _atom_site_type_symbol
  _atom_site_label
  _atom_site_symmetry_multiplicity
  _atom_site_fract_x
  _atom_site_fract_y
  _atom_site_fract_z
  _atom_site_occupancy
  K   K1        1.0  0.291215867091978  0.09631348880217419  0.610428565267604  1.0000
  K   K2        1.0  0.70878152562711  0.40368518928580943  0.1104284538443849  1.0000
  K   K3        1.0  0.7087822943117459  0.9036906812659921  0.38957145552103617  1.0000
  K   K4        1.0  0.29121343503513236  0.5963124038990771  0.8895715669449942  1.0000
  Zn  Zn1       1.0  0.7843014082516006  0.1822220608416956  0.5182316130783917  1.0000
  Zn  Zn2       1.0  0.21569668619767404  0.31777786788288853  0.0182315395971102  1.0000
  Zn  Zn3       1.0  0.21569911846832918  0.8177788046871939  0.4817684077105397  1.0000
  Zn  Zn4       1.0  0.7843007907653217  0.6822208134007254  0.981768081403132  1.0000
  P   P1        1.0  0.25785012571488153  0.14046833603514844  0.4490269584194095  1.0000
  P   P2        1.0  0.742149165311453  0.359530862780204  0.9490269976572846  1.0000
  P   P3        1.0  0.7421498675477737  0.8595314333461912  0.5509734621586091  1.0000
  P   P4        1.0  0.25784831165081107  0.6404678185027421  0.05097342292089729  1.0000
  H   H1        1.0  0.29297455871356  0.17650438998261822  0.19496946001728332  1.0000
  H   H2        1.0  0.7070237466197256  0.3234963387394103  0.6949691082422405  1.0000
  H   H3        1.0  0.7070259680056452  0.8234964755455964  0.8050313603495809  1.0000
  H   H4        1.0  0.2929728144132611  0.6765045428871089  0.3050309125467621  1.0000
  H   H5        1.0  0.2557876779421662  0.1359649396303482  0.3302404611847365  1.0000
  H   H6        1.0  0.7442177784174504  0.364034434082285  0.8302408992114394  1.0000
  H   H7        1.0  0.7442182638516357  0.8640348056052074  0.6697591598152214  1.0000
  H   H8        1.0  0.25578076545900785  0.6359664394954194  0.1697591215775347  1.0000
  H   H9        1.0  0.9077415289041467  0.5122155331815677  0.2924591525342777  1.0000
  H   H10       1.0  0.09226269153471396  0.9877843860243021  0.7924583931783005  1.0000
  H   H11       1.0  0.09226243004508916  0.4877842201018082  0.7075416678326292  1.0000
  H   H12       1.0  0.9077427168025382  0.012214263064379302  0.20754082803281193  1.0000
  H   H13       1.0  0.6769589764193071  0.4173848236672129  0.4569427431771729  1.0000
  H   H14       1.0  0.32303686792979386  0.0826154741292129  0.956942456269374  1.0000
  H   H15       1.0  0.3230375846136794  0.5826160579593135  0.5430572776118296  1.0000
  H   H16       1.0  0.6769611424901143  0.9173843033016168  0.0430571647307474  1.0000
  C   C1        1.0  0.4486154605402035  0.2634189366293  0.3988406331596864  1.0000
  C   C2        1.0  0.5513859049275353  0.23658033823203792  0.8988403055007481  1.0000
  C   C3        1.0  0.5513865155659232  0.7365808247032247  0.6011597874182897  1.0000
  C   C4        1.0  0.4486140883354821  0.763419431149643  0.1011597152883041  1.0000
  C   C5        1.0  0.4099143870015993  0.23203144188348554  0.3441994798589008  1.0000
  C   C6        1.0  0.5900890610372117  0.2679679164875779  0.8441999437966671  1.0000
  C   C7        1.0  0.5900910213349277  0.7679672072045278  0.6558005409301514  1.0000
  C   C8        1.0  0.40990894938196487  0.7320318609425768  0.1558004767813941  1.0000
  C   C9        1.0  0.573263000131341  0.3238386401489493  0.30632785793198275  1.0000
  C   C10       1.0  0.4267405170292236  0.176160781681844  0.8063279475105317  1.0000
  C   C11       1.0  0.42673989190480194  0.6761589208406704  0.6936721628572258  1.0000
  C   C12       1.0  0.5732605431476258  0.8238411799942539  0.1936720732782717  1.0000
  C   C13       1.0  0.7809017761775152  0.4448744278552255  0.3228930972458244  1.0000
  C   C14       1.0  0.21910171074932086  0.0551249662184006  0.8228928202404404  1.0000
  C   C15       1.0  0.21910363215864245  0.5551242212324468  0.6771073233321941  1.0000
  C   C16       1.0  0.7808968331274995  0.9448759073596374  0.17710680075956023  1.0000
  C   C17       1.0  0.8182535221641059  0.4777962512894263  0.3772176175557433  1.0000
  C   C18       1.0  0.18174391708225096  0.022203075902339695  0.8772169489980897  1.0000
  C   C19       1.0  0.18174792048547067  0.5222024138962241  0.6227824032333871  1.0000
  C   C20       1.0  0.8182526439514605  0.9777978057248548  0.1227822722129801  1.0000
  C   C21       1.0  0.6475876767746768  0.38842625688346283  0.4148129852100411  1.0000
  C   C22       1.0  0.3524136595410852  0.11157299121384773  0.9148126912020728  1.0000
  C   C23       1.0  0.3524162821752909  0.6115734964005809  0.5851870355789259  1.0000
  C   C24       1.0  0.6475838174219106  0.8884256900697667  0.0851869297981693  1.0000
  C   C25       1.0  0.5331806997384945  0.2968796603747492  0.24780955079233993  1.0000
  C   C26       1.0  0.46682292422642047  0.2031198595116592  0.7478100330202794  1.0000
  C   C27       1.0  0.4668257755122198  0.7031211810080293  0.7521900702074974  1.0000
  C   C28       1.0  0.5331720364365538  0.7968777336738951  0.25218918819116  1.0000
  C   C29       1.0  0.0366736442682623  0.6067750678951284  0.3969316145453591  1.0000
  C   C30       1.0  0.9633264198053479  0.8932246923492353  0.8969312379579434  1.0000
  C   C31       1.0  0.9633248996078264  0.393225805682242  0.6030688060325744  1.0000
  C   C32       1.0  0.0366750228442356  0.1067739728364074  0.1030687828311869  1.0000
  O   O1        1.0  0.40023545614032935  0.18034556318721684  0.5034634167509822  1.0000
  O   O2        1.0  0.599762131806223  0.3196532941364225  0.0034633269201549003  1.0000
  O   O3        1.0  0.5997645371226881  0.819654206194457  0.496536604038063  1.0000
  O   O4        1.0  0.40023534515641035  0.6803453871468574  0.9965366938690606  1.0000
  O   O5        1.0  0.9609881984071009  0.1570421880994104  0.4506508849101891  1.0000
  O   O6        1.0  0.03901162311220927  0.34295810414199923  0.950650956747765  1.0000
  O   O7        1.0  0.039012328312836166  0.842958677429479  0.5493491358787352  1.0000
  O   O8        1.0  0.9609858538504241  0.6570405771412808  0.049349064041450695  1.0000
  O   O9        1.0  0.25678932403388194  0.9838098204030317  0.42991096330048606  1.0000
  O   O10       1.0  0.7432081635466262  0.5161887964808329  0.9299110721970861  1.0000
  O   O11       1.0  0.7432086863856638  0.016189957027464195  0.5700890574886017  1.0000
  O   O12       1.0  0.2567893134156378  0.4838098848021133  0.07008934838109582  1.0000
  O   O13       1.0  0.3239625810098161  0.18368234740461986  0.2355196539465112  1.0000
  O   O14       1.0  0.6760376331567386  0.3163183053208413  0.7355193049170764  1.0000
  O   O15       1.0  0.6760384791663014  0.8163196142708102  0.7644811664202322  1.0000
  O   O16       1.0  0.32396037726280713  0.6836814721096544  0.2644807158720113  1.0000
  O   O17       1.0  0.6817240110206556  0.3748884443073663  0.2142020797135515  1.0000
  O   O18       1.0  0.31827425920978664  0.12511225218722893  0.714202184165444  1.0000
  O   O19       1.0  0.318277965085109  0.6251113170248246  0.7857987406533978  1.0000
  O   O20       1.0  0.6817228352790179  0.8748897255855039  0.2857990359903511  1.0000
  O   O21       1.0  0.2280337170462375  0.6759048197955552  0.3668934593899138  1.0000
  O   O22       1.0  0.7719629696214766  0.8240961030269388  0.8668931047930569  1.0000
  O   O23       1.0  0.7719633774432992  0.324097157977846  0.6331069611879414  1.0000
  O   O24       1.0  0.22803649018462827  0.17590257020751918  0.133106915996116  1.0000
  O   O25       1.0  0.008597610640769932  0.6407587586912911  0.4461160493376326  1.0000
  O   O26       1.0  0.991400380820373  0.8592409271862067  0.9461156784820447  1.0000
  O   O27       1.0  0.9913984169349416  0.3592410267876857  0.5538843712404641  1.0000
  O   O28       1.0  0.008599612443013901  0.1407588421958081  0.053883942518034196  1.0000
