data_image0
_chemical_formula_structural       Cu4H36C32N20O20
_chemical_formula_sum              "Cu4 H36 C32 N20 O20"
_cell_length_a       7.800026608
_cell_length_b       8.075727383138208
_cell_length_c       20.759
_cell_angle_alpha    90.0
_cell_angle_beta     90.0
_cell_angle_gamma    116.0961572736659

_space_group_name_H-M_alt    "P 1"
_space_group_IT_number       1

loop_
  _space_group_symop_operation_xyz
  'x, y, z'

loop_
  _atom_site_type_symbol
  _atom_site_label
  _atom_site_symmetry_multiplicity
  _atom_site_fract_x
  _atom_site_fract_y
  _atom_site_fract_z
  _atom_site_occupancy
  Cu  Cu1       1.0  0.3301349722108001  0.008302005877546  0.1642844067633291  1.0000
  Cu  Cu2       1.0  0.6698641518449976  0.4917032233796022  0.6642863336384224  1.0000
  Cu  Cu3       1.0  0.6698418048124284  0.991696043061445  0.8357136663615776  1.0000
  Cu  Cu4       1.0  0.330145278189086  0.5082989620844954  0.3357131846428061  1.0000
  H   H1        1.0  0.6036197861820016  0.6188903394993017  0.9430309745170787  1.0000
  H   H2        1.0  0.39638058850902524  0.8811225905887452  0.44303145623585033  1.0000
  H   H3        1.0  0.39637302948936093  0.3811063305979942  0.0569646900139702  1.0000
  H   H4        1.0  0.6036256494695564  0.1188782160336501  0.556971434076786  1.0000
  H   H5        1.0  0.755746544350892  0.5151848975358247  0.8744944361481756  1.0000
  H   H6        1.0  0.2442584350602673  0.9848156229769174  0.3744925092730895  1.0000
  H   H7        1.0  0.24426419385364545  0.48481453024486837  0.1255036369767311  1.0000
  H   H8        1.0  0.7557515706884176  0.0151934566956839  0.6255098993207753  1.0000
  H   H9        1.0  0.951211898345747  0.4802684891589592  0.9054699166626533  1.0000
  H   H10       1.0  0.048791019603683615  0.0197422554649904  0.40546365431860915  1.0000
  H   H11       1.0  0.04880127333488825  0.5197447270387414  0.0945320102124398  1.0000
  H   H12       1.0  0.9512075522169925  0.9802557934740008  0.5945377908377054  1.0000
  H   H13       1.0  0.9941368679399719  0.6859006672925076  0.8611488992726066  1.0000
  H   H14       1.0  0.005864945539222828  0.8140957166951351  0.3611503444289212  1.0000
  H   H15       1.0  0.005868715953383189  0.31410151817158277  0.138847246977214  1.0000
  H   H16       1.0  0.9941419726481302  0.18590095340216095  0.6388544727588013  1.0000
  H   H17       1.0  0.6863479994704209  0.8620601040820047  0.142085842285276  1.0000
  H   H18       1.0  0.3136525319618644  0.6379362799056381  0.642085842285276  1.0000
  H   H19       1.0  0.3136359724902961  0.13792277759828406  0.8579117491208663  1.0000
  H   H20       1.0  0.6863556682723981  0.362060390191658  0.3579170480273604  1.0000
  H   H21       1.0  0.9333804908922333  0.9561191695101312  0.1598275446794162  1.0000
  H   H22       1.0  0.06661933420774355  0.543884108686008  0.6598256178043229  1.0000
  H   H23       1.0  0.06659890247190252  0.0438733640620583  0.8401734187581269  1.0000
  H   H24       1.0  0.9333894678646573  0.45611669793638027  0.3401763090707632  1.0000
  H   H25       1.0  0.46109688811394994  0.8694313918118437  0.0480153186569652  1.0000
  H   H26       1.0  0.5389005296334661  0.6305553402838981  0.5480172455320584  1.0000
  H   H27       1.0  0.5388978114424604  0.13056941481055157  0.9519837179054846  1.0000
  H   H28       1.0  0.46110337936318774  0.3694206471878941  0.4519841996242562  1.0000
  H   H29       1.0  0.666151989764309  0.2676524778133498  0.0810448480177257  1.0000
  H   H30       1.0  0.33385364902019904  0.23234172071019535  0.5810458114552759  1.0000
  H   H31       1.0  0.33385291392027494  0.7323538441758473  0.9189580422949106  1.0000
  H   H32       1.0  0.6661488473118312  0.7676480551785969  0.4189565971385889  1.0000
  H   H33       1.0  0.6705206720034197  0.3272570468342123  0.1541793920709082  1.0000
  H   H34       1.0  0.3294843649429495  0.1727330151642334  0.6541798737896798  1.0000
  H   H35       1.0  0.32947203917376566  0.6727506539966868  0.8458230165229564  1.0000
  H   H36       1.0  0.6705360800457998  0.8272567607245589  0.3458220530854064  1.0000
  C   C1        1.0  0.38668878366249987  0.7338264471117739  0.2299051014018048  1.0000
  C   C2        1.0  0.6133027995649698  0.7661671791924646  0.7299046196830261  1.0000
  C   C3        1.0  0.6132983542301674  0.2661605710936215  0.7700924900043375  1.0000
  C   C4        1.0  0.38670145003439427  0.23384052163842733  0.2700905631292443  1.0000
  C   C5        1.0  0.2013244283299046  0.7163937514947918  0.2632544920275564  1.0000
  C   C6        1.0  0.7986607185394805  0.7836026324928439  0.7632544920275564  1.0000
  C   C7        1.0  0.7986728614438621  0.2836042974441994  0.7367474348475369  1.0000
  C   C8        1.0  0.20132759690592653  0.21639541644614715  0.2367464714099938  1.0000
  C   C9        1.0  0.7244744491039656  0.6756020986329148  0.9761703357579847  1.0000
  C   C10       1.0  0.2755278617191906  0.8244094526134232  0.47617129919552775  1.0000
  C   C11       1.0  0.2755227884227126  0.324401465672878  0.0238248470542928  1.0000
  C   C12       1.0  0.7244840801616235  0.1755982482174687  0.5238335179921947  1.0000
  C   C13       1.0  0.8988549068470207  0.5830694109670276  0.895209788525456  1.0000
  C   C14       1.0  0.10115002031704284  0.9169366249125159  0.3952093068066845  1.0000
  C   C15       1.0  0.10115447093997429  0.4169382898638644  0.10478828459945079  1.0000
  C   C16       1.0  0.8988594097170409  0.08306556055158147  0.604794546943495  1.0000
  C   C17       1.0  0.042576985349377636  0.7501505540017064  0.9952049713377349  1.0000
  C   C18       1.0  0.9574246975120958  0.7498596184029365  0.4952078616503712  1.0000
  C   C19       1.0  0.9574208540154389  0.24985714682919277  0.0047902114745426  1.0000
  C   C20       1.0  0.042587872330401004  0.25014946126965737  0.5047964738185868  1.0000
  C   C21       1.0  0.03239205262411101  0.8291568045875832  0.054651476468038106  1.0000
  C   C22       1.0  0.9676165639394158  0.6708657773923646  0.5546558119369891  1.0000
  C   C23       1.0  0.9676000044678477  0.17085227508501075  0.9453432246254606  1.0000
  C   C24       1.0  0.03240045388194804  0.3291474388053359  0.44534900525073334  1.0000
  C   C25       1.0  0.8539424631373935  0.8217124382476297  0.0737713762705354  1.0000
  C   C26       1.0  0.14606937160518646  0.678308764890623  0.5737747483019433  1.0000
  C   C27       1.0  0.14605158233379  0.17828974721646765  0.9262247699792852  1.0000
  C   C28       1.0  0.8539431982373104  0.3217003147819781  0.42623006888578624  1.0000
  C   C29       1.0  0.3142737372877634  0.8446577429824345  0.039684474203959  1.0000
  C   C30       1.0  0.6857279455737173  0.6553524294222084  0.539684474203959  1.0000
  C   C31       1.0  0.6857234479918334  0.15535133669016685  0.9603150440772693  1.0000
  C   C32       1.0  0.3142770626050435  0.34464286183337817  0.4603145623584979  1.0000
  N   N1        1.0  0.7041479518784541  0.7441126061960616  0.0315246399152187  1.0000
  N   N2        1.0  0.2958530246507109  0.7559044604170849  0.5315270485090835  1.0000
  N   N3        1.0  0.2958442097076742  0.2558854427429296  0.9684710246158303  1.0000
  N   N4        1.0  0.7041557251746016  0.24410186157211194  0.4684772869598746  1.0000
  N   N5        1.0  0.8876091886227189  0.6720791580886356  0.9552767474348443  1.0000
  N   N6        1.0  0.11239435200026555  0.8279379085245109  0.4552796377474806  1.0000
  N   N7        1.0  0.11239307259742765  0.3279354369507672  0.0447179536586546  1.0000
  N   N8        1.0  0.8876194998891409  0.17207117114808304  0.5447256611590134  1.0000
  N   N9        1.0  0.8216327024170696  0.8833177065756317  0.1295799412303111  1.0000
  N   N10       1.0  0.1783709427000916  0.616688329303912  0.6295794595115396  1.0000
  N   N11       1.0  0.17835378139037772  0.11667069047145869  0.8704186136133742  1.0000
  N   N12       1.0  0.8216378332487653  0.3833152350018878  0.3704239125198683  1.0000
  N   N13       1.0  0.2118861892773084  0.8900037099804194  0.0824779613661519  1.0000
  N   N14       1.0  0.7881142115372626  0.6100064624242234  0.5824794065224737  1.0000
  N   N15       1.0  0.7881065480234144  0.11000123316707537  0.9175201117587547  1.0000
  N   N16       1.0  0.2118913723560994  0.389995723039874  0.4175225203526196  1.0000
  N   N17       1.0  0.21817707246143678  0.7594163702277683  0.9857064405799888  1.0000
  N   N18       1.0  0.7818265465321731  0.7405924233351797  0.48570836745508217  1.0000
  N   N19       1.0  0.781823932835337  0.24059546712823016  0.0142906691073748  1.0000
  N   N20       1.0  0.21818479351050266  0.2594111409706201  0.514292595982468  1.0000
  O   O1        1.0  0.44950200186188033  0.8338434875269269  0.1800149332819529  1.0000
  O   O2        1.0  0.5504896074891337  0.666147381093914  0.6800144515631743  1.0000
  O   O3        1.0  0.5504679982005598  0.16612560573636156  0.8199788043740098  1.0000
  O   O4        1.0  0.44952097397413854  0.3338685927871836  0.3199788043740099  1.0000
  O   O5        1.0  0.4652412718462814  0.6404237103329891  0.2543821956741681  1.0000
  O   O6        1.0  0.5347369674445871  0.8595575063959442  0.7543817139553894  1.0000
  O   O7        1.0  0.5347446362465647  0.3595577925055976  0.745614432294424  1.0000
  O   O8        1.0  0.4652583339499544  0.14044743675155044  0.2456125054193379  1.0000
  O   O9        1.0  0.16965885691893595  0.6361024204442315  0.3187200732212503  1.0000
  O   O10       1.0  0.8303314703851684  0.8638884481766096  0.8187224818151151  1.0000
  O   O11       1.0  0.8303576113113708  0.3639011438615681  0.6812813719350643  1.0000
  O   O12       1.0  0.16964410296178303  0.1361013277121828  0.1812799267787497  1.0000
  O   O13       1.0  0.0969301065013113  0.7756508524071747  0.236672768437785  1.0000
  O   O14       1.0  0.903051848312572  0.7243441527387657  0.7366713232814703  1.0000
  O   O15       1.0  0.9030512752420422  0.22433478695651124  0.7633320487499375  1.0000
  O   O16       1.0  0.09694413329074084  0.2756566538836296  0.2633320487499375  1.0000
  O   O17       1.0  0.58505797446049  0.27503479627679167  0.1177937280215815  1.0000
  O   O18       1.0  0.4149495743326171  0.22496078108845544  0.6177946914591246  1.0000
  O   O19       1.0  0.4149406234837303  0.7249604949788022  0.8822081988535118  1.0000
  O   O20       1.0  0.5850605881573261  0.7750317524837411  0.3822048268221039  1.0000
