data_image0
_chemical_formula_structural       Al2H16C24N2Cl2O10
_chemical_formula_sum              "Al2 H16 C24 N2 Cl2 O10"
_cell_length_a       6.632796079201619
_cell_length_b       11.105283591659807
_cell_length_c       17.02495837018019
_cell_angle_alpha    84.35872917929039
_cell_angle_beta     82.48968244613836
_cell_angle_gamma    72.80613275494616

_space_group_name_H-M_alt    "P 1"
_space_group_IT_number       1

loop_
  _space_group_symop_operation_xyz
  'x, y, z'

loop_
  _atom_site_type_symbol
  _atom_site_label
  _atom_site_symmetry_multiplicity
  _atom_site_fract_x
  _atom_site_fract_y
  _atom_site_fract_z
  _atom_site_occupancy
  Al  Al1       1.0  0.4999900714501564  0.5000148897080477  0.5000054976216504  1.0000
  Al  Al2       1.0  0.9999989478809824  0.49999502445653105  0.5000060220744943  1.0000
  H   H1        1.0  0.2371079497233525  0.5903549619464669  0.4098294493051498  1.0000
  H   H2        1.0  0.7628964762622489  0.4096531384289718  0.5901813847753561  1.0000
  H   H3        1.0  0.849186356147847  0.5921953246088447  0.7353841224416087  1.0000
  H   H4        1.0  0.785005146595857  0.5926519183356261  0.8839025142056443  1.0000
  H   H5        1.0  0.432397560488063  0.36857312211925825  0.8981714795397694  1.0000
  H   H6        1.0  0.56756695668156  0.631379568212729  0.10183071808352652  1.0000
  H   H7        1.0  0.21498176615993006  0.4073484843210763  0.1161119681433505  1.0000
  H   H8        1.0  0.1507985916309309  0.407827764942887  0.2646293125861874  1.0000
  H   H9        1.0  0.3009472812916061  0.8796594764028498  0.4434122803022902  1.0000
  H   H10       1.0  0.699063638977826  0.12035688362697528  0.5565789978849125  1.0000
  H   H11       1.0  0.0796092961627934  0.0604905127821027  0.38699610314157706  1.0000
  H   H12       1.0  0.15751107042115825  0.20214015815114542  0.3724511895054974  1.0000
  H   H13       1.0  0.986194553088474  0.17973219737945803  0.45668538775181844  1.0000
  H   H14       1.0  0.013815493380875142  0.8202763702893846  0.5432863547417455  1.0000
  H   H15       1.0  0.8425357656116504  0.7978710313002608  0.6275273250768266  1.0000
  H   H16       1.0  0.9204580526930786  0.9395190757849929  0.6129749659889969  1.0000
  C   C1        1.0  0.6319903798235559  0.7279874955069869  0.5049345671157823  1.0000
  C   C2        1.0  0.7993227867211203  0.5048567994971904  0.35594599864332827  1.0000
  C   C3        1.0  0.3680278980212607  0.2720201214099233  0.49506382265463594  1.0000
  C   C4        1.0  0.20068394224619387  0.49514962796230566  0.6440589255290377  1.0000
  C   C5        1.0  0.1771266872793262  0.485779531378256  0.7327872135913509  1.0000
  C   C6        1.0  0.9764360378950271  0.545297791826826  0.7720949195858112  1.0000
  C   C7        1.0  0.9396813645841534  0.5452252917408487  0.853994619528365  1.0000
  C   C8        1.0  0.10663202750920682  0.48154670804132854  0.8995314746269543  1.0000
  C   C9        1.0  0.3060901471837879  0.4193515674921925  0.861982527895215  1.0000
  C   C10       1.0  0.3420936389927007  0.4217149586294013  0.7793465380388298  1.0000
  C   C11       1.0  0.6938851583439245  0.5806133176713004  0.13802201762720054  1.0000
  C   C12       1.0  0.8933518788683228  0.5184379511397667  0.10047456078749661  1.0000
  C   C13       1.0  0.06030660058765142  0.45477910760275353  0.1460137305684768  1.0000
  C   C14       1.0  0.02354054467288336  0.4547142880294005  0.22790951910381813  1.0000
  C   C15       1.0  0.8228478444180709  0.514211826071282  0.2672160310837556  1.0000
  C   C16       1.0  0.6578602398234069  0.5782564429607147  0.220659963633139  1.0000
  C   C17       1.0  0.4329787304906105  0.13156027238213847  0.494363020985233  1.0000
  C   C18       1.0  0.5670299645780545  0.8684543597470552  0.5056237599567837  1.0000
  C   C19       1.0  0.3144178940811457  0.06630271417351707  0.4611650235551821  1.0000
  C   C20       1.0  0.6856148634312619  0.9337123450280768  0.5388104999912431  1.0000
  C   C21       1.0  0.38624744966450936  0.9345732015213243  0.46840481042557514  1.0000
  C   C22       1.0  0.6137757490943727  0.06544907758375727  0.5315796559383372  1.0000
  C   C23       1.0  0.12414229740772947  0.13024815522479827  0.41721621528134284  1.0000
  C   C24       1.0  0.8758878566075693  0.869765993525469  0.5827583143602695  1.0000
  N   N1        1.0  0.09114131278678882  0.47266176164749407  0.9833745996443355  1.0000
  N   N2        1.0  0.90885147898998  0.5273171857511727  0.01663302686901601  1.0000
  Cl  Cl1       1.0  0.5925630413594974  0.3368699120885664  0.7397947874630902  1.0000
  Cl  Cl2       1.0  0.40736277803355153  0.6630498522827893  0.2602034471626666  1.0000
  O   O1        1.0  0.4851596925008369  0.6744298837815845  0.5088600796391917  1.0000
  O   O2        1.0  0.9659121613417556  0.49196613012480117  0.3893598712650217  1.0000
  O   O3        1.0  0.1692835265757751  0.3277351756566275  0.5025308979947809  1.0000
  O   O4        1.0  0.38275079587489114  0.4911697973260941  0.6086549161864241  1.0000
  O   O5        1.0  0.5148399524257313  0.32559423467452575  0.4911513660223221  1.0000
  O   O6        1.0  0.03411077739657747  0.508022610659509  0.6106386454552961  1.0000
  O   O7        1.0  0.8307285604587591  0.6722601957655241  0.4974666705765857  1.0000
  O   O8        1.0  0.6172760275306716  0.5088485546016771  0.391360112266014  1.0000
  O   O9        1.0  0.23404850272415  0.5564952443714403  0.46457674049401027  1.0000
  O   O10       1.0  0.7659677904541482  0.4435072372235921  0.5354331752498142  1.0000
