data_image0
_chemical_formula_structural       Cd2H20C28S4N24
_chemical_formula_sum              "Cd2 H20 C28 S4 N24"
_cell_length_a       7.324834504219247
_cell_length_b       10.993974380767634
_cell_length_c       13.44981612467138
_cell_angle_alpha    114.25703567355602
_cell_angle_beta     105.82276515704004
_cell_angle_gamma    90.01480227005256

_space_group_name_H-M_alt    "P 1"
_space_group_IT_number       1

loop_
  _space_group_symop_operation_xyz
  'x, y, z'

loop_
  _atom_site_type_symbol
  _atom_site_label
  _atom_site_symmetry_multiplicity
  _atom_site_fract_x
  _atom_site_fract_y
  _atom_site_fract_z
  _atom_site_occupancy
  Cd  Cd1       1.0  0.5910018572024213  0.7498706935996609  0.999907875082734  1.0000
  Cd  Cd2       1.0  0.4089796909853973  0.2501183946072416  8.75156522468976e-05  1.0000
  H   H1        1.0  0.8046304254976565  0.007624318225133205  0.9422510641574111  1.0000
  H   H2        1.0  0.8631097295534005  0.492319384799508  0.057663143679995754  1.0000
  H   H3        1.0  0.19536833555923044  0.9923738914820391  0.05775213296039545  1.0000
  H   H4        1.0  0.13690180764806573  0.5076788547391899  0.9423419835981337  1.0000
  H   H5        1.0  0.7082903277833736  0.587000952674785  0.7527934952324247  1.0000
  H   H6        1.0  0.9556647019722322  0.9128995664388739  0.2472513256504884  1.0000
  H   H7        1.0  0.29170399903206606  0.41299623051077133  0.24720795550489796  1.0000
  H   H8        1.0  0.044338692641972  0.08710060082035652  0.7527487479810164  1.0000
  H   H9        1.0  0.916096568363443  0.8642548705725588  0.5988625824271738  1.0000
  H   H10       1.0  0.3170565197068598  0.6358225654407335  0.40149042207797  1.0000
  H   H11       1.0  0.083900433472671  0.1357493357313047  0.40114008426029824  1.0000
  H   H12       1.0  0.6829429404827041  0.364179721270979  0.5985179336222118  1.0000
  H   H13       1.0  0.6918046328377798  0.38416494894941877  0.39700028889879496  1.0000
  H   H14       1.0  0.295370953001033  0.11597472601383169  0.6030632642632555  1.0000
  H   H15       1.0  0.3082035857286484  0.6158381389725704  0.6029940312023214  1.0000
  H   H16       1.0  0.7046391909011477  0.8840314898100344  0.39693980553415315  1.0000
  H   H17       1.0  0.799064009623635  0.511843632365988  0.29909857626780945  1.0000
  H   H18       1.0  0.5003891976939413  0.9883439957104443  0.7010992163342424  1.0000
  H   H19       1.0  0.20093959571048003  0.48816549899055417  0.7008985175162581  1.0000
  H   H20       1.0  0.49962538342334284  0.011663235941625803  0.2989048532360813  1.0000
  C   C1        1.0  0.7922494421241526  0.9077848714327815  0.8742541938921566  1.0000
  C   C2        1.0  0.9185551534665849  0.5921812310917502  0.12568774308230246  1.0000
  C   C3        1.0  0.20775075634631432  0.09221327742849887  0.12574473804254896  1.0000
  C   C4        1.0  0.08145088097498393  0.4078180117662741  0.8743176293404961  1.0000
  C   C5        1.0  0.7406995651062758  0.694062065037805  0.7802115596691198  1.0000
  C   C6        1.0  0.9607153671341424  0.8058449506849498  0.21976965576256197  1.0000
  C   C7        1.0  0.2592905089416249  0.3059350868170725  0.21978775446631005  1.0000
  C   C8        1.0  0.039286423460879405  0.19415422876214453  0.7802313402356662  1.0000
  C   C9        1.0  0.5661670109098509  0.41450074718751045  0.8700481043460758  1.0000
  C   C10       1.0  0.696115998910045  0.08537176395721248  0.12994689315183902  1.0000
  C   C11       1.0  0.433838676433446  0.5854803001404605  0.12994456258260106  1.0000
  C   C12       1.0  0.3038671418929368  0.9146102789949708  0.8700456851970844  1.0000
  C   C13       1.0  0.8009794978943605  0.6849366281854614  0.6044991441875142  1.0000
  C   C14       1.0  0.19667394126295085  0.8151332118607686  0.3956902236502844  1.0000
  C   C15       1.0  0.1990215901036905  0.3150665607910454  0.39550231628546595  1.0000
  C   C16       1.0  0.8033303339578524  0.1848720275939471  0.6043146183421869  1.0000
  C   C17       1.0  0.8677136956979082  0.7566061749954259  0.5533896057800763  1.0000
  C   C18       1.0  0.3142272185573703  0.7434677911077685  0.44691345228328333  1.0000
  C   C19       1.0  0.1322792348445816  0.24339899516870392  0.4466105340840871  1.0000
  C   C20       1.0  0.6857710094818046  0.2565354660934389  0.5530928055181052  1.0000
  C   C21       1.0  0.7420063906227341  0.4918208511168984  0.44211626191224707  1.0000
  C   C22       1.0  0.30023801001421907  0.0082787871939729  0.5580578055871117  1.0000
  C   C23       1.0  0.2579934741459127  0.5081832762688521  0.5578808608392622  1.0000
  C   C24       1.0  0.6997733719856642  0.9917264367535668  0.4419458688939743  1.0000
  C   C25       1.0  0.8023310416726445  0.5621819236767537  0.38839369888862774  1.0000
  C   C26       1.0  0.41425842052982625  0.9379427528201913  0.6118220796254833  1.0000
  C   C27       1.0  0.1976734358377001  0.43782423611498444  0.6116055266295038  1.0000
  C   C28       1.0  0.5857510123450211  0.06205942877280529  0.3881788180197817  1.0000
  S   S1        1.0  0.612273177489115  0.2663512699361235  0.8616325661779674  1.0000
  S   S2        1.0  0.7508694431649587  0.23375061079327253  0.13884874294873842  1.0000
  S   S3        1.0  0.3877289616760394  0.7336418775194103  0.1383665059656495  1.0000
  S   S4        1.0  0.2491201434514069  0.766235276473296  0.8611326798577185  1.0000
  N   N1        1.0  0.7405377125364652  0.7914781385207803  0.8800655033108742  1.0000
  N   N2        1.0  0.8608664996933797  0.70842447991928  0.11982477158050393  1.0000
  N   N3        1.0  0.25945130488763374  0.2085210004013689  0.11993281591946214  1.0000
  N   N4        1.0  0.13913705557910558  0.29157675738482414  0.8801801380825085  1.0000
  N   N5        1.0  0.5337291608630964  0.522641996144273  0.8763247566491119  1.0000
  N   N6        1.0  0.6572756928770147  0.977062702788494  0.12331177102747404  1.0000
  N   N7        1.0  0.4662749720320178  0.47735403326452536  0.12366589321690928  1.0000
  N   N8        1.0  0.34270551814469746  0.0229404504768382  0.8766874335814523  1.0000
  N   N9        1.0  0.7900766841718719  0.7505600160076326  0.7173451658435185  1.0000
  N   N10       1.0  0.07299838305454644  0.7494742545089678  0.28273641582678277  1.0000
  N   N11       1.0  0.2099137528238515  0.24943912622913442  0.28265336784907913  1.0000
  N   N12       1.0  0.9270097938806143  0.2505289831208728  0.7172683567801743  1.0000
  N   N13       1.0  0.8242086161493491  0.8873747511329952  0.7766269677000043  1.0000
  N   N14       1.0  0.04801505211959519  0.6126735891053129  0.22341937528563707  1.0000
  N   N15       1.0  0.1757846570159458  0.11262440842642009  0.22337274152467054  1.0000
  N   N16       1.0  0.9519890446009569  0.3873306444650382  0.7765851103206887  1.0000
  N   N17       1.0  0.7405987417000548  0.5537026763510441  0.5509529353101927  1.0000
  N   N18       1.0  0.18997072307342935  0.9463689189863023  0.44918186562881623  1.0000
  N   N19       1.0  0.2593995190494028  0.4463004632225632  0.44904510980803297  1.0000
  N   N20       1.0  0.8100362157640293  0.0536353105198657  0.5508223022944707  1.0000
  N   N21       1.0  0.8659493870242443  0.6942705390613071  0.4442784294348884  1.0000
  N   N22       1.0  0.42168103730358547  0.8057976859300592  0.5560386202515204  1.0000
  N   N23       1.0  0.13405063840268383  0.3057346583693175  0.5557235293481286  1.0000
  N   N24       1.0  0.5783253600857992  0.1942035473098542  0.44396597172845303  1.0000
