data_image0
_chemical_formula_structural       Zn8H24C48S6O44
_chemical_formula_sum              "Zn8 H24 C48 S6 O44"
_cell_length_a       18.2068161355078
_cell_length_b       18.3300614824463
_cell_length_c       18.23825448346503
_cell_angle_alpha    120.63418966228927
_cell_angle_beta     119.0829672791451
_cell_angle_gamma    89.78294407328448

_space_group_name_H-M_alt    "P 1"
_space_group_IT_number       1

loop_
  _space_group_symop_operation_xyz
  'x, y, z'

loop_
  _atom_site_type_symbol
  _atom_site_label
  _atom_site_symmetry_multiplicity
  _atom_site_fract_x
  _atom_site_fract_y
  _atom_site_fract_z
  _atom_site_occupancy
  Zn  Zn1       1.0  0.948390108584775  0.0487395179110806  0.09459893078101095  1.0000
  Zn  Zn2       1.0  0.9461114974182011  0.8676109253755726  0.9190444995044941  1.0000
  Zn  Zn3       1.0  0.12092377043170906  0.0375914312252661  0.08917046879702183  1.0000
  Zn  Zn4       1.0  0.9523682845676049  0.0408209479290846  0.9170671796615864  1.0000
  Zn  Zn5       1.0  0.5310743992538391  0.45675253523053516  0.9138077008776192  1.0000
  Zn  Zn6       1.0  0.5316892478120395  0.6306577722301583  0.0958789884051896  1.0000
  Zn  Zn7       1.0  0.5360505344065984  0.4558625601815863  0.093040154408662  1.0000
  Zn  Zn8       1.0  0.3597354390903932  0.4475594623484298  0.9162442129046582  1.0000
  H   H1        1.0  0.8530515187052218  0.8924119244399906  0.17125334131502976  1.0000
  H   H2        1.0  0.752449439530274  0.7902901809585927  0.16138686855946796  1.0000
  H   H3        1.0  0.7020331623418273  0.7293581712744128  0.8392094584511511  1.0000
  H   H4        1.0  0.5931482362301992  0.5126052777068963  0.8196570368386631  1.0000
  H   H5        1.0  0.16564544899053868  0.31776584674122443  0.41104218378688273  1.0000
  H   H6        1.0  0.26839779571317024  0.4120662771455059  0.6024068706945016  1.0000
  H   H7        1.0  0.21779465249133523  0.08369108387753951  0.399026285709482  1.0000
  H   H8        1.0  0.39706892632158025  0.09092579377311685  0.558876626241009  1.0000
  H   H9        1.0  0.7287087460034983  0.1426490460006704  0.03473390493101662  1.0000
  H   H10       1.0  0.6303941279105277  0.23877643847148988  0.03090569187137506  1.0000
  H   H11       1.0  0.8645439679400796  0.27161394635258773  0.9730437739969419  1.0000
  H   H12       1.0  0.8791283318261663  0.39545340249409844  0.940843546765876  1.0000
  H   H13       1.0  0.13324966922602488  0.7392090001796914  0.05159140515197417  1.0000
  H   H14       1.0  0.23427449218177535  0.6471396184485483  0.05811018839386844  1.0000
  H   H15       1.0  0.2348502278076978  0.8361718594888357  0.9366963369713446  1.0000
  H   H16       1.0  0.432635696606262  0.8529724494012427  0.9900028662846552  1.0000
  H   H17       1.0  0.8625643706224013  0.7018000075430634  0.597981329461767  1.0000
  H   H18       1.0  0.7643817423069665  0.6086200508089874  0.4048894853479934  1.0000
  H   H19       1.0  0.7140114294417546  0.8854117906021062  0.6120501796312752  1.0000
  H   H20       1.0  0.5781278260988428  0.9210939560142818  0.5136442828713111  1.0000
  H   H21       1.0  0.24684735467392474  0.2981924547222902  0.16242772696522678  1.0000
  H   H22       1.0  0.34242115628304504  0.39588226708119106  0.162758268850382  1.0000
  H   H23       1.0  0.1582893356040671  0.082853490595447  0.8522063630355632  1.0000
  H   H24       1.0  0.21518671963353597  0.15145496914423257  0.6904359300260339  1.0000
  C   C1        1.0  0.8478226016930677  0.8720829699133076  0.00938317421831392  1.0000
  C   C2        1.0  0.785446500260143  0.8161164791581326  0.006204747452990137  1.0000
  C   C3        1.0  0.7981287272981633  0.8346863891464622  0.09685722695076744  1.0000
  C   C4        1.0  0.7418903928672834  0.7780142783419918  0.09135599571475678  1.0000
  C   C5        1.0  0.6713759295055015  0.7032103417025938  0.995939726709814  1.0000
  C   C6        1.0  0.6190420317366405  0.6419156104977191  0.9978855831124847  1.0000
  C   C7        1.0  0.6566334678078507  0.6878557164183192  0.9050879206138162  1.0000
  C   C8        1.0  0.7138777373634042  0.743033497861056  0.9102681418760027  1.0000
  C   C9        1.0  0.1281341535324927  0.1375235097456695  0.2781745881046546  1.0000
  C   C10       1.0  0.18631396404591533  0.19514721582993394  0.3932954237041244  1.0000
  C   C11       1.0  0.19902486654456208  0.2871760079244083  0.45058691860532457  1.0000
  C   C12       1.0  0.2556516937656852  0.33982321398237036  0.5577002748717986  1.0000
  C   C13       1.0  0.29615200447624807  0.3005461150518869  0.6093746003626492  1.0000
  C   C14       1.0  0.3533926200993704  0.35940499466963155  0.7254665160120195  1.0000
  C   C15       1.0  0.28013452197521355  0.20773671943396008  0.5509694652490039  1.0000
  C   C16       1.0  0.22763351267882112  0.1552365970531184  0.4434567164902461  1.0000
  C   C17       1.0  0.8588921628269901  0.14273286049470363  0.0035137205839175  1.0000
  C   C18       1.0  0.8006699843387823  0.20033127966567577  0.0015469280502741567  1.0000
  C   C19       1.0  0.7358480866730093  0.19150358893506333  0.019515483530994946  1.0000
  C   C20       1.0  0.6817187103368455  0.24502034755795418  0.017870158869960826  1.0000
  C   C21       1.0  0.6920651921878616  0.3087905799331878  0.9999287723282677  1.0000
  C   C22       1.0  0.6300659568301585  0.3628014151513312  0.9984957820559829  1.0000
  C   C23       1.0  0.7588090858514676  0.31880188292497996  0.9842306633300878  1.0000
  C   C24       1.0  0.8120925231527851  0.2640098022088324  0.9838212152051253  1.0000
  C   C25       1.0  0.12403668834501501  0.8550949166642423  0.9993475598135503  1.0000
  C   C26       1.0  0.18002525570078376  0.7953469147609055  0.9968571252733651  1.0000
  C   C27       1.0  0.17768639774681827  0.739935973835749  0.02789323166709317  1.0000
  C   C28       1.0  0.2333021831888971  0.6878129965386677  0.0303237315626673  1.0000
  C   C29       1.0  0.28857537334383215  0.6864790888193256  0.9969508688397467  1.0000
  C   C30       1.0  0.34778872458793586  0.6293293314933803  0.003125280475202768  1.0000
  C   C31       1.0  0.28625004995672754  0.7380723590290472  0.9600483692165936  1.0000
  C   C32       1.0  0.23436270856024066  0.7944729922092433  0.9628255799422828  1.0000
  C   C33       1.0  0.8543360312268576  0.858482984170209  0.7305416436396894  1.0000
  C   C34       1.0  0.7954578567848218  0.8005392622121833  0.6156253502209664  1.0000
  C   C35       1.0  0.8089561491824498  0.7215554656720755  0.5581932185020404  1.0000
  C   C36       1.0  0.7541809005220231  0.6696637237666891  0.45112108099082326  1.0000
  C   C37       1.0  0.6845489213596069  0.6944673028204916  0.40006838611083845  1.0000
  C   C38       1.0  0.6310002294840444  0.6372503410433267  0.28466458755489293  1.0000
  C   C39       1.0  0.6691434315015811  0.7720273837823722  0.4586811507876118  1.0000
  C   C40       1.0  0.7252838746161031  0.8255337029727484  0.5657673555175788  1.0000
  C   C41       1.0  0.13342790292211507  0.13007375166497329  0.004491143067838261  1.0000
  C   C42       1.0  0.19332015397108662  0.18651545245180054  0.005761399067267813  1.0000
  C   C43       1.0  0.24764047498881342  0.27336333555471987  0.09443228064733936  1.0000
  C   C44       1.0  0.3014082535323652  0.3274895793249469  0.09487376100425841  1.0000
  C   C45       1.0  0.3043468741555842  0.29428699979659007  0.008525172631863144  1.0000
  C   C46       1.0  0.3600869912209959  0.35668131236744216  0.01101592534377712  1.0000
  C   C47       1.0  0.2540405339896168  0.2051366187106041  0.9225857591457397  1.0000
  C   C48       1.0  0.1968651303845093  0.1518723922470997  0.9196413208020431  1.0000
  S   S1        1.0  0.5619691000318454  0.601695574418656  0.7786644983717675  1.0000
  S   S2        1.0  0.31843878152054134  0.15295693172514285  0.6129127547366622  1.0000
  S   S3        1.0  0.7799319975820184  0.40647071916999516  0.9721401532941627  1.0000
  S   S4        1.0  0.33817998593751497  0.7227438077271414  0.8938514654383523  1.0000
  S   S5        1.0  0.5734245018552573  0.7992999887466185  0.3964622143611152  1.0000
  S   S6        1.0  0.2745130990078977  0.15188290822676007  0.8238939582220438  1.0000
  O   O1        1.0  0.9910149390176528  0.9986565108536138  0.00493842825243684  1.0000
  O   O2        1.0  0.8533029841509504  0.8330044411425064  0.931797014267019  1.0000
  O   O3        1.0  0.8904273769008526  0.9534143960210881  0.08866364665090706  1.0000
  O   O4        1.0  0.6022991439534097  0.678730685853182  0.0659268427139495  1.0000
  O   O5        1.0  0.6001184009294038  0.5572366785373505  0.9347350718088946  1.0000
  O   O6        1.0  0.4856136314708125  0.6018922853497911  0.7839829112121067  1.0000
  O   O7        1.0  0.5626403450765239  0.6100174321675524  0.7048921459928221  1.0000
  O   O8        1.0  0.5870310099272443  0.5137241805435409  0.7626632679109732  1.0000
  O   O9        1.0  0.16117739191489025  0.0864073321333336  0.23211046212618672  1.0000
  O   O10       1.0  0.05052632796054009  0.14347599141348155  0.23618846012069378  1.0000
  O   O11       1.0  0.3134266261895817  0.36682071343475536  0.768579039651442  1.0000
  O   O12       1.0  0.4343468793789072  0.39720717286704127  0.7678374807902912  1.0000
  O   O13       1.0  0.4006838523119642  0.2109313812918998  0.7118687693272605  1.0000
  O   O14       1.0  0.24344889385047006  0.10986850494441572  0.6012895199750689  1.0000
  O   O15       1.0  0.336052976217033  0.0701768096792108  0.5373744304855776  1.0000
  O   O16       1.0  0.9005670344324131  0.13619977372277248  0.9618725475275409  1.0000
  O   O17       1.0  0.8615590340385069  0.10470510120302379  0.04666368950873321  1.0000
  O   O18       1.0  0.6119673533509344  0.3858324378948765  0.06477273273220878  1.0000
  O   O19       1.0  0.6003745578985474  0.3780727679261204  0.93035221306463  1.0000
  O   O20       1.0  0.7261055654489186  0.37619651785786345  0.8660981021562291  1.0000
  O   O21       1.0  0.7843146892734368  0.48791891508434293  0.053207680266680685  1.0000
  O   O22       1.0  0.8814021249871687  0.4167150482021924  0.0034635732867726887  1.0000
  O   O23       1.0  0.16066528854013748  0.9344969282640606  0.03333649534393863  1.0000
  O   O24       1.0  0.0445860976450732  0.821966699725607  0.9676229208194657  1.0000
  O   O25       1.0  0.30946925156765576  0.545676598104656  0.9326467341523285  1.0000
  O   O26       1.0  0.42794638360378906  0.6698441368927418  0.0802134034805417  1.0000
  O   O27       1.0  0.41464793197864946  0.6962744922203968  0.933447091538916  1.0000
  O   O28       1.0  0.269368867487529  0.6721529925704816  0.7860462497760563  1.0000
  O   O29       1.0  0.3719544314467313  0.8230636664406177  0.9279264184949765  1.0000
  O   O30       1.0  0.8587367224236078  0.9408154322301027  0.7752453134632588  1.0000
  O   O31       1.0  0.8951123363094811  0.8212470465085742  0.7743466189640882  1.0000
  O   O32       1.0  0.6114818150622199  0.5531766974958144  0.2409585229919101  1.0000
  O   O33       1.0  0.6132340989642344  0.678141473598636  0.24209557343155536  1.0000
  O   O34       1.0  0.5942733657585252  0.8584625498413345  0.37449944118291956  1.0000
  O   O35       1.0  0.49864424965038984  0.7185228931378305  0.31990569008268466  1.0000
  O   O36       1.0  0.5596634118386632  0.8587264259056439  0.48935193110954567  1.0000
  O   O37       1.0  0.05504241954642451  0.0841960995669453  0.9225202080916404  1.0000
  O   O38       1.0  0.16544915509740582  0.13287086267398246  0.08603978423393237  1.0000
  O   O39       1.0  0.44289533319097546  0.38769798771056685  0.07998306786644345  1.0000
  O   O40       1.0  0.3174180297230081  0.3760520983710975  0.9474164341467953  1.0000
  O   O41       1.0  0.36369553643647384  0.19955594349922728  0.867007145994016  1.0000
  O   O42       1.0  0.24956768216905098  0.057100990958396394  0.7774469150535593  1.0000
  O   O43       1.0  0.2044693760225584  0.17152729695656177  0.7457313622057598  1.0000
  O   O44       1.0  0.49040402094027524  0.4986196086992507  0.005139681829369568  1.0000
