data_image0
_chemical_formula_structural       Zn8H72C90SO29
_chemical_formula_sum              "Zn8 H72 C90 S1 O29"
_cell_length_a       18.445432369127094
_cell_length_b       18.209945977360615
_cell_length_c       18.263484109126257
_cell_angle_alpha    59.669356656249725
_cell_angle_beta     59.90899009947101
_cell_angle_gamma    60.28741437457075

_space_group_name_H-M_alt    "P 1"
_space_group_IT_number       1

loop_
  _space_group_symop_operation_xyz
  'x, y, z'

loop_
  _atom_site_type_symbol
  _atom_site_label
  _atom_site_symmetry_multiplicity
  _atom_site_fract_x
  _atom_site_fract_y
  _atom_site_fract_z
  _atom_site_occupancy
  Zn  Zn1       1.0  0.8688886478806024  0.048321250299750304  0.5416496361301599  1.0000
  Zn  Zn2       1.0  0.040911526724229916  0.8697642419788281  0.5456334741098486  1.0000
  Zn  Zn3       1.0  0.04154213695370149  0.044635959791023104  0.5416844319986255  1.0000
  Zn  Zn4       1.0  0.040078308351752405  0.04863134358842561  0.36398867102226273  1.0000
  Zn  Zn5       1.0  0.6299388690134504  0.4501210297707774  0.961580735351099  1.0000
  Zn  Zn6       1.0  0.4606251076501592  0.44865596590862117  0.9558394992201547  1.0000
  Zn  Zn7       1.0  0.45676399043183114  0.6279510039890825  0.9535589807780415  1.0000
  Zn  Zn8       1.0  0.4570048075149984  0.4552260275650754  0.13223012944215648  1.0000
  H   H1        1.0  0.8809584853716572  0.28334416961332926  0.1966733144418315  1.0000
  H   H2        1.0  0.6156517176274647  0.21924121033239893  0.8699152694776874  1.0000
  H   H3        1.0  0.9047142384467153  0.15647781246668305  0.7544630220027316  1.0000
  H   H4        1.0  0.7985601416982673  0.33062028081288025  0.2811296358691354  1.0000
  H   H5        1.0  0.9055841156599768  0.25176397025789043  0.6563387019151821  1.0000
  H   H6        1.0  0.8160178298250429  0.2505494438277368  0.8410521303786357  1.0000
  H   H7        1.0  0.7869126822266637  0.0825463024606918  0.8252703944883425  1.0000
  H   H8        1.0  0.7006028887344654  0.1725538404508384  0.9149353309750841  1.0000
  H   H9        1.0  0.27871578035087907  0.12577579207184192  0.21057556166213245  1.0000
  H   H10       1.0  0.31883536516527033  0.09408374375256301  0.29585831114857813  1.0000
  H   H11       1.0  0.40768588908800746  0.18514273705282855  0.19092039764305482  1.0000
  H   H12       1.0  0.5984196270794513  0.2333072992811935  0.3210871581894354  1.0000
  H   H13       1.0  0.3552156129408885  0.23033767326874977  0.11193769203680404  1.0000
  H   H14       1.0  0.1472258479846644  0.26939672594198066  0.18636773599757112  1.0000
  H   H15       1.0  0.7031817361216497  0.4135347476598526  0.19798352446181874  1.0000
  H   H16       1.0  0.2313931438897399  0.3658811647172513  0.10228044608902571  1.0000
  H   H17       1.0  0.1401544643107755  0.27504193296457663  0.39098439530526025  1.0000
  H   H18       1.0  0.22591329416328412  0.17289738609748181  0.41376092666751424  1.0000
  H   H19       1.0  0.33433897892453507  0.24366053712970634  0.31702535219356065  1.0000
  H   H20       1.0  0.2463494249730544  0.34567274872790693  0.31644920485018013  1.0000
  H   H21       1.0  0.08523662556044795  0.323694800675277  0.2669245790460836  1.0000
  H   H22       1.0  0.02627809919268734  0.5347527286062644  0.6788979715913543  1.0000
  H   H23       1.0  0.8083380758159748  0.08625462384665641  0.28734547893203927  1.0000
  H   H24       1.0  0.1893125090849921  0.4991779052905799  0.6288857326442713  1.0000
  H   H25       1.0  0.2696314734053118  0.580291825585583  0.4729311556403532  1.0000
  H   H26       1.0  0.7863784476881646  0.37010949464893644  0.11094537447808535  1.0000
  H   H27       1.0  0.024367146969545665  0.7352261358757844  0.41716668324536954  1.0000
  H   H28       1.0  0.9442780132835225  0.652959985241097  0.5724785497938712  1.0000
  H   H29       1.0  0.27297581243475116  0.5875025363468609  0.31088927095569135  1.0000
  H   H30       1.0  0.2244719802527158  0.9135784859388495  0.18748186357189706  1.0000
  H   H31       1.0  0.4731839840153  0.7647056014128992  0.08254126636033735  1.0000
  H   H32       1.0  0.5542501156276883  0.8474112413940137  0.9281333206863923  1.0000
  H   H33       1.0  0.47329807202184776  0.9666035526409333  0.8210329197905256  1.0000
  H   H34       1.0  0.7208981477839629  0.16955927931087436  0.19589179753560168  1.0000
  H   H35       1.0  0.3103607819972183  0.0024832691740144  0.8694584048272915  1.0000
  H   H36       1.0  0.22910784505474868  0.9209481846252249  0.024761870034787203  1.0000
  H   H37       1.0  0.21952547569965472  0.18730682321921688  0.5764487277775246  1.0000
  H   H38       1.0  0.8888405026800255  0.13855451654145415  0.20231201797560777  1.0000
  H   H39       1.0  0.3519379535734259  0.07552080204663979  0.5090838418752313  1.0000
  H   H40       1.0  0.3580796659108144  0.9162572139024905  0.5718670120087952  1.0000
  H   H41       1.0  0.10070674496492411  0.9791223122260535  0.7697397722338909  1.0000
  H   H42       1.0  0.09428037104066081  0.13813554666611344  0.7077131385482789  1.0000
  H   H43       1.0  0.32348386705164967  0.8059586229876815  0.7789099586489032  1.0000
  H   H44       1.0  0.17033394555006243  0.6876718894892236  0.7269039473518435  1.0000
  H   H45       1.0  0.704494035108283  0.2679494658762707  0.6372350760044514  1.0000
  H   H46       1.0  0.38611294009877634  0.5124095846191353  0.7354154401532896  1.0000
  H   H47       1.0  0.3876114259933345  0.3544875103059368  0.8022452612159658  1.0000
  H   H48       1.0  0.26372052047261013  0.3090649084991881  0.9392530063422132  1.0000
  H   H49       1.0  0.13829678863002928  0.42369005654856556  0.008848182968883095  1.0000
  H   H50       1.0  0.798510622412593  0.22617030981490427  0.11209467555065102  1.0000
  H   H51       1.0  0.13820181203644916  0.5800402179063299  0.9428873526945057  1.0000
  H   H52       1.0  0.5143934881026908  0.19592065107180193  0.615803560215305  1.0000
  H   H53       1.0  0.5820492462355277  0.132969038456352  0.7327982566876232  1.0000
  H   H54       1.0  0.6725873904171494  0.9719276543904414  0.7779024249063871  1.0000
  H   H55       1.0  0.6249947748907373  0.9338230717126097  0.5934854777829204  1.0000
  H   H56       1.0  0.7846863702836302  0.3206460633636469  0.5882779599330519  1.0000
  H   H57       1.0  0.5354554372831616  0.09555729176318552  0.5469470736709994  1.0000
  H   H58       1.0  0.5864741078387326  0.8108351224191143  0.784919365604658  1.0000
  H   H59       1.0  0.9096886303564985  0.6886202376247967  0.7190597427934411  1.0000
  H   H60       1.0  0.8603462151949158  0.5671432095469984  0.9202723554236916  1.0000
  H   H61       1.0  0.9492568400098377  0.4058727336702574  0.9704847869972116  1.0000
  H   H62       1.0  0.6889245369144491  0.15309061985794167  0.410202592248922  1.0000
  H   H63       1.0  0.9803012389968444  0.3042071163714014  0.897453334044357  1.0000
  H   H64       1.0  0.9231942995377977  0.3655734115338164  0.7728296170895564  1.0000
  H   H65       1.0  0.8335587086094307  0.5264258690143678  0.723479218706345  1.0000
  H   H66       1.0  0.6833586171035789  0.25402970403838054  0.40580435557456707  1.0000
  H   H67       1.0  0.6916466421562218  0.4105415909787098  0.6778903392470075  1.0000
  H   H68       1.0  0.5901253901829195  0.3342313138438726  0.3197728761546444  1.0000
  H   H69       1.0  0.813664996451223  0.3456038472299598  0.7429134755826399  1.0000
  H   H70       1.0  0.23688732019689954  0.5127384279171565  0.15658007899869394  1.0000
  H   H71       1.0  0.6122992191209421  0.35599646969555476  0.7302864647942189  1.0000
  H   H72       1.0  0.7042416118473015  0.131125084283596  0.776794967444296  1.0000
  C   C1        1.0  0.13169115786848104  0.8633732667715037  0.3599008514443939  1.0000
  C   C2        1.0  0.8613781496756304  0.219277797373266  0.7204085606411398  1.0000
  C   C3        1.0  0.8042675247409788  0.196423308498197  0.7011923729460039  1.0000
  C   C4        1.0  0.860929232644864  0.13749016404668885  0.6425755557654684  1.0000
  C   C5        1.0  0.7036046375639912  0.297652197777282  0.801518364925059  1.0000
  C   C6        1.0  0.6863189104503107  0.20645435038918697  0.8515987684384855  1.0000
  C   C7        1.0  0.8016782706249829  0.28070961468078814  0.7783776227249181  1.0000
  C   C8        1.0  0.28660760377422173  0.1521826883165787  0.24759334642996586  1.0000
  C   C9        1.0  0.34259071769377397  0.21593182451993445  0.1825569807324286  1.0000
  C   C10       1.0  0.15290366685662352  0.2885742699505371  0.23094009164915263  1.0000
  C   C11       1.0  0.20491825403797753  0.2325590550194505  0.35906081172596066  1.0000
  C   C12       1.0  0.698827759011536  0.218294665396968  0.3634645963981599  1.0000
  C   C13       1.0  0.19436353278340585  0.2038440025187711  0.29987125165998685  1.0000
  C   C14       1.0  0.2950147964725999  0.30595492650132894  0.20126427144450806  1.0000
  C   C15       1.0  0.21066097091527772  0.3511485881884724  0.17484494034754786  1.0000
  C   C16       1.0  0.8592280592227153  0.8635981444667709  0.638818723792817  1.0000
  C   C17       1.0  0.27220802700472285  0.2842074646833909  0.3017556750120678  1.0000
  C   C18       1.0  0.15301857033880137  0.5504316768648325  0.5823951924934223  1.0000
  C   C19       1.0  0.1982536187373681  0.5958277255856788  0.49476632794113606  1.0000
  C   C20       1.0  0.15243762098177885  0.6633342996564336  0.4347168951215894  1.0000
  C   C21       1.0  0.060566447444664044  0.6832971726153545  0.4636059011372639  1.0000
  C   C22       1.0  0.015659811291563096  0.6370661515862251  0.5507770303994522  1.0000
  C   C23       1.0  0.7965145230155456  0.2027406971167167  0.30277659284420383  1.0000
  C   C24       1.0  0.061559667437656194  0.570730176678005  0.6107093973947927  1.0000
  C   C25       1.0  0.2626377982967725  0.6593089228573065  0.2845782173470681  1.0000
  C   C26       1.0  0.30938410736190747  0.6976787194818928  0.19412991488617595  1.0000
  C   C27       1.0  0.29620196089098266  0.7909367601687054  0.1572195712746593  1.0000
  C   C28       1.0  0.13591641779166244  0.1440124743863009  0.3563013594567083  1.0000
  C   C29       1.0  0.23494976470106368  0.841745597467039  0.2136436547691646  1.0000
  C   C30       1.0  0.18850229567833293  0.8033653692513243  0.304143688241304  1.0000
  C   C31       1.0  0.20147170761845945  0.7100917341808997  0.3410652689737504  1.0000
  C   C32       1.0  0.437510972673401  0.8171613977620782  0.0357599673811678  1.0000
  C   C33       1.0  0.48289906856342674  0.8636572979762536  0.9491032987998339  1.0000
  C   C34       1.0  0.693572793291807  0.29570772797279693  0.20514083943584893  1.0000
  C   C35       1.0  0.43751732616680505  0.9305461645931957  0.8888517271876569  1.0000
  C   C36       1.0  0.3461686482882769  0.9509519651609538  0.9162776563669157  1.0000
  C   C37       1.0  0.30041190691967046  0.9053489712728224  0.0034523399579243714  1.0000
  C   C38       1.0  0.3456839490146918  0.8375220410821742  0.06383806736795376  1.0000
  C   C39       1.0  0.2966224576173462  0.05470358507281501  0.5663409661187232  1.0000
  C   C40       1.0  0.1367452650083151  0.8615279564508287  0.6397649881274392  1.0000
  C   C41       1.0  0.3002609144727799  0.9651505545562673  0.6015694637104901  1.0000
  C   C42       1.0  0.22962522404742436  0.9372908854202608  0.6745317860993866  1.0000
  C   C43       1.0  0.15592980849368127  0.0003337415751118994  0.7128649021031424  1.0000
  C   C44       1.0  0.15240414418167345  0.08963503331102633  0.6777885020724385  1.0000
  C   C45       1.0  0.7588099293894145  0.20819466779918375  0.18396382529662264  1.0000
  C   C46       1.0  0.22261679357870182  0.11730650209186422  0.6041737973178628  1.0000
  C   C47       1.0  0.2897432099670141  0.780580010529299  0.7664615253404607  1.0000
  C   C48       1.0  0.3016549613629492  0.6881973534518765  0.8060772387547108  1.0000
  C   C49       1.0  0.2578719455671388  0.6528313365603184  0.7928319851082367  1.0000
  C   C50       1.0  0.2045604196679917  0.712946010810086  0.7388788344334574  1.0000
  C   C51       1.0  0.19330370950282114  0.8052018425413439  0.6985315139974306  1.0000
  C   C52       1.0  0.8580866672808868  0.1485751682418552  0.3581737168030585  1.0000
  C   C53       1.0  0.23604430905809445  0.8408039883473607  0.7129593025656505  1.0000
  C   C54       1.0  0.33169513003675627  0.49262152027851175  0.795101165053318  1.0000
  C   C55       1.0  0.33248698115906444  0.40397793993146547  0.8329047291408287  1.0000
  C   C56       1.0  0.6379494125570702  0.27198678204263876  0.305593350936789  1.0000
  C   C57       1.0  0.2631362124177699  0.3783979546652745  0.9100009653349521  1.0000
  C   C58       1.0  0.19313838010354797  0.4421575812300987  0.9489267554525758  1.0000
  C   C59       1.0  0.19252280824656504  0.530934226001051  0.9113586369216269  1.0000
  C   C60       1.0  0.26187681203065666  0.5568314938743345  0.8343191304403209  1.0000
  C   C61       1.0  0.5916613557142372  0.08960925774756129  0.7017324055782483  1.0000
  C   C62       1.0  0.642419707517547  0.999071953482897  0.7272751290112754  1.0000
  C   C63       1.0  0.6555099276304331  0.9423128478713142  0.6880094586984813  1.0000
  C   C64       1.0  0.8111221349325604  0.2948110767526373  0.24008172037591216  1.0000
  C   C65       1.0  0.615549813782543  0.9777497452243509  0.6238422062411221  1.0000
  C   C66       1.0  0.5653721259190905  0.0686555065283514  0.5977073334274152  1.0000
  C   C67       1.0  0.743497646281803  0.28476489353898427  0.652869615123393  1.0000
  C   C68       1.0  0.5533548087270859  0.12490787730431661  0.6364492684727666  1.0000
  C   C69       1.0  0.6579946357317823  0.7847513601934752  0.7692210647290524  1.0000
  C   C70       1.0  0.6973442891768259  0.6916685488698848  0.8045517835380667  1.0000
  C   C71       1.0  0.7897927417168942  0.6549499892929235  0.7873965143436981  1.0000
  C   C72       1.0  0.838152519427602  0.7147601152764693  0.7349317416206349  1.0000
  C   C73       1.0  0.7988587907118045  0.8078534181151371  0.6993553718985982  1.0000
  C   C74       1.0  0.7061956425968885  0.8446539545925166  0.7177188936775283  1.0000
  C   C75       1.0  0.8740916412714765  0.5227957998201733  0.88804612769863  1.0000
  C   C76       1.0  0.7486498545698909  0.35087078042688796  0.18336078348885854  1.0000
  C   C77       1.0  0.9238787753152167  0.43202252838334243  0.9163725472946994  1.0000
  C   C78       1.0  0.6824950428816051  0.3441544015685168  0.7131941533117899  1.0000
  C   C79       1.0  0.9413906596702547  0.375072770033313  0.875384731401255  1.0000
  C   C80       1.0  0.9091380943750451  0.4094990685212921  0.8056304149504148  1.0000
  C   C81       1.0  0.8588318301854938  0.4999453362101677  0.7777751888963709  1.0000
  C   C82       1.0  0.8401448630278663  0.557365506838842  0.8192847512835828  1.0000
  C   C83       1.0  0.3561856483844537  0.36318710445596736  0.1403834665132423  1.0000
  C   C84       1.0  0.6373278955751687  0.6356254957381468  0.863508083401236  1.0000
  C   C85       1.0  0.6428298180267122  0.35676812915268397  0.8599010435596101  1.0000
  C   C86       1.0  0.36712250503267535  0.6376861323542472  0.13853207821248512  1.0000
  C   C87       1.0  0.3605186151022012  0.631644835829505  0.8624497662119667  1.0000
  C   C88       1.0  0.8184046120466634  0.151987519156414  0.2435621324602196  1.0000
  C   C89       1.0  0.7448439049135943  0.1470957297052351  0.791253620454036  1.0000
  C   C90       1.0  0.6361086885326871  0.3504082456908151  0.1455530802423157  1.0000
  S   S1        1.0  0.13973232464270768  0.4610083361772724  0.185767942147436  1.0000
  O   O1        1.0  0.9987990876208171  0.0019011646351997956  0.4963568454164505  1.0000
  O   O2        1.0  0.3828865312362664  0.6744506037525256  0.05390516816689236  1.0000
  O   O3        1.0  0.3889382529518672  0.5467890680005709  0.8810322896434502  1.0000
  O   O4        1.0  0.10540782441551495  0.9478278119416785  0.3175652350326746  1.0000
  O   O5        1.0  0.5520633383853452  0.37180287515429467  0.18377527495992044  1.0000
  O   O6        1.0  0.37835039828407  0.6738040883321688  0.8865565666521605  1.0000
  O   O7        1.0  0.6770106980103776  0.37100935113252126  0.060914683844586946  1.0000
  O   O8        1.0  0.6792236384471764  0.38554389067540024  0.8793149053622502  1.0000
  O   O9        1.0  0.39383470246472285  0.5532561204562825  0.18131664164732106  1.0000
  O   O10       1.0  0.3923390778675112  0.36914787092803886  0.05822035032483098  1.0000
  O   O11       1.0  0.5556077564057065  0.6758775959479807  0.8701380093519051  1.0000
  O   O12       1.0  0.8243868451262415  0.9471198906487078  0.600993428148193  1.0000
  O   O13       1.0  0.8198188073437008  0.11226556233270912  0.6248331492632604  1.0000
  O   O14       1.0  0.9415680227931986  0.8222844916160882  0.6285611067577224  1.0000
  O   O15       1.0  0.11096965006856148  0.12164126809117451  0.44118788073508614  1.0000
  O   O16       1.0  0.11387427300893181  0.8196917987053213  0.6202762471270662  1.0000
  O   O17       1.0  0.9413444296046051  0.12544311330896113  0.31557049011969  1.0000
  O   O18       1.0  0.11575605082989432  0.9466269727865964  0.6136451579870014  1.0000
  O   O19       1.0  0.821664946133538  0.13072474610944343  0.44301545666888864  1.0000
  O   O20       1.0  0.07690733564448483  0.4972063652503709  0.14175936116595275  1.0000
  O   O21       1.0  0.1103685098534369  0.4569831023330907  0.27691800111344406  1.0000
  O   O22       1.0  0.20486987347250363  0.5214268789248067  0.1215401671154482  1.0000
  O   O23       1.0  0.1172846008173352  0.1206985766362365  0.31410244163907924  1.0000
  O   O24       1.0  0.11676549968422716  0.8254577380180096  0.44440320389021115  1.0000
  O   O25       1.0  0.9445815560621469  0.11780753864274374  0.6157271017306133  1.0000
  O   O26       1.0  0.4999242059097356  0.4956297184855813  0.0007833266694347363  1.0000
  O   O27       1.0  0.3659640224515499  0.40063593265681874  0.17673725834491466  1.0000
  O   O28       1.0  0.6717664896140788  0.5527620915379432  0.9036875155977673  1.0000
  O   O29       1.0  0.5597629740910861  0.3731090520227483  0.884746005897782  1.0000
