data_image0
_chemical_formula_structural       Sm4Cu6H48C48O60
_chemical_formula_sum              "Sm4 Cu6 H48 C48 O60"
_cell_length_a       14.710391887003928
_cell_length_b       14.90816660457282
_cell_length_c       14.908187453242618
_cell_angle_alpha    120.00039845128202
_cell_angle_beta     89.99994535998171
_cell_angle_gamma    90.00008249318283

_space_group_name_H-M_alt    "P 1"
_space_group_IT_number       1

loop_
  _space_group_symop_operation_xyz
  'x, y, z'

loop_
  _atom_site_type_symbol
  _atom_site_label
  _atom_site_symmetry_multiplicity
  _atom_site_fract_x
  _atom_site_fract_y
  _atom_site_fract_z
  _atom_site_occupancy
  Sm  Sm1       1.0  0.750000333398603  0.33333351315326354  0.6666658963968929  1.0000
  Sm  Sm2       1.0  0.750000059214841  0.6666662553606529  0.33333408643210294  1.0000
  Sm  Sm3       1.0  0.2500004632486749  0.6666659387032114  0.333334162079062  1.0000
  Sm  Sm4       1.0  0.2500000576413655  0.33333358376602734  0.6666655847743995  1.0000
  Cu  Cu1       1.0  1.1166600728999999e-06  1.10226390159935e-06  0.5000006387386335  1.0000
  Cu  Cu2       1.0  5.594348380000001e-07  0.4999997508854366  0.9999988211663506  1.0000
  Cu  Cu3       1.0  1.225672719e-07  0.5000010482241279  0.4999998074877111  1.0000
  Cu  Cu4       1.0  0.5000001554005351  0.49999968027223946  0.9999991327889434  1.0000
  Cu  Cu5       1.0  0.5000000328340591  3.608730950621502e-07  0.5000002795847821  1.0000
  Cu  Cu6       1.0  0.4999997185313915  0.4999991450218531  0.5000006101424076  1.0000
  H   H1        1.0  0.8477122309843209  0.15733297772511187  0.35911837914865435  1.0000
  H   H2        1.0  0.7578559649269323  0.07947379823976061  0.366112504155609  1.0000
  H   H3        1.0  0.8477133881309555  0.20178478066779376  0.8426652870995285  1.0000
  H   H4        1.0  0.7578578863759303  0.28664005777212503  0.9205256864317946  1.0000
  H   H5        1.0  0.8477116913243206  0.6408825794439963  0.7982143658622646  1.0000
  H   H6        1.0  0.7578568812750179  0.6338884271999705  0.7133604493208667  1.0000
  H   H7        1.0  0.8477105556808767  0.8426671980593597  0.6408826321601923  1.0000
  H   H8        1.0  0.7578550900385325  0.92052665100114  0.6338881470730086  1.0000
  H   H9        1.0  0.8477127974922638  0.7982151116122865  0.15733466616270406  1.0000
  H   H10       1.0  0.7578572473392595  0.7133607787419863  0.0794745775266533  1.0000
  H   H11       1.0  0.8477110953413527  0.3591179836111067  0.2017862581770372  1.0000
  H   H12       1.0  0.7578562130644428  0.36611096399440873  0.2866399184004393  1.0000
  H   H13       1.0  0.6522880430957586  0.35911866890423744  0.15733315811197457  1.0000
  H   H14       1.0  0.742144291781166  0.36611186479513697  0.07947389012522162  1.0000
  H   H15       1.0  0.65228633558705  0.8426647081973756  0.20178437463671622  1.0000
  H   H16       1.0  0.7421411974377534  0.9205258876946374  0.28664028019118576  1.0000
  H   H17       1.0  0.652288129134817  0.7982139655414855  0.6408819840288373  1.0000
  H   H18       1.0  0.7421422368768945  0.7133588825677606  0.6338875255322661  1.0000
  H   H19       1.0  0.6522879160905221  0.6408805885737436  0.8426672415531228  1.0000
  H   H20       1.0  0.7421440788975034  0.6338885645452877  0.9205267658574597  1.0000
  H   H21       1.0  0.6522869044338435  0.15733465304297312  0.7982145797131396  1.0000
  H   H22       1.0  0.7421430944910198  0.07947348359539315  0.7133600922851073  1.0000
  H   H23       1.0  0.6522885098431529  0.20178433765320855  0.3591166868135005  1.0000
  H   H24       1.0  0.7421427348435613  0.28663953443899015  0.36611111812127467  1.0000
  H   H25       1.0  0.1522878858718855  0.8426668614015682  0.6408812920578483  1.0000
  H   H26       1.0  0.24214415192896868  0.9205263243934637  0.6338882250969958  1.0000
  H   H27       1.0  0.152286728725251  0.7982150584588866  0.1573343841069741  1.0000
  H   H28       1.0  0.2421415506885722  0.7133591105769453  0.07947331399826388  1.0000
  H   H29       1.0  0.1522884255315802  0.3591175431892282  0.2017863633903402  1.0000
  H   H30       1.0  0.24214255578934293  0.3661116954328208  0.28664027993184504  1.0000
  H   H31       1.0  0.15228956117502426  0.15733292457386483  0.35911809709241277  1.0000
  H   H32       1.0  0.2421450268181431  0.07947357539617166  0.3661111368639425  1.0000
  H   H33       1.0  0.15228663957240227  0.20178472751396026  0.8426650050439052  1.0000
  H   H34       1.0  0.24214218972539922  0.28663906038426035  0.9205250936799558  1.0000
  H   H35       1.0  0.15228834172331324  0.6408818555151399  0.7982134130295719  1.0000
  H   H36       1.0  0.2421439037912947  0.6338884878616327  0.7133601400756149  1.0000
  H   H37       1.0  0.347711393969071  0.6408818409991854  0.8426671838711854  1.0000
  H   H38       1.0  0.2578551452830311  0.633887587060471  0.920526168350939  1.0000
  H   H39       1.0  0.34771378126821884  0.15733435638803422  0.7982160711088895  1.0000
  H   H40       1.0  0.25785891941845307  0.07947395143204279  0.7133593910153168  1.0000
  H   H41       1.0  0.34771198772138945  0.20178587358519462  0.35911768717766535  1.0000
  H   H42       1.0  0.257857879978843  0.2866405692882878  0.36611253294378787  1.0000
  H   H43       1.0  0.347711520973199  0.3591184760112398  0.15733320419258934  1.0000
  H   H44       1.0  0.25785603795902995  0.3661126161357444  0.07947424690214429  1.0000
  H   H45       1.0  0.34771253263129853  0.842665573353905  0.2017847042239182  1.0000
  H   H46       1.0  0.2578570223650232  0.9205256847541108  0.2866389081448444  1.0000
  H   H47       1.0  0.3477109272216765  0.7982161722502142  0.6408836551696522  1.0000
  H   H48       1.0  0.2578567022212681  0.7133609754644398  0.6338892238618782  1.0000
  C   C1        1.0  0.8608810689866003  0.12586251251106262  0.48419017687770355  1.0000
  C   C2        1.0  0.8027365089374284  0.1463805618856072  0.41213912561524785  1.0000
  C   C3        1.0  0.860882409045189  0.3583321175917292  0.8741382277852949  1.0000
  C   C4        1.0  0.8027370615011479  0.26576028107476196  0.8536196394579747  1.0000
  C   C5        1.0  0.8608846764786263  0.5158121848078777  0.6416698771960369  1.0000
  C   C6        1.0  0.8027366751591317  0.5878618090273023  0.734240912510991  1.0000
  C   C7        1.0  0.8608836399736504  0.8741423753963815  0.5158155258816207  1.0000
  C   C8        1.0  0.8027362607489507  0.853619556932131  0.5878618993025098  1.0000
  C   C9        1.0  0.8608836595023063  0.6416697555087082  0.12585439115105848  1.0000
  C   C10       1.0  0.8027357081866456  0.7342409995548779  0.14638022365112127  1.0000
  C   C11       1.0  0.8608834314408541  0.4841896605081146  0.35832813573306044  1.0000
  C   C12       1.0  0.8027354147353806  0.4121369682356574  0.26575877085376476  1.0000
  C   C13       1.0  0.6391171886635263  0.4841884269867691  0.1258597914420249  1.0000
  C   C14       1.0  0.6972637754543954  0.41213848807244347  0.1463805502906367  1.0000
  C   C15       1.0  0.6391173607629881  0.8741382260667977  0.3583321134353169  1.0000
  C   C16       1.0  0.6972626805846572  0.8536190430242314  0.26575978764817865  1.0000
  C   C17       1.0  0.6391150749483926  0.6416707405437665  0.5158115665556551  1.0000
  C   C18       1.0  0.6972637964129975  0.7342415220591363  0.5878615580241583  1.0000
  C   C19       1.0  0.6391168482299606  0.5158122591269105  0.8741405084458975  1.0000
  C   C20       1.0  0.6972635602937914  0.5878608263731238  0.8536198357653575  1.0000
  C   C21       1.0  0.6391166761237129  0.12585474241993216  0.6416705378505655  1.0000
  C   C22       1.0  0.6972646551633942  0.14638122570505635  0.7342423272304615  1.0000
  C   C23       1.0  0.6391162427779805  0.3583291710269165  0.4841895078717754  1.0000
  C   C24       1.0  0.697262859545063  0.2657589541979064  0.41213766622328046  1.0000
  C   C25       1.0  0.13911904786976947  0.8741379973927934  0.5158101651053497  1.0000
  C   C26       1.0  0.1972636079184724  0.8536195607476175  0.5878616036373573  1.0000
  C   C27       1.0  0.139117707810712  0.6416680050414882  0.12586250146730987  1.0000
  C   C28       1.0  0.19726305535522204  0.7342402288290941  0.14638070252507862  1.0000
  C   C29       1.0  0.13911408079258794  0.4841844801745055  0.3583289434896741  1.0000
  C   C30       1.0  0.1972634416970749  0.4121380300993779  0.2657587586955117  1.0000
  C   C31       1.0  0.13911647688225057  0.1258577472368358  0.4841852033709841  1.0000
  C   C32       1.0  0.19726385610678676  0.14637989492391065  0.4121381591735442  1.0000
  C   C33       1.0  0.13911645735390718  0.3583300836179719  0.8741452800554442  1.0000
  C   C34       1.0  0.197264408669561  0.2657588395718023  0.8536194475553813  1.0000
  C   C35       1.0  0.1391160056239755  0.5158108493953081  0.6416722062500924  1.0000
  C   C36       1.0  0.19726402232881673  0.587862483619958  0.734241287622396  1.0000
  C   C37       1.0  0.3608822484016089  0.5158117994101091  0.8741394924950328  1.0000
  C   C38       1.0  0.30273634140181127  0.5878613510542366  0.8536191209158658  1.0000
  C   C39       1.0  0.360883435885235  0.1258620003309474  0.6416671705015277  1.0000
  C   C40       1.0  0.30273675647953985  0.14638040883138365  0.734240270827982  1.0000
  C   C41       1.0  0.3608843621158043  0.35832871131184885  0.4841884919204986  1.0000
  C   C42       1.0  0.3027363204432163  0.26575831706754377  0.4121381131823441  1.0000
  C   C43       1.0  0.3608832686243417  0.48418440585633965  0.1258583122396074  1.0000
  C   C44       1.0  0.3027365565621097  0.4121392962600936  0.14638089348724748  1.0000
  C   C45       1.0  0.36088276094047705  0.8741447094356829  0.35832952062559525  1.0000
  C   C46       1.0  0.3027354616928193  0.8536186134216167  0.265757343976041  1.0000
  C   C47       1.0  0.3608845538701004  0.6416720096545417  0.515811504887722  1.0000
  C   C48       1.0  0.30273589772855314  0.734242897259442  0.5878640173130804  1.0000
  O   O1        1.0  0.9084059391105656  0.043793903396711256  0.43572424274171334  1.0000
  O   O2        1.0  0.8578743499043926  0.18826161090483134  0.5803103597901185  1.0000
  O   O3        1.0  0.9084100194645331  0.39192483901674546  0.9562008082764848  1.0000
  O   O4        1.0  0.857877785389661  0.3920501273384929  0.8117365907686603  1.0000
  O   O5        1.0  0.9084089550047381  0.5642787163413345  0.6080746063842354  1.0000
  O   O6        1.0  0.8578772248109701  0.4196884391622078  0.6079485735766496  1.0000
  O   O7        1.0  0.9084092627726364  0.9562044129142677  0.5642786865489453  1.0000
  O   O8        1.0  0.8578755634820895  0.8117373399628535  0.41968786157460153  1.0000
  O   O9        1.0  0.9084058622123832  0.6080731178097665  0.04379711429056231  1.0000
  O   O10       1.0  0.8578762067445211  0.6079486160035971  0.18826452122674905  1.0000
  O   O11       1.0  0.9084089660457478  0.4357210452898102  0.3919282191434519  1.0000
  O   O12       1.0  0.857875407739307  0.5803069502931423  0.39204918453621923  1.0000
  O   O13       1.0  0.5915936461230515  0.43572359010403977  0.04379549944740545  1.0000
  O   O14       1.0  0.642124626396651  0.5803127570676381  0.18826288919785833  1.0000
  O   O15       1.0  0.5915890989035545  0.9562012926157737  0.3919244385423751  1.0000
  O   O16       1.0  0.6421219773871697  0.8117364427154998  0.3920500035919117  1.0000
  O   O17       1.0  0.5915914798582662  0.6080729394027955  0.5642763284357597  1.0000
  O   O18       1.0  0.64212249478733  0.6079488980892834  0.41968585406213066  1.0000
  O   O19       1.0  0.5915946563833642  0.5642758740038119  0.9562059766290217  1.0000
  O   O20       1.0  0.6421248858606249  0.4196845789698503  0.8117340558971976  1.0000
  O   O21       1.0  0.5915944450636134  0.043798379017253794  0.6080741469034621  1.0000
  O   O22       1.0  0.642124135914159  0.188265021746993  0.6079495208473134  1.0000
  O   O23       1.0  0.5915900247348845  0.3919261652158498  0.43572014091818545  1.0000
  O   O24       1.0  0.6421222589315079  0.39205037429836426  0.5803091546858995  1.0000
  O   O25       1.0  0.0915941777453355  0.9562062192365064  0.5642764865108915  1.0000
  O   O26       1.0  0.1421250871598048  0.8117378409507837  0.419689698686035  1.0000
  O   O27       1.0  0.09159009739183689  0.6080756708871107  0.043799533706568555  1.0000
  O   O28       1.0  0.1421223314665454  0.6079497117881872  0.18826308043784215  1.0000
  O   O29       1.0  0.0915911618527403  0.43572323888096076  0.39192563183626555  1.0000
  O   O30       1.0  0.14212289204714776  0.5803145741079021  0.3920519481508505  1.0000
  O   O31       1.0  0.0915922136665159  0.043796380496992554  0.43572271348000413  1.0000
  O   O32       1.0  0.14212523316646036  0.18826422798923656  0.5803127639153515  1.0000
  O   O33       1.0  0.09159425464429918  0.39192710858754515  0.9562021696463887  1.0000
  O   O34       1.0  0.142123230319676  0.39205083585201816  0.8117355372494046  1.0000
  O   O35       1.0  0.09159115081079248  0.564280135391222  0.6080727936161452  1.0000
  O   O36       1.0  0.14212470911689928  0.41969288883353784  0.6079504866702834  1.0000
  O   O37       1.0  0.4084057909422468  0.5642773070700215  0.9562044552661958  1.0000
  O   O38       1.0  0.35787549045988243  0.4196884236133941  0.8117381235617458  1.0000
  O   O39       1.0  0.4084103381612749  0.0437992172876562  0.6080759034407777  1.0000
  O   O40       1.0  0.3578781394685678  0.18826300914054891  0.6079500548841424  1.0000
  O   O41       1.0  0.40840795720622947  0.391926228946275  0.43572267199429854  1.0000
  O   O42       1.0  0.3578776220688837  0.39205094103739674  0.5803138171443721  1.0000
  O   O43       1.0  0.4084061402640843  0.4357242486298389  0.043794752623483556  1.0000
  O   O44       1.0  0.3578752309952549  0.5803139186024708  0.1882642737562036  1.0000
  O   O45       1.0  0.40840635158382815  0.956201743616397  0.3919265823490432  1.0000
  O   O46       1.0  0.3578759809425166  0.8117352046503187  0.39204976308963774  1.0000
  O   O47       1.0  0.40841077191225145  0.6080742409243386  0.5642816463804151  1.0000
  O   O48       1.0  0.3578771781330373  0.6079520441724924  0.41969464494256664  1.0000
  O   O49       1.0  0.7499996769512906  0.23635709828062812  0.47271176413667604  1.0000
  O   O50       1.0  0.7500002153930082  0.23635580803021136  0.7636446718509761  1.0000
  O   O51       1.0  0.7500011078508991  0.5272882001620333  0.7636433692952309  1.0000
  O   O52       1.0  0.7500000358712455  0.7636437282806627  0.5272885021994184  1.0000
  O   O53       1.0  0.7499988176375183  0.7636446312600144  0.23635598175477657  1.0000
  O   O54       1.0  0.7499992847627085  0.4727122391290593  0.2363572843103157  1.0000
  O   O55       1.0  0.250000439904916  0.763642740846052  0.5272879070698265  1.0000
  O   O56       1.0  0.24999922167165783  0.7636440310960354  0.23635499935563317  1.0000
  O   O57       1.0  0.2500003685885588  0.4727123097426826  0.23635697268761638  1.0000
  O   O58       1.0  0.250000080984961  0.23635611084601046  0.47271116900708415  1.0000
  O   O59       1.0  0.25000061942714774  0.2363552078662325  0.7636436894518326  1.0000
  O   O60       1.0  0.2500001523019506  0.5272875999971874  0.7636423868962937  1.0000
