data_image0
_chemical_formula_structural       Cu4H4C16N24O2
_chemical_formula_sum              "Cu4 H4 C16 N24 O2"
_cell_length_a       6.936694579540033
_cell_length_b       8.799812993371203
_cell_length_c       11.372061502148648
_cell_angle_alpha    99.7011086665966
_cell_angle_beta     107.85298260302741
_cell_angle_gamma    89.90338954234

_space_group_name_H-M_alt    "P 1"
_space_group_IT_number       1

loop_
  _space_group_symop_operation_xyz
  'x, y, z'

loop_
  _atom_site_type_symbol
  _atom_site_label
  _atom_site_symmetry_multiplicity
  _atom_site_fract_x
  _atom_site_fract_y
  _atom_site_fract_z
  _atom_site_occupancy
  Cu  Cu1       1.0  0.999998732005224  0.5000041059764799  1.0267229769166169e-06  1.0000
  Cu  Cu2       1.0  5.03674980480856e-06  0.9999959544652132  0.9999992764049281  1.0000
  Cu  Cu3       1.0  4.818888982096959e-06  0.9999979787671978  0.5000026982844332  1.0000
  Cu  Cu4       1.0  0.49999775768969107  0.50000730032545  0.49999699224880345  1.0000
  H   H1        1.0  0.27541977377912724  0.24284551734362492  0.0690720626407426  1.0000
  H   H2        1.0  0.20635392619968937  0.255637913481877  0.9307114612485632  1.0000
  H   H3        1.0  0.7245794166653282  0.7571563843166448  0.9309235814137794  1.0000
  H   H4        1.0  0.7936378118830161  0.7443651489004354  0.06928648495259887  1.0000
  C   C1        1.0  0.5736428905269264  0.3311619599415395  0.8774008659252176  1.0000
  C   C2        1.0  0.6961078748972439  0.1689382318776468  0.12266576468032749  1.0000
  C   C3        1.0  0.4263641745581878  0.6688434071345172  0.12260194899638314  1.0000
  C   C4        1.0  0.30388529609390247  0.8310636753977434  0.8773322939379824  1.0000
  C   C5        1.0  0.32085359580928946  0.15744281260862894  0.7365274329542828  1.0000
  C   C6        1.0  0.5830451546267239  0.341742156109845  0.2635840961844238  1.0000
  C   C7        1.0  0.6791532149942155  0.8425590901222154  0.2634740052141565  1.0000
  C   C8        1.0  0.4169565177726823  0.6582528124345404  0.7364058246181386  1.0000
  C   C9        1.0  0.041083459368195484  0.45793016096444467  0.26556374774215635  1.0000
  C   C10       1.0  0.7766973674817734  0.042490894353051104  0.7343232737809373  1.0000
  C   C11       1.0  0.9589200634933659  0.5420671305703381  0.7344426431724357  1.0000
  C   C12       1.0  0.22328805844905023  0.9575087060633795  0.2656721853033943  1.0000
  C   C13       1.0  0.05413692345418038  0.30234088420058214  0.41250903332375793  1.0000
  C   C14       1.0  0.6419520777977468  0.19784129313572416  0.5871453511160496  1.0000
  C   C15       1.0  0.9458687183267285  0.6976656387913353  0.5874945504125576  1.0000
  C   C16       1.0  0.35805956276399786  0.8021421414939457  0.4128616044907075  1.0000
  N   N1        1.0  0.7252391343945845  0.4070573311552011  0.9248092764598184  1.0000
  N   N2        1.0  0.8007301282914908  0.09471167004993933  0.0744688668228903  1.0000
  N   N3        1.0  0.274775176791877  0.5929434148983362  0.07519426572130064  1.0000
  N   N4        1.0  0.19926304269965558  0.905290237225451  0.9255291917954266  1.0000
  N   N5        1.0  0.4013275076761644  0.25369088790550637  0.8386929016191189  1.0000
  N   N6        1.0  0.5617276592795404  0.24450558688536014  0.16207690928630564  1.0000
  N   N7        1.0  0.5986675185023387  0.746314490400792  0.16131474243006494  1.0000
  N   N8        1.0  0.4382788011999422  0.7554928434107924  0.8379143398103108  1.0000
  N   N9        1.0  0.23289778853432347  0.061244651492714325  0.6513446653629629  1.0000
  N   N10       1.0  0.5793743858987384  0.43847959069958636  0.3481742237901386  1.0000
  N   N11       1.0  0.76710885915093  0.9387549422139474  0.3486564424579369  1.0000
  N   N12       1.0  0.42063024820611616  0.5615153709925028  0.6518100835711991  1.0000
  N   N13       1.0  0.980936953573959  0.5128556623042543  0.1740141842023135  1.0000
  N   N14       1.0  0.8074410004119558  0.9870161105791982  0.8255180703544411  1.0000
  N   N15       1.0  0.01906367465798551  0.48714393701752845  0.8259893381823814  1.0000
  N   N16       1.0  0.19253798851184456  0.012980017355033605  0.1744634455988034  1.0000
  N   N17       1.0  0.12044014399479859  0.4130169959226607  0.3714401824969186  1.0000
  N   N18       1.0  0.7512684070926098  0.0880667697571269  0.6288607999212772  1.0000
  N   N19       1.0  0.8795396974732056  0.5869675992390101  0.6285540590194214  1.0000
  N   N20       1.0  0.24871080450044758  0.9119478673679854  0.3711627366552648  1.0000
  N   N21       1.0  0.0061454525102604025  0.20861378070644326  0.4622508832164343  1.0000
  N   N22       1.0  0.5426764738529143  0.2907351037771592  0.5367159868094262  1.0000
  N   N23       1.0  0.993863837140857  0.7914008267251662  0.537758818077414  1.0000
  N   N24       1.0  0.45734502907065167  0.7092390833114453  0.4632836594568203  1.0000
  O   O1        1.0  0.15074994992024668  0.2493514432840342  0.9997782844966848  1.0000
  O   O2        1.0  0.8492459669117023  0.7506469960296301  0.00021630885469652386  1.0000
