data_image0
_chemical_formula_structural       AlH27C45O9
_chemical_formula_sum              "Al1 H27 C45 O9"
_cell_length_a       3.9786950960567133
_cell_length_b       23.555696869293687
_cell_length_c       23.550853592597633
_cell_angle_alpha    60.043246138741154
_cell_angle_beta     87.54553879698048
_cell_angle_gamma    87.66940982486804

_space_group_name_H-M_alt    "P 1"
_space_group_IT_number       1

loop_
  _space_group_symop_operation_xyz
  'x, y, z'

loop_
  _atom_site_type_symbol
  _atom_site_label
  _atom_site_symmetry_multiplicity
  _atom_site_fract_x
  _atom_site_fract_y
  _atom_site_fract_z
  _atom_site_occupancy
  Al  Al1       1.0  0.050401925558375596  0.5000300776659329  0.49963700881846035  1.0000
  H   H1        1.0  0.8553382852721754  0.3354318498388905  0.6797273571542846  1.0000
  H   H2        1.0  0.8478232629040718  0.2730138905555393  0.7999058134613505  1.0000
  H   H3        1.0  0.8173526571718527  0.22311754680446683  0.8940105263817771  1.0000
  H   H4        1.0  0.8269827897042958  0.16458946183966824  0.013211352090294764  1.0000
  H   H5        1.0  0.22018995042016345  0.802602599729411  0.27474693277306983  1.0000
  H   H6        1.0  0.2914586585611829  0.896602129300781  0.22077430877579476  1.0000
  H   H7        1.0  0.28488977348133904  0.0156762440189055  0.16198880357241313  1.0000
  H   H8        1.0  0.528151567593426  0.10572130076965888  0.10544948865871359  1.0000
  H   H9        1.0  0.8238710917750967  0.6804043360613149  0.48362118032346046  1.0000
  H   H10       1.0  0.8171118953200817  0.8007232658231656  0.42545721604579273  1.0000
  H   H11       1.0  0.7498212491312444  0.8948819546502162  0.3844873298020418  1.0000
  H   H12       1.0  0.7659835451504976  0.013706422065404  0.3234119818948145  1.0000
  H   H13       1.0  0.25048043583799284  0.2757299928027733  0.42543440786757  1.0000
  H   H14       1.0  0.2888184644694149  0.22402561168516402  0.3827170404558444  1.0000
  H   H15       1.0  0.268134971308271  0.1658388201829126  0.3220510606214191  1.0000
  H   H16       1.0  0.533554116671297  0.1065056202888854  0.2876318518347958  1.0000
  H   H17       1.0  0.8884854900540162  0.48080816570758594  0.3335953352846204  1.0000
  H   H18       1.0  0.8813591752486332  0.42245995012436316  0.27155957259346036  1.0000
  H   H19       1.0  0.8243260811194305  0.3801949543803289  0.21973027566941986  1.0000
  H   H20       1.0  0.820015093054188  0.31963023834207155  0.16101602040868093  1.0000
  H   H21       1.0  0.1911943535890472  0.4230247244445168  0.8030118970915795  1.0000
  H   H22       1.0  0.22561844340917497  0.3791728132098696  0.8975160744855656  1.0000
  H   H23       1.0  0.22502443397298322  0.31883301062826763  0.016853859040551807  1.0000
  H   H24       1.0  0.5338402358477269  0.28827787117662496  0.10481391119273548  1.0000
  H   H25       1.0  0.214765727023817  0.36126281625752193  0.510245486380299  1.0000
  H   H26       1.0  0.15638431787364487  0.5079110356908245  0.6327014116651455  1.0000
  H   H27       1.0  0.1917821280496881  0.6322125690565059  0.3594609017126799  1.0000
  C   C1        1.0  0.5409556453767123  0.44932980911149656  0.6014518651479719  1.0000
  C   C2        1.0  0.5762771209919818  0.44889241009872893  0.4488078856238999  1.0000
  C   C3        1.0  0.5421189578688156  0.6016630209997232  0.4487424938300181  1.0000
  C   C4        1.0  0.7063224026132175  0.35328799463069055  0.7077270764028684  1.0000
  C   C5        1.0  0.7003338986601194  0.31840360254306427  0.7754165420406239  1.0000
  C   C6        1.0  0.6838895131322503  0.2449413229601802  0.9199900761130024  1.0000
  C   C7        1.0  0.6870594528041495  0.21104279949290827  0.9880575003980923  1.0000
  C   C8        1.0  0.35312769750749606  0.709113534211461  0.35389906255400677  1.0000
  C   C9        1.0  0.35808706519444666  0.7775821666382254  0.3200642967568185  1.0000
  C   C10       1.0  0.39477492191554814  0.9214534001296428  0.24440079221852784  1.0000
  C   C11       1.0  0.3951258148886864  0.9894893671511299  0.21032595985771227  1.0000
  C   C12       1.0  0.5234164520635572  0.41269171813465994  0.6730290567021767  1.0000
  C   C13       1.0  0.5196450160784352  0.34279973890004106  0.8121861411386104  1.0000
  C   C14       1.0  0.5208709062220934  0.306592786272148  0.884789427351947  1.0000
  C   C15       1.0  0.5260501124133795  0.23684195999648242  0.02474960011088708  1.0000
  C   C16       1.0  0.5294474256106625  0.2009564371091414  0.09703216748683019  1.0000
  C   C17       1.0  0.5293697379664266  0.1322818640480889  0.13230730599596544  1.0000
  C   C18       1.0  0.6881673644647179  0.708179122664511  0.43816599886100954  1.0000
  C   C19       1.0  0.681985893537352  0.7758501532128791  0.4053039985139078  1.0000
  C   C20       1.0  0.6477919850487553  0.9204707099579466  0.33549476309697446  1.0000
  C   C21       1.0  0.6529428633474339  0.9884852766537121  0.30102913452331126  1.0000
  C   C22       1.0  0.3899700606571344  0.35419149132484756  0.43832767976703485  1.0000
  C   C23       1.0  0.3963226507617535  0.3201285610468431  0.4038505469858578  1.0000
  C   C24       1.0  0.4070858354533229  0.246017397997619  0.33403008953780494  1.0000
  C   C25       1.0  0.3987838407223592  0.21219161615373852  0.2998831587901662  1.0000
  C   C26       1.0  0.5237738789281182  0.6731672321370397  0.41387545704678524  1.0000
  C   C27       1.0  0.5189050318486182  0.8122395997432291  0.3446487161293915  1.0000
  C   C28       1.0  0.5199040660281541  0.8847738418742845  0.3081806279495468  1.0000
  C   C29       1.0  0.5257365770242755  0.024905048599535504  0.2375769779179961  1.0000
  C   C30       1.0  0.529322894438245  0.097265022887548  0.20105730183558276  1.0000
  C   C31       1.0  0.5328935597688869  0.1328127159502728  0.2342444434991648  1.0000
  C   C32       1.0  0.745381381258909  0.4361526059017891  0.3524793580872299  1.0000
  C   C33       1.0  0.7395128276016009  0.40314255495540874  0.31776047739573693  1.0000
  C   C34       1.0  0.7006402452780449  0.33315817539886433  0.2431130337150122  1.0000
  C   C35       1.0  0.6953945226501973  0.29904329778373306  0.20915686471027328  1.0000
  C   C36       1.0  0.3340711045029749  0.4367366320162915  0.7093334298965742  1.0000
  C   C37       1.0  0.34093273605972035  0.4022495535501065  0.7778152262902722  1.0000
  C   C38       1.0  0.3604015846254498  0.33220313091458564  0.9219243813000586  1.0000
  C   C39       1.0  0.3621989829436671  0.2982421971549485  0.9899764014015062  1.0000
  C   C40       1.0  0.5691826013015844  0.4133202096271446  0.4128228722036056  1.0000
  C   C41       1.0  0.5649208968274736  0.34373100438385507  0.34315520307676195  1.0000
  C   C42       1.0  0.5577448783107072  0.30762459095367223  0.30670735428621737  1.0000
  C   C43       1.0  0.5436831126111273  0.23772731108116577  0.2366067307999486  1.0000
  C   C44       1.0  0.5364541698799102  0.20149727792423283  0.20053147508914995  1.0000
  C   C45       1.0  0.5330442598880297  0.23486295665256313  0.1318294735886454  1.0000
  O   O1        1.0  0.3221966345686125  0.5709005685245643  0.4353237328385048  1.0000
  O   O2        1.0  0.3067630337262273  0.4933546189620087  0.5709655002113578  1.0000
  O   O3        1.0  0.3414070772624457  0.4363080907632763  0.4935667172769269  1.0000
  O   O4        1.0  0.7737256251453458  0.5718896372765485  0.4901398422736206  1.0000
  O   O5        1.0  0.8084048932154174  0.48961947292966107  0.43661453985262005  1.0000
  O   O6        1.0  0.785858177691715  0.4376615780482211  0.5715359496577931  1.0000
  O   O7        1.0  0.2141635433547719  0.32808790759811757  0.4958449228111305  1.0000
  O   O8        1.0  0.15030472639445236  0.49317783166998197  0.6803317034859971  1.0000
  O   O9        1.0  0.18887071481263012  0.6798307465426346  0.3267449381577451  1.0000
