data_image0
_chemical_formula_structural       Ag4H36C40Br4N4
_chemical_formula_sum              "Ag4 H36 C40 Br4 N4"
_cell_length_a       4.1395072213534165
_cell_length_b       14.88364686251393
_cell_length_c       15.481659280423038
_cell_angle_alpha    89.99973084267717
_cell_angle_beta     90.00081328797062
_cell_angle_gamma    93.4646735481765

_space_group_name_H-M_alt    "P 1"
_space_group_IT_number       1

loop_
  _space_group_symop_operation_xyz
  'x, y, z'

loop_
  _atom_site_type_symbol
  _atom_site_label
  _atom_site_symmetry_multiplicity
  _atom_site_fract_x
  _atom_site_fract_y
  _atom_site_fract_z
  _atom_site_occupancy
  Ag  Ag1       1.0  0.3291534746055547  0.9248063294840349  0.0463031113856545  1.0000
  Ag  Ag2       1.0  0.17084882607210258  0.5751916521590559  0.546306167064664  1.0000
  Ag  Ag3       1.0  0.6708551423909695  0.07519722730523172  0.9536986268088442  1.0000
  Ag  Ag4       1.0  0.829151049835005  0.4248065553044853  0.4536897577943577  1.0000
  H   H1        1.0  0.8276927548263444  0.7755582276532637  0.0884736287305472  1.0000
  H   H2        1.0  0.6722903176901055  0.7244448574437213  0.5884754046291931  1.0000
  H   H3        1.0  0.17230771299466596  0.22445075952050791  0.9115281094368728  1.0000
  H   H4        1.0  0.3277058592255384  0.2755574112287533  0.411521166139707  1.0000
  H   H5        1.0  0.1930679168851768  0.7241906325975337  0.0681510704569632  1.0000
  H   H6        1.0  0.30691455986044497  0.775810052205763  0.5681537826790973  1.0000
  H   H7        1.0  0.806934963809141  0.2758183429981785  0.9318506677150538  1.0000
  H   H8        1.0  0.6930714022939953  0.22419024374357122  0.4318466636282424  1.0000
  H   H9        1.0  0.8972820597531452  0.6691116673230226  0.137090870500387  1.0000
  H   H10       1.0  0.6026989133409514  0.8308919068131928  0.6370932183980642  1.0000
  H   H11       1.0  0.10271840803413569  0.3308973198534916  0.8629095758158416  1.0000
  H   H12       1.0  0.39729485083628907  0.16911037342633511  0.3629085197710112  1.0000
  H   H13       1.0  0.9758085144125133  0.6851099002425443  0.2887627121151581  1.0000
  H   H14       1.0  0.5241816642801637  0.8148889780909271  0.7887654767592382  1.0000
  H   H15       1.0  0.024185625276707867  0.31489372602055704  0.7112364423493603  1.0000
  H   H16       1.0  0.4758400870689455  0.18510103746851317  0.21123755334035374  1.0000
  H   H17       1.0  0.22542290717684207  0.766165527293026  0.4129842347307787  1.0000
  H   H18       1.0  0.2745636609697327  0.7338357769068226  0.9129876500194528  1.0000
  H   H19       1.0  0.774568444127091  0.23383676452455404  0.5870175034336994  1.0000
  H   H20       1.0  0.725427286311195  0.26615640820131153  0.08701215038911411  1.0000
  H   H21       1.0  0.5734212427671891  0.9001300874589476  0.46788117801800416  1.0000
  H   H22       1.0  0.9265853392798251  0.5998673200335533  0.967882513926462  1.0000
  H   H23       1.0  0.4265693574284768  0.0998695123183708  0.5321224979276025  1.0000
  H   H24       1.0  0.07340432179863396  0.40012891471234713  0.0321147027686095  1.0000
  H   H25       1.0  0.9069902676055152  0.04084343408379  0.4361867900374108  1.0000
  H   H26       1.0  0.5930314966351417  0.4591502353519914  0.9361872599002583  1.0000
  H   H27       1.0  0.09301387099947081  0.9591527311703913  0.5638214074203917  1.0000
  H   H28       1.0  0.406953150822666  0.5408453495478653  0.0638067271587204  1.0000
  H   H29       1.0  0.9766325872310943  0.09337646758424262  0.2832955750078199  1.0000
  H   H30       1.0  0.5234047592341042  0.40661571840984584  0.7832953599630202  1.0000
  H   H31       1.0  0.02338771878862641  0.9066256852774189  0.7167152061701928  1.0000
  H   H32       1.0  0.47658825353133244  0.5933838698141827  0.2166966893264473  1.0000
  H   H33       1.0  0.7085819763236572  0.008726587962300402  0.1640515697686453  1.0000
  H   H34       1.0  0.7914335683879231  0.4912708981513632  0.6640545920884192  1.0000
  H   H35       1.0  0.2914275797563521  0.9912803338611342  0.8359553358251903  1.0000
  H   H36       1.0  0.20857354615597498  0.5087272745766355  0.3359419787099966  1.0000
  C   C1        1.0  0.163858833524543  0.7827187862930317  0.1941625765001191  1.0000
  C   C2        1.0  0.33613467304534334  0.7172799924840447  0.6941669420687617  1.0000
  C   C3        1.0  0.8361455210439174  0.21728681268357522  0.8058372239051296  1.0000
  C   C4        1.0  0.6638646396275263  0.2827161959413829  0.3058341501982795  1.0000
  C   C5        1.0  0.0105398219583961  0.734633212622903  0.1182260838972837  1.0000
  C   C6        1.0  0.48942856703498455  0.7653680129058672  0.6182263032677398  1.0000
  C   C7        1.0  0.9894604580729051  0.2653751015418279  0.8817756542712163  1.0000
  C   C8        1.0  0.5105661076472572  0.23462887168745536  0.3817734971378286  1.0000
  C   C9        1.0  0.12140564423081905  0.7475993268681975  0.2785934436907453  1.0000
  C   C10       1.0  0.3785883839800732  0.7524024804136786  0.7785952360723201  1.0000
  C   C11       1.0  0.8785981469853611  0.2524042530799306  0.7214070026433603  1.0000
  C   C12       1.0  0.621412965952949  0.2475923504183726  0.2214045643503013  1.0000
  C   C13       1.0  0.260060957772609  0.7930259408691994  0.3478775264745977  1.0000
  C   C14       1.0  0.23993333631818814  0.7069722177674721  0.8478822173668663  1.0000
  C   C15       1.0  0.7399352192442167  0.20697632779502587  0.6521229198478837  1.0000
  C   C16       1.0  0.7600654129518105  0.29302195163359807  0.15211758305224526  1.0000
  C   C17       1.0  0.44908033963206156  0.873980854268986  0.3339670577805691  1.0000
  C   C18       1.0  0.05091582873487252  0.6260180250665359  0.8339694410082574  1.0000
  C   C19       1.0  0.5509256767014393  0.1260220410892998  0.6660346804104125  1.0000
  C   C20       1.0  0.9490716072262655  0.3739788942692074  0.1660264838299383  1.0000
  C   C21       1.0  0.6028479653712892  0.9244802596091406  0.4016783295222055  1.0000
  C   C22       1.0  0.8971633091265616  0.5755119995423854  0.9016803041130644  1.0000
  C   C23       1.0  0.3971546991909207  0.07551928227790229  0.5983253464463942  1.0000
  C   C24       1.0  0.10283061427877267  0.4244821930244242  0.0983149748176757  1.0000
  C   C25       1.0  0.7874785621976981  0.002535764694918899  0.3839409536734025  1.0000
  C   C26       1.0  0.7125419479739035  0.4974547507020334  0.8839410666520422  1.0000
  C   C27       1.0  0.2125333783288994  0.9974623848577123  0.6160646600925546  1.0000
  C   C28       1.0  0.28744454897120153  0.5025388035940354  0.1160522744891992  1.0000
  C   C29       1.0  0.8263431301279667  0.0325527523693125  0.2976556382218477  1.0000
  C   C30       1.0  0.6736851269317512  0.4674387457434293  0.7976583161433339  1.0000
  C   C31       1.0  0.17366436016399694  0.9674467663629971  0.7023473918303511  1.0000
  C   C32       1.0  0.32631659839520216  0.5325574311218305  0.2023343790955536  1.0000
  C   C33       1.0  0.6771429021886773  0.9854546417152862  0.23054099899221114  1.0000
  C   C34       1.0  0.8228741015068975  0.5145389500756749  0.7305429530963892  1.0000
  C   C35       1.0  0.3228707284116298  0.0145495649214027  0.7694633229127847  1.0000
  C   C36       1.0  0.1771248354010453  0.4854558923468205  0.2694510339912668  1.0000
  C   C37       1.0  0.4846539900384528  0.9054692807845586  0.24686205335693506  1.0000
  C   C38       1.0  0.015350980644789994  0.5945258621271776  0.7468624988415159  1.0000
  C   C39       1.0  0.515355190394672  0.09453629502630892  0.7531422685366921  1.0000
  C   C40       1.0  0.9846499935570349  0.40546762269918457  0.2531314882529117  1.0000
  Br  Br1       1.0  0.8145697523111223  0.8922214504779545  0.9366453594733102  1.0000
  Br  Br2       1.0  0.685414985343563  0.6077815783548033  0.4366508680129471  1.0000
  Br  Br3       1.0  0.18542216219332633  0.10778286038048891  0.06334991943194271  1.0000
  Br  Br4       1.0  0.3145822899342505  0.39221596767499994  0.5633463486937487  1.0000
  N   N1        1.0  0.33806972258505397  0.8596467122301376  0.179136574853068  1.0000
  N   N2        1.0  0.16192560001511677  0.6403527919982254  0.6791386716539167  1.0000
  N   N3        1.0  0.6619350076134296  0.14036023276041482  0.8208651633268077  1.0000
  N   N4        1.0  0.8380733370108687  0.3596420504146354  0.3208598369129092  1.0000
