data_image0
_chemical_formula_structural       Zn3H90C132N18
_chemical_formula_sum              "Zn3 H90 C132 N18"
_cell_length_a       9.299358567515005
_cell_length_b       19.281122207750336
_cell_length_c       19.279083047063036
_cell_angle_alpha    117.46598193542012
_cell_angle_beta     99.24574260539758
_cell_angle_gamma    99.25513448208329

_space_group_name_H-M_alt    "P 1"
_space_group_IT_number       1

loop_
  _space_group_symop_operation_xyz
  'x, y, z'

loop_
  _atom_site_type_symbol
  _atom_site_label
  _atom_site_symmetry_multiplicity
  _atom_site_fract_x
  _atom_site_fract_y
  _atom_site_fract_z
  _atom_site_occupancy
  Zn  Zn1       1.0  0.5000004818296517  0.49999995661188706  0.9999996547026982  1.0000
  Zn  Zn2       1.0  8.703084829356706e-08  0.49999979921391696  0.4999994467663953  1.0000
  Zn  Zn3       1.0  0.5000004354314668  0.9999999231873953  0.5000002045690266  1.0000
  H   H1        1.0  0.4664140079122276  0.4013272549004157  0.21321208975771105  1.0000
  H   H2        1.0  0.06499837804025067  0.8118472241342045  0.5986578300812511  1.0000
  H   H3        1.0  0.2531682319460484  0.7868153842041107  0.1881249072943517  1.0000
  H   H4        1.0  0.5335866458826217  0.5986728879940982  0.7867879743031453  1.0000
  H   H5        1.0  0.9350011862558815  0.18815291875765883  0.40134214949679153  1.0000
  H   H6        1.0  0.7468302428513596  0.21318475868510225  0.8118749878008771  1.0000
  H   H7        1.0  0.1830783125571074  0.34649411824873505  0.11897014201596083  1.0000
  H   H8        1.0  0.8365145614376029  0.7724251973362608  0.6534775601926269  1.0000
  H   H9        1.0  0.06410265688474938  0.8810509057606308  0.22752492941956595  1.0000
  H   H10       1.0  0.816922341237749  0.6535060246457787  0.8810299220448956  1.0000
  H   H11       1.0  0.16348469956078301  0.22757433877976746  0.34652159730183035  1.0000
  H   H12       1.0  0.9358969073188419  0.11894923713898459  0.7724755688517463  1.0000
  H   H13       1.0  0.9179567548601497  0.34977401181129136  0.8505614585423729  1.0000
  H   H14       1.0  0.5680816703965944  0.5007429574462491  0.6502529245424141  1.0000
  H   H15       1.0  0.06739628023784407  0.14950974230532665  0.49928060811883074  1.0000
  H   H16       1.0  0.0820435955444196  0.6502255243151395  0.1494383021281607  1.0000
  H   H17       1.0  0.4319189833057208  0.4992571854560167  0.3497476582117116  1.0000
  H   H18       1.0  0.9326035873560271  0.8504910073623788  0.5007201935427971  1.0000
  H   H19       1.0  0.012015750081154368  0.4182065901879851  0.7660024112672376  1.0000
  H   H20       1.0  0.5937747232762973  0.34774906100089703  0.5817521583547104  1.0000
  H   H21       1.0  0.24614604763567624  0.2340428596569878  0.6522484282062352  1.0000
  H   H22       1.0  0.9879849037136947  0.5817935527065287  0.23399765279361867  1.0000
  H   H23       1.0  0.406225930426018  0.6522510819013686  0.4182484243994152  1.0000
  H   H24       1.0  0.7538535165679079  0.7659572832426278  0.3477520700650771  1.0000
  H   H25       1.0  0.8973092531863857  0.43338737910910635  0.012073707768060112  1.0000
  H   H26       1.0  0.4639080964209865  0.5787227774301086  0.5666143115544813  1.0000
  H   H27       1.0  0.8852537766887068  0.9879022018632071  0.42131191098483367  1.0000
  H   H28       1.0  0.10269140060846381  0.5666127637854075  0.987926356292789  1.0000
  H   H29       1.0  0.5360944328884827  0.421276758709375  0.43338613677495624  1.0000
  H   H30       1.0  0.11474657380840368  0.012097334255479094  0.5786873309924374  1.0000
  H   H31       1.0  0.6574495209751844  0.35386523403199277  0.007725174451238089  1.0000
  H   H32       1.0  0.3035747781719491  0.6538859417403271  0.6461452081689031  1.0000
  H   H33       1.0  0.6497528433448352  0.9922870696457764  0.34616172166789033  1.0000
  H   H34       1.0  0.34254974002320887  0.6461343020840358  0.9922739830432121  1.0000
  H   H35       1.0  0.6964277512300683  0.34611359439141137  0.3538547214672647  1.0000
  H   H36       1.0  0.3502467209512972  0.007713073246087298  0.6538382579101524  1.0000
  H   H37       1.0  0.841945350525556  0.14898473242755012  0.950434869389362  1.0000
  H   H38       1.0  0.6929645857284042  0.801493135275997  0.8510617524997811  1.0000
  H   H39       1.0  0.8915194483475587  0.049554203652561975  0.19850791938509363  1.0000
  H   H40       1.0  0.15805560656703208  0.8510160172428055  0.04956601675507939  1.0000
  H   H41       1.0  0.30703637145672497  0.19850761438661377  0.1489386149513905  1.0000
  H   H42       1.0  0.10848090205701046  0.9504453324738686  0.8014918412854397  1.0000
  H   H43       1.0  0.08485208869333857  0.22990969380803952  0.9573460911731716  1.0000
  H   H44       1.0  0.8549104816401467  0.7274494299335855  0.7701161213022942  1.0000
  H   H45       1.0  0.1275689753484954  0.0427100471540527  0.2725884772570879  1.0000
  H   H46       1.0  0.9151485651015107  0.7700904490864742  0.0426539728876846  1.0000
  H   H47       1.0  0.1450912615608857  0.2725507129713307  0.22988454593464522  1.0000
  H   H48       1.0  0.8724294995414534  0.9572900957274084  0.7274108991448711  1.0000
  H   H49       1.0  0.5244116068089113  0.23509492720557995  0.015258774856356202  1.0000
  H   H50       1.0  0.2892809131516784  0.7801557199062683  0.7649109814199235  1.0000
  H   H51       1.0  0.509190228605817  0.9847411167840073  0.21984802402007367  1.0000
  H   H52       1.0  0.4755879574872137  0.7649052156862833  0.9847412047216862  1.0000
  H   H53       1.0  0.710720830141895  0.21984442299090284  0.23508916712373915  1.0000
  H   H54       1.0  0.4908093356903153  0.0152590261078629  0.7801519555579688  1.0000
  H   H55       1.0  0.5959734109304834  0.1481482362644542  0.9868531001205767  1.0000
  H   H56       1.0  0.4477738013341862  0.8387074399450966  0.8518706831641226  1.0000
  H   H57       1.0  0.6091594111426701  0.0131414297297496  0.1612949901336407  1.0000
  H   H58       1.0  0.4040269393815449  0.8518512998697216  0.013147179243226465  1.0000
  H   H59       1.0  0.5522268523681221  0.16129270295716938  0.1481298995900033  1.0000
  H   H60       1.0  0.3908412425596453  0.9868587131725163  0.8387055926204852  1.0000
  H   H61       1.0  0.5058623107442414  0.16729462266376763  0.9116199869707345  1.0000
  H   H62       1.0  0.3385173632109683  0.7443177223285244  0.832712154348549  1.0000
  H   H63       1.0  0.5942590305126957  0.08836749802077999  0.2556741995803193  1.0000
  H   H64       1.0  0.49413695016161086  0.8327049134600057  0.08837968921699245  1.0000
  H   H65       1.0  0.661484076692325  0.2556818138005568  0.1672876908047982  1.0000
  H   H66       1.0  0.40574162328215374  0.9116326448737337  0.7443258644805368  1.0000
  H   H67       1.0  0.13257162092441632  0.5974071148567361  0.816672892961904  1.0000
  H   H68       1.0  0.535129507570268  0.2192684554400016  0.4025505080591287  1.0000
  H   H69       1.0  0.3159227682654091  0.1832860950983956  0.7807187102687436  1.0000
  H   H70       1.0  0.8674284262749552  0.402591814486108  0.18332552693178167  1.0000
  H   H71       1.0  0.4648714496148612  0.780732294222602  0.5974498593920429  1.0000
  H   H72       1.0  0.6840757064394581  0.8167140477985696  0.21928170351975504  1.0000
  H   H73       1.0  0.028576416633683304  0.5952607428485592  0.6869295871455279  1.0000
  H   H74       1.0  0.4332081010651194  0.09165332068926084  0.4046676990495399  1.0000
  H   H75       1.0  0.34165361875785283  0.31301946046344387  0.9083180666472758  1.0000
  H   H76       1.0  0.9714242373462482  0.4047394000304649  0.31306943952878896  1.0000
  H   H77       1.0  0.5667917666212928  0.9083474289706854  0.5953325839188182  1.0000
  H   H78       1.0  0.6583459455382794  0.6869806824284266  0.09168191293076679  1.0000
  H   H79       1.0  0.2485266433235154  0.42690663243809707  0.5609325414927113  1.0000
  H   H80       1.0  0.8214275064006457  0.13403206484238683  0.5730763712796474  1.0000
  H   H81       1.0  0.6874845144812766  0.4390209209380129  0.8658913407965301  1.0000
  H   H82       1.0  0.7514726175823369  0.5730929036856763  0.4390671346950085  1.0000
  H   H83       1.0  0.17857284409647176  0.8659674712762919  0.4269228706976234  1.0000
  H   H84       1.0  0.3125158358307515  0.5609786151961625  0.13410893856728007  1.0000
  H   H85       1.0  0.36347861279391935  0.42243375975594677  0.6853700758496474  1.0000
  H   H86       1.0  0.940922344434817  0.2629014998839451  0.5775458351513336  1.0000
  H   H87       1.0  0.6780998073482107  0.3146009822877217  0.7370063815343143  1.0000
  H   H88       1.0  0.6365209515022129  0.5775663831359167  0.31462990372839517  1.0000
  H   H89       1.0  0.05907909556101724  0.737098036237391  0.4224534913087439  1.0000
  H   H90       1.0  0.3219005429638172  0.685398553846454  0.2629938978294959  1.0000
  C   C1        1.0  0.5175093514006761  0.447855083876007  0.1286692521399857  1.0000
  C   C2        1.0  0.06963246235072516  0.680789331327382  0.5521419725522632  1.0000
  C   C3        1.0  0.3887984947445346  0.8713711765418919  0.31920428285188507  1.0000
  C   C4        1.0  0.4824905162857291  0.5521456657839464  0.8713310308283726  1.0000
  C   C5        1.0  0.9303681915366653  0.31921081155938663  0.4478575728153231  1.0000
  C   C6        1.0  0.6112010695515977  0.12862896634997156  0.6807956967261575  1.0000
  C   C7        1.0  0.426446999432791  0.40757911612983816  0.1608519836223222  1.0000
  C   C8        1.0  0.018797179582037304  0.7532295020516596  0.5923841053024502  1.0000
  C   C9        1.0  0.2655929502226256  0.8391860047449949  0.24673647315739786  1.0000
  C   C10       1.0  0.5735547438607823  0.5924210267673329  0.8391481649213474  1.0000
  C   C11       1.0  0.9812034742128191  0.2467706408428539  0.4076159587584058  1.0000
  C   C12       1.0  0.7344055245747825  0.16081413814421808  0.7532634219378309  1.0000
  C   C13       1.0  0.2818513110131561  0.37867989483262204  0.11216241543892373  1.0000
  C   C14       1.0  0.9030923789370746  0.7334360203352189  0.6212788044854065  1.0000
  C   C15       1.0  0.16970034087074023  0.8878819560260068  0.2665192597412939  1.0000
  C   C16       1.0  0.7181496461719801  0.6213208548299816  0.8878379520122478  1.0000
  C   C17       1.0  0.09690688206131168  0.26656351578080967  0.3787203530090509  1.0000
  C   C18       1.0  0.8302989200351121  0.11211758009776666  0.733480416446433  1.0000
  C   C19       1.0  0.28352598908352883  0.40094596157612716  0.049901111892786745  1.0000
  C   C20       1.0  0.8825459406749729  0.6489178000696679  0.5990535020187336  1.0000
  C   C21       1.0  0.23362635706982354  0.9501529774484182  0.3510567432773257  1.0000
  C   C22       1.0  0.7164746647113205  0.5990541813183937  0.9500989521680694  1.0000
  C   C23       1.0  0.1174525342149764  0.35108234281179307  0.40094587438322554  1.0000
  C   C24       1.0  0.7663735105240478  0.049847772219287385  0.648944058384302  1.0000
  C   C25       1.0  0.15474354884172203  0.38672760437400183  0.9899632297433031  1.0000
  C   C26       1.0  0.767990264829777  0.6032298137775028  0.6133056080699646  1.0000
  C   C27       1.0  0.164790753170081  0.010089934919449197  0.3967742376459213  1.0000
  C   C28       1.0  0.8452571048605932  0.6132725385282639  0.01003735301082284  1.0000
  C   C29       1.0  0.23200929946634827  0.3967703291143606  0.38669437150807795  1.0000
  C   C30       1.0  0.8352099006247686  0.9899102079750721  0.603225826414935  1.0000
  C   C31       1.0  0.15417126241094076  0.4150037516265781  0.9340069009260787  1.0000
  C   C32       1.0  0.7391324262907373  0.5190088067531134  0.5850487900194636  1.0000
  C   C33       1.0  0.2201517317242647  0.06603786179389459  0.48100098277479475  1.0000
  C   C34       1.0  0.8458283017926502  0.5849963912730372  0.06599359734523336  1.0000
  C   C35       1.0  0.2608668346151148  0.48099072937065995  0.4149508861682635  1.0000
  C   C36       1.0  0.7798478324793265  0.9339622811057211  0.5189995154965175  1.0000
  C   C37       1.0  0.02764659698399894  0.39009978718081567  0.8651245583467285  1.0000
  C   C38       1.0  0.637472922178283  0.47499930244881466  0.6099178123118065  1.0000
  C   C39       1.0  0.16256326048956277  0.13494065085659196  0.525006734473088  1.0000
  C   C40       1.0  0.9723537534205704  0.609899748945608  0.13487520232381195  1.0000
  C   C41       1.0  0.3625277315240253  0.5250008404534511  0.39008277044231926  1.0000
  C   C42       1.0  0.8374363038065625  0.8650594920352787  0.47499324510495466  1.0000
  C   C43       1.0  0.07599119476253688  0.4245044950400325  0.8218993439942963  1.0000
  C   C44       1.0  0.6514005380643156  0.39736891916089684  0.5754769304351298  1.0000
  C   C45       1.0  0.25418281037193685  0.17815802716285126  0.6026206537690868  1.0000
  C   C46       1.0  0.9240094590323195  0.5754956478544813  0.17810072006655994  1.0000
  C   C47       1.0  0.3485990261392756  0.6026312237387186  0.4245235678361823  1.0000
  C   C48       1.0  0.7458164504413743  0.8218415089686741  0.3973795411119097  1.0000
  C   C49       1.0  0.23237891370477828  0.47077162624022145  0.8642918412962574  1.0000
  C   C50       1.0  0.7615484664094794  0.39352027665101724  0.5292216518430096  1.0000
  C   C51       1.0  0.36813453859027584  0.13572424768187114  0.606457352958337  1.0000
  C   C52       1.0  0.7676217400900784  0.5292285166542996  0.13570822276459885  1.0000
  C   C53       1.0  0.23845218747791114  0.6064798662357517  0.47077789352457694  1.0000
  C   C54       1.0  0.6318647222230352  0.8642752884496543  0.3935428419226595  1.0000
  C   C55       1.0  0.32709729399363136  0.5115779798754899  0.836809117909482  1.0000
  C   C56       1.0  0.8154853202573875  0.3252382492848369  0.4884043842936165  1.0000
  C   C57       1.0  0.4903437713571109  0.16316628798809768  0.67473945667507  1.0000
  C   C58       1.0  0.672902270395042  0.4884221630086286  0.16319034297529095  1.0000
  C   C59       1.0  0.18451424403874478  0.6747618936070267  0.5115955952844259  1.0000
  C   C60       1.0  0.5096554894562004  0.8368332481434279  0.32526073820592677  1.0000
  C   C61       1.0  0.008948809767787143  0.3375631470524708  0.9851395328888872  1.0000
  C   C62       1.0  0.6713567267774039  0.6476011950276115  0.6624589391706762  1.0000
  C   C63       1.0  0.0238260105289356  0.014915893766669795  0.3524412592574251  1.0000
  C   C64       1.0  0.991051844027062  0.6624369958420429  0.014860531171962031  1.0000
  C   C65       1.0  0.3286439269249114  0.3523989478746542  0.3375416435834495  1.0000
  C   C66       1.0  0.9761743397830995  0.9850836423675062  0.6475590201063852  1.0000
  C   C67       1.0  0.8857563853810858  0.3708939632890135  0.9983079404477524  1.0000
  C   C68       1.0  0.5148500421348176  0.6274559599085308  0.6291075782718778  1.0000
  C   C69       1.0  0.8874757495224302  0.0017153438914263993  0.37260693731313677  1.0000
  C   C70       1.0  0.1142428755247663  0.6291055728347599  0.001691735739974653  1.0000
  C   C71       1.0  0.485151397675935  0.3725435762282955  0.37089278557474603  1.0000
  C   C72       1.0  0.11252351138342213  0.998284192232347  0.6273927388745831  1.0000
  C   C73       1.0  0.7500922154216241  0.32574390035114215  0.9959164939507303  1.0000
  C   C74       1.0  0.42434227356893917  0.6702169397627171  0.674260589883147  1.0000
  C   C75       1.0  0.7542046201222447  0.004105181904172599  0.32984503048331254  1.0000
  C   C76       1.0  0.24990734878196716  0.6742562425484733  0.004084004320581809  1.0000
  C   C77       1.0  0.5756583802259101  0.3297832031318037  0.32573947417770904  1.0000
  C   C78       1.0  0.2457946406910665  0.9958943542273531  0.6701551643976841  1.0000
  C   C79       1.0  0.731219685653727  0.2453481078409325  0.9788221448780803  1.0000
  C   C80       1.0  0.48584626966823663  0.7335102923438299  0.7546687315585175  1.0000
  C   C81       1.0  0.7524232452975355  0.0211943251617157  0.2665312333198315  1.0000
  C   C82       1.0  0.2687798785498641  0.754652035058683  0.02117835339322471  1.0000
  C   C83       1.0  0.5141532947204369  0.2664898505402887  0.24533072932625538  1.0000
  C   C84       1.0  0.24757522949987276  0.9788058177274904  0.7334686617753973  1.0000
  C   C85       1.0  0.8540128145174606  0.21183774125929483  0.9649674735463449  1.0000
  C   C86       1.0  0.6421564799963021  0.7531755800865054  0.7881901455511199  1.0000
  C   C87       1.0  0.8890722755803676  0.03505388994151559  0.2468614171915746  1.0000
  C   C88       1.0  0.14598783918485472  0.7881624016429708  0.03503310920778084  1.0000
  C   C89       1.0  0.3578438704082742  0.2468239560399183  0.21180961511942087  1.0000
  C   C90       1.0  0.11092837830702942  0.9649462529452532  0.7531381281760119  1.0000
  C   C91       1.0  0.9907699684388973  0.25714982760321436  0.9684463520494405  1.0000
  C   C92       1.0  0.7335962377500421  0.7113326316826584  0.7428756446602307  1.0000
  C   C93       1.0  0.022356935686225692  0.031607601342514585  0.2887121294004942  1.0000
  C   C94       1.0  0.009229595764694003  0.7428503152964012  0.03155414622187178  1.0000
  C   C95       1.0  0.2664055054509901  0.2886675112222646  0.2571250225767088  1.0000
  C   C96       1.0  0.9776437182011648  0.9683925415442542  0.7112874159670922  1.0000
  C   C97       1.0  0.5819268183107553  0.19644757686626943  0.9732508727392004  1.0000
  C   C98       1.0  0.3854390388396353  0.7768083008938544  0.803564989962588  1.0000
  C   C99       1.0  0.6087146115269491  0.026742950439391695  0.2232021514184765  1.0000
  C   C100      1.0  0.418073835484094  0.8035525660282444  0.026749191321655843  1.0000
  C   C101      1.0  0.6145637939526621  0.223191842005967  0.1964352430638954  1.0000
  C   C102      1.0  0.391284649378903  0.9732565856843887  0.7767975247692503  1.0000
  C   C103      1.0  0.25734618764950307  0.5101872720950168  0.7610944292957953  1.0000
  C   C104      1.0  0.7470794902615552  0.2509042336152588  0.4897836278340507  1.0000
  C   C105      1.0  0.496265426391659  0.23887142613739332  0.7490636438323507  1.0000
  C   C106      1.0  0.7426533767391631  0.4898128707891018  0.23890503158897758  1.0000
  C   C107      1.0  0.25292007403457717  0.7490959092766045  0.5102163517439919  1.0000
  C   C108      1.0  0.503733834421645  0.761128109994132  0.25093655104863893  1.0000
  C   C109      1.0  0.16050230294142412  0.5587099974976439  0.7609861005770995  1.0000
  C   C110      1.0  0.6017290495708423  0.20226336708017809  0.44123949572161797  1.0000
  C   C111      1.0  0.3995401866975711  0.23896486416386145  0.7977046048474534  1.0000
  C   C112      1.0  0.8394972614472492  0.4412901453864746  0.2390133603076733  1.0000
  C   C113      1.0  0.3982716042240142  0.7977367758143358  0.5587605683392382  1.0000
  C   C114      1.0  0.6004593775985612  0.7610352787280091  0.2022953747305891  1.0000
  C   C115      1.0  0.10292195624994349  0.5575578214163243  0.6891702258177689  1.0000
  C   C116      1.0  0.5452496937209261  0.13160149386060024  0.4423870332879503  1.0000
  C   C117      1.0  0.4137418979499116  0.31077939261056986  0.8683585873636944  1.0000
  C   C118      1.0  0.8970790011202681  0.44244292823078246  0.31082910424687066  1.0000
  C   C119      1.0  0.45474987057520616  0.8683986490312631  0.5576129462900851  1.0000
  C   C120      1.0  0.5862576662536796  0.6892207502890455  0.13164191090761782  1.0000
  C   C121      1.0  0.22597111957581725  0.46402195942627594  0.618918707343383  1.0000
  C   C122      1.0  0.7617887308053496  0.15490226696515919  0.5359603563516657  1.0000
  C   C123      1.0  0.6069705873471491  0.381041252065927  0.8450343759227508  1.0000
  C   C124      1.0  0.7740303204200175  0.5359775766950534  0.3810806191167018  1.0000
  C   C125      1.0  0.2382108335833166  0.8450978759189594  0.4640391045331071  1.0000
  C   C126      1.0  0.3930300664477002  0.618958890828594  0.15496568813810546  1.0000
  C   C127      1.0  0.2894885384831909  0.461600873497609  0.6879710250344574  1.0000
  C   C128      1.0  0.8277668852917942  0.2263614923663367  0.5383778394690495  1.0000
  C   C129      1.0  0.6014919949591472  0.3119941695016663  0.7735732659937469  1.0000
  C   C130      1.0  0.7105107225152025  0.5383986626184195  0.3120281324599929  1.0000
  C   C131      1.0  0.1722334652053162  0.7736380437523419  0.46162140250822137  1.0000
  C   C132      1.0  0.3985083553528881  0.6880053666325096  0.2264270133700634  1.0000
  N   N1        1.0  0.42849076636232286  0.44141195244081616  0.06084181371996063  1.0000
  N   N2        1.0  0.9870872865201222  0.6194165039447838  0.5586065129567005  1.0000
  N   N3        1.0  0.36760899308823264  0.939189985718812  0.38057730202660867  1.0000
  N   N4        1.0  0.5715087980263504  0.5585881904433019  0.9391576471648122  1.0000
  N   N5        1.0  0.012911974478271216  0.38058303217124473  0.441392644537757  1.0000
  N   N6        1.0  0.6323894818017166  0.06081015716265628  0.6194220743753505  1.0000
  N   N7        1.0  0.2753062831730162  0.46488102789172786  0.9323834002644419  1.0000
  N   N8        1.0  0.8103975368746035  0.4675236907457857  0.5351588434443854  1.0000
  N   N9        1.0  0.34288667281678903  0.06763032712753868  0.5324723690639673  1.0000
  N   N10       1.0  0.724694067231553  0.5351185082347029  0.0676163604060988  1.0000
  N   N11       1.0  0.1896020275140629  0.5324764521383258  0.4648406174403875  1.0000
  N   N12       1.0  0.6571125879965223  0.9323692090039868  0.46752782581702956  1.0000
  N   N13       1.0  0.13470974376188136  0.5113463422020954  0.6193129701521299  1.0000
  N   N14       1.0  0.6231932573127709  0.10796764505614218  0.48861963170591594  1.0000
  N   N15       1.0  0.5153295129977593  0.3806383389886534  0.8919805884847135  1.0000
  N   N16       1.0  0.8652909101255091  0.48865380068466624  0.38068657521545646  1.0000
  N   N17       1.0  0.37680630698336165  0.8920324978357212  0.5113803478721265  1.0000
  N   N18       1.0  0.484670051298373  0.6193618039032103  0.1080193910933289  1.0000
