data_image0
_chemical_formula_structural       Cu2Mo4H14C22N12O16
_chemical_formula_sum              "Cu2 Mo4 H14 C22 N12 O16"
_cell_length_a       7.259282643091265
_cell_length_b       11.423285325304123
_cell_length_c       11.648583279411122
_cell_angle_alpha    119.36237517504274
_cell_angle_beta     97.2727665364772
_cell_angle_gamma    90.00004295539206

_space_group_name_H-M_alt    "P 1"
_space_group_IT_number       1

loop_
  _space_group_symop_operation_xyz
  'x, y, z'

loop_
  _atom_site_type_symbol
  _atom_site_label
  _atom_site_symmetry_multiplicity
  _atom_site_fract_x
  _atom_site_fract_y
  _atom_site_fract_z
  _atom_site_occupancy
  Cu  Cu1       1.0  0.5000008380609131  7.710331218003209e-07  0.4999998170423083  1.0000
  Cu  Cu2       1.0  4.0863892539834345e-07  0.5000003114445306  0.5000004906391452  1.0000
  Mo  Mo1       1.0  0.5938558533131868  0.4459327023975348  0.8499204363080821  1.0000
  Mo  Mo2       1.0  0.9061439859413695  0.5960128601969287  0.15007960485472432  1.0000
  Mo  Mo3       1.0  0.40614453263928857  0.5540665948386945  0.1500794781544172  1.0000
  Mo  Mo4       1.0  0.09385501121285961  0.40398643623764496  0.8499201999896683  1.0000
  H   H1        1.0  0.7499990101815827  0.8066036642446406  0.9999999561035438  1.0000
  H   H2        1.0  0.250001573499631  0.19339764706202803  9.464762414090609e-07  1.0000
  H   H3        1.0  0.7645859247307529  0.241313918560401  0.2135850073600594  1.0000
  H   H4        1.0  0.7354092253190674  0.027727399245002005  0.7864144689265941  1.0000
  H   H5        1.0  0.23541317068123394  0.7586863896673465  0.7864135768408997  1.0000
  H   H6        1.0  0.26458967266749067  0.9722708925333308  0.21358398450812635  1.0000
  H   H7        1.0  0.5637416012392649  0.8713649134991784  0.20408390766435508  1.0000
  H   H8        1.0  0.9362576163724015  0.6672807843385514  0.7959158332336784  1.0000
  H   H9        1.0  0.43626166117407195  0.12863539237555704  0.7959167200930038  1.0000
  H   H10       1.0  0.0637427698833832  0.33271851051869566  0.20408493857986798  1.0000
  H   H11       1.0  0.8611033152442148  0.1911393303798903  0.5567435119663173  1.0000
  H   H12       1.0  0.6389007972015577  0.6343939367503354  0.4432559024228553  1.0000
  H   H13       1.0  0.13889865693193576  0.808861984107395  0.44325664288053446  1.0000
  H   H14       1.0  0.3611009778524732  0.3656053589085602  0.5567449790087976  1.0000
  C   C1        1.0  0.7499970261954659  0.9019914497955599  0.9999996613039741  1.0000
  C   C2        1.0  0.2500034586213786  0.0980088544758857  7.472171716833799e-07  1.0000
  C   C3        1.0  0.7623651435247469  0.0249946259623428  0.11838923470534012  1.0000
  C   C4        1.0  0.7376279405165749  0.9066035999704952  0.8816098786914208  1.0000
  C   C5        1.0  0.23763405135822785  0.9750066845426844  0.8816115582563384  1.0000
  C   C6        1.0  0.2623710566376615  0.0933956964640856  0.11838992615297167  1.0000
  C   C7        1.0  0.7615920986185643  0.14783945619089423  0.11988158684670218  1.0000
  C   C8        1.0  0.7384050481825357  0.0279567715247282  0.8801183985134884  1.0000
  C   C9        1.0  0.23840848445604484  0.8521618598737176  0.8801176010310029  1.0000
  C   C10       1.0  0.26159533746663755  0.9720425280904692  0.11988065859797799  1.0000
  C   C11       1.0  0.7500001890274461  0.2794308638889548  0.9999997667094432  1.0000
  C   C12       1.0  0.24999913131826187  0.7205672713221671  0.999998653182686  1.0000
  C   C13       1.0  0.7499998311237518  0.14868808780371268  0.9999999726116897  1.0000
  C   C14       1.0  0.24999958808632533  0.8513110544426256  0.9999989413390793  1.0000
  C   C15       1.0  0.6574635270438379  0.9585645219392593  0.2747790842258483  1.0000
  C   C16       1.0  0.8425338855625667  0.6837856446544636  0.725221290515705  1.0000
  C   C17       1.0  0.3425370566373759  0.0414367893674168  0.725221818353937  1.0000
  C   C18       1.0  0.1574665003899156  0.31621365258175876  0.2747786239467942  1.0000
  C   C19       1.0  0.8092971721109663  0.12290423841125177  0.45269534632782876  1.0000
  C   C20       1.0  0.6907045094922778  0.6702102864954754  0.5473045004103412  1.0000
  C   C21       1.0  0.19070480036849352  0.8770970736970656  0.5473056658700699  1.0000
  C   C22       1.0  0.30929607388563346  0.32979102719016845  0.452695544818404  1.0000
  N   N1        1.0  0.6795036207510279  0.0162003199063463  0.4077048230540186  1.0000
  N   N2        1.0  0.8204988104689052  0.6084962788479588  0.5922953514699785  1.0000
  N   N3        1.0  0.32049835172843194  0.9838009922019707  0.5922961891438803  1.0000
  N   N4        1.0  0.17950316201055475  0.39150503326035857  0.40770566072791325  1.0000
  N   N5        1.0  0.7667330665060845  0.030249710325946897  0.2429335951870542  1.0000
  N   N6        1.0  0.7332632526806933  0.7873147358433102  0.7570665834961119  1.0000
  N   N7        1.0  0.23326890597337527  0.9697516017823702  0.7570674170108446  1.0000
  N   N8        1.0  0.26673574477684525  0.2126845582122954  0.2429340786993208  1.0000
  N   N9        1.0  0.8649917563388881  0.13497717991745622  0.35522530019844106  1.0000
  N   N10       1.0  0.6350083311217459  0.7797507228028806  0.6447740061203504  1.0000
  N   N11       1.0  0.13501011697290016  0.8650231275346058  0.6447743605897712  1.0000
  N   N12       1.0  0.36499205513403865  0.22024857205437343  0.35522676569318884  1.0000
  O   O1        1.0  0.5710300708209601  0.31945939915975435  0.6877797165970421  1.0000
  O   O2        1.0  0.9289688510627486  0.631680216012043  0.3122206023134808  1.0000
  O   O3        1.0  0.42896902489433586  0.6805409066890179  0.31221972495495715  1.0000
  O   O4        1.0  0.0710285598678055  0.3683170631714745  0.6877789621465594  1.0000
  O   O5        1.0  0.36088130847382166  0.4279945959254974  0.9095041692290946  1.0000
  O   O6        1.0  0.1391179072169706  0.5184909028246452  0.09049493281319336  1.0000
  O   O7        1.0  0.639118978917594  0.5720036918965334  0.09049610852581219  1.0000
  O   O8        1.0  0.8608809907695943  0.4815073889536805  0.90950352062152  1.0000
  O   O9        1.0  0.5539506939417863  0.5883991308670744  0.8385320419236136  1.0000
  O   O10       1.0  0.9460511757367343  0.749865669042471  0.16146739812138125  1.0000
  O   O11       1.0  0.4460496917073868  0.41160016874812294  0.16146701518785272  1.0000
  O   O12       1.0  0.0539504015885583  0.2501316125459851  0.8385324951929931  1.0000
  O   O13       1.0  0.6485906409554972  0.2809917804589049  0.9036728488133434  1.0000
  O   O14       1.0  0.8514103464184543  0.3773184238049226  0.0963275335276421  1.0000
  O   O15       1.0  0.3514111331886127  0.7190075223369093  0.09632546056518985  1.0000
  O   O16       1.0  0.14858855187140563  0.6226798655944352  0.9036717772581113  1.0000
