data_image0
_chemical_formula_structural       MnH26C40N6O2F4
_chemical_formula_sum              "Mn1 H26 C40 N6 O2 F4"
_cell_length_a       7.590797415533965
_cell_length_b       10.611612671641591
_cell_length_c       11.077430588815583
_cell_angle_alpha    101.21414882440084
_cell_angle_beta     109.6155098875463
_cell_angle_gamma    90.1739224894748

_space_group_name_H-M_alt    "P 1"
_space_group_IT_number       1

loop_
  _space_group_symop_operation_xyz
  'x, y, z'

loop_
  _atom_site_type_symbol
  _atom_site_label
  _atom_site_symmetry_multiplicity
  _atom_site_fract_x
  _atom_site_fract_y
  _atom_site_fract_z
  _atom_site_occupancy
  Mn  Mn1       1.0  0.9999994921479497  0.9999976355984473  1.2590328993531561e-06  1.0000
  H   H1        1.0  0.23893123389002818  0.11371029949417988  0.34799547447759943  1.0000
  H   H2        1.0  0.7610725234065328  0.8862897946042948  0.6520058011816089  1.0000
  H   H3        1.0  0.2837926184613266  0.2738608314399186  0.32959240169993353  1.0000
  H   H4        1.0  0.7162083417797974  0.7261392629835584  0.6704082335115443  1.0000
  H   H5        1.0  0.35917281225273723  0.1394800994563212  0.2404428794631599  1.0000
  H   H6        1.0  0.6408281404419539  0.8605199882067324  0.7595550445545951  1.0000
  H   H7        1.0  0.9801621823088809  0.21165498528849716  0.2035431647076179  1.0000
  H   H8        1.0  0.019840064985665196  0.7883441388710255  0.7964548782689959  1.0000
  H   H9        1.0  0.9990851635939747  0.4190939611192234  0.142076093854534  1.0000
  H   H10       1.0  0.0009156902038113854  0.5809051677097513  0.8579234363607  1.0000
  H   H11       1.0  0.6679020941784161  0.5255760855473071  0.5256909314347807  1.0000
  H   H12       1.0  0.33210026207495247  0.47442400646019667  0.4743091202693178  1.0000
  H   H13       1.0  0.6017199572515964  0.3326011271250309  0.6054489941590687  1.0000
  H   H14       1.0  0.3982839014573472  0.6673999280609947  0.39455157903390153  1.0000
  H   H15       1.0  0.8884653215615118  0.8025413442585004  0.3022777871345993  1.0000
  H   H16       1.0  0.1115372400320993  0.19746067217757712  0.6977217633682783  1.0000
  H   H17       1.0  0.01079398940134267  0.6557722478252329  0.15174298663014696  1.0000
  H   H18       1.0  0.9892083693675033  0.3442278464357429  0.8482579688051927  1.0000
  H   H19       1.0  0.7494021607992992  0.7157523900928026  0.4465056655127242  1.0000
  H   H20       1.0  0.2505976037388749  0.28424962666827713  0.5534932445424159  1.0000
  H   H21       1.0  0.850779693072738  0.0575019658863951  0.28722504399758  1.0000
  H   H22       1.0  0.1492227696239681  0.9424990917156039  0.7127761127027695  1.0000
  H   H23       1.0  0.6199344437612027  0.09858509232780932  0.5996799593366544  1.0000
  H   H24       1.0  0.3800693160508358  0.9014150040241375  0.4003222200537948  1.0000
  H   H25       1.0  0.741200113291555  0.9611252899467146  0.4389478797030931  1.0000
  H   H26       1.0  0.25880354259263066  0.0388738430642022  0.5610540984223532  1.0000
  C   C1        1.0  0.4981572386466908  0.36072847427815447  0.9758122222996658  1.0000
  C   C2        1.0  0.5018370382239539  0.6392745087274249  0.024186511856264213  1.0000
  C   C3        1.0  0.575809962812876  0.4354654905282516  0.9122269460513904  1.0000
  C   C4        1.0  0.42418690074200066  0.5645355632168003  0.08777112229101637  1.0000
  C   C5        1.0  0.4228280021002461  0.43137361735652757  0.0653518711691774  1.0000
  C   C6        1.0  0.5771705717659331  0.5686303262491066  0.9346471211921069  1.0000
  C   C7        1.0  0.33437968160454545  0.1478718533385077  0.9412908557924097  1.0000
  C   C8        1.0  0.6656054841512072  0.8521243940152985  0.05870725935900372  1.0000
  C   C9        1.0  0.638700798941258  0.1559243693124088  0.9219937566383222  1.0000
  C   C10       1.0  0.3612986487823803  0.8440747529186363  0.07800274215932021  1.0000
  C   C11       1.0  0.4918389602376863  0.21980642341524972  0.9477773839331431  1.0000
  C   C12       1.0  0.5081580047295802  0.7801955914173604  0.05221998194302554  1.0000
  C   C13       1.0  0.24745828054909683  0.1726546596975922  0.27811130836220593  1.0000
  C   C14       1.0  0.7525426771765494  0.8273454324724125  0.721888423118031  1.0000
  C   C15       1.0  0.7919738580457433  0.5169906189127145  0.3753681421128191  1.0000
  C   C16       1.0  0.20802570366766557  0.48300947567325625  0.6246321728747971  1.0000
  C   C17       1.0  0.7922774675332108  0.2517931126194099  0.3606001675485899  1.0000
  C   C18       1.0  0.20772198773686057  0.7482060163720589  0.6393990424427755  1.0000
  C   C19       1.0  0.8640611091005683  0.4311037745794193  0.2875471823494209  1.0000
  C   C20       1.0  0.13593694764178818  0.5688953545745574  0.7124517074180758  1.0000
  C   C21       1.0  0.7177155730348301  0.3305138758614774  0.4511707911726077  1.0000
  C   C22       1.0  0.2822853846908231  0.6694862163085203  0.5488289403076294  1.0000
  C   C23       1.0  0.943281103131369  0.48443339402768976  0.20703915625334443  1.0000
  C   C24       1.0  0.0567197531819019  0.5155657370547573  0.7929612776931307  1.0000
  C   C25       1.0  0.7193675603112268  0.4632001759005745  0.45593360427695007  1.0000
  C   C26       1.0  0.28063049894660713  0.5367989555068743  0.5440661892217945  1.0000
  C   C27       1.0  0.653573454845848  0.2717889917112828  0.5354159203191884  1.0000
  C   C28       1.0  0.3464303049661908  0.728211104640664  0.464586259071261  1.0000
  C   C29       1.0  0.8789644375298237  0.6995788624259942  0.29949347466924076  1.0000
  C   C30       1.0  0.1210364187834401  0.3004202686564524  0.7005069592772343  1.0000
  C   C31       1.0  0.9495719635738665  0.6150453928988282  0.21300299561817557  1.0000
  C   C32       1.0  0.050429095564162196  0.3849556603587274  0.7869960333958302  1.0000
  C   C33       1.0  0.802457846673839  0.6518775994979363  0.37887836335661257  1.0000
  C   C34       1.0  0.19754440313619162  0.34812152691505815  0.6211205833512422  1.0000
  C   C35       1.0  0.7971308155636833  0.11686059005887016  0.3573429404492146  1.0000
  C   C36       1.0  0.2028715432051627  0.8831395042020989  0.6426580149861323  1.0000
  C   C37       1.0  0.6636127829883235  0.14197268586118383  0.5317683056819291  1.0000
  C   C38       1.0  0.33639108075157503  0.8580283738317931  0.4682340749735303  1.0000
  C   C39       1.0  0.7351679803031956  0.06426252313462298  0.44134441028503335  1.0000
  C   C40       1.0  0.26483137103901555  0.9357356425158158  0.558654598441322  1.0000
  N   N1        1.0  0.19569090051160742  0.09028833209281122  0.9314208521275448  1.0000
  N   N2        1.0  0.8043089654389418  0.9097146457558265  0.06857735546136466  1.0000
  N   N3        1.0  0.7656629290682062  0.10351991418211531  0.9014147334990595  1.0000
  N   N4        1.0  0.23433063791576095  0.8964763412105867  0.0985889179205159  1.0000
  N   N5        1.0  0.8615056698489596  0.3027223960742018  0.28166345357030304  1.0000
  N   N6        1.0  0.13849808744760134  0.6972776980242726  0.7183378220889053  1.0000
  O   O1        1.0  0.07559962128314619  0.16085883564804246  0.1704932623260831  1.0000
  O   O2        1.0  0.9244011311022645  0.8391393320933743  0.8295069703553819  1.0000
  F   F1        1.0  0.6484650059025866  0.37567078326906506  0.8211530293235538  1.0000
  F   F2        1.0  0.35153176630182503  0.6243293184023244  0.17884935641004762  1.0000
  F   F3        1.0  0.3482971733245889  0.3688035784274462  0.13505663693058514  1.0000
  F   F4        1.0  0.6516995888179123  0.6311965142300477  0.8649421338780526  1.0000
