data_image0
_chemical_formula_structural       Ca2H16C4N16O12
_chemical_formula_sum              "Ca2 H16 C4 N16 O12"
_cell_length_a       5.577901003781083
_cell_length_b       6.477201735587202
_cell_length_c       14.819517874928406
_cell_angle_alpha    81.24904959491282
_cell_angle_beta     79.17098487520884
_cell_angle_gamma    64.49356994265939

_space_group_name_H-M_alt    "P 1"
_space_group_IT_number       1

loop_
  _space_group_symop_operation_xyz
  'x, y, z'

loop_
  _atom_site_type_symbol
  _atom_site_label
  _atom_site_symmetry_multiplicity
  _atom_site_fract_x
  _atom_site_fract_y
  _atom_site_fract_z
  _atom_site_occupancy
  Ca  Ca1       1.0  0.5228819242980977  0.7498681212346696  0.7500018316370571  1.0000
  Ca  Ca2       1.0  0.47711873293818746  0.2501327486147247  0.24999834571050883  1.0000
  H   H1        1.0  0.9901335511952986  0.9212075263684126  0.8794013384373471  1.0000
  H   H2        1.0  0.2905617555833115  0.578725292762897  0.6205985848998311  1.0000
  H   H3        1.0  0.009867350468269412  0.07879497321325599  0.12059594928177117  1.0000
  H   H4        1.0  0.7094404972033318  0.42128071246304427  0.37940099103305874  1.0000
  H   H5        1.0  0.04368490138698176  0.31081639187049603  0.7199901615645175  1.0000
  H   H6        1.0  0.5747577583193856  0.18886641433241635  0.7799357443592073  1.0000
  H   H7        1.0  0.9563183131492681  0.6891862019015492  0.28001021545134114  1.0000
  H   H8        1.0  0.4252464573682246  0.8111362039752023  0.22006543791124505  1.0000
  H   H9        1.0  0.10145785943762307  0.4572003525751143  0.7815016330288599  1.0000
  H   H10       1.0  0.840265381359934  0.0426353752789481  0.7183450870271173  1.0000
  H   H11       1.0  0.8985498091568686  0.5428021628143114  0.21849618157686734  1.0000
  H   H12       1.0  0.1597365214549881  0.9573671488383012  0.28165300594659465  1.0000
  H   H13       1.0  0.14268653306658066  0.0728515233210345  0.8911167584464933  1.0000
  H   H14       1.0  0.6064643134013606  0.42712117935857913  0.6089111108378589  1.0000
  H   H15       1.0  0.8573200949748095  0.9271475315433335  0.10888024673300838  1.0000
  H   H16       1.0  0.3935372094021615  0.5728814104615269  0.3910891344563439  1.0000
  C   C1        1.0  0.4296294360986721  0.42866708702035783  0.0027103779048261367  1.0000
  C   C2        1.0  0.3610306959343815  0.07135248373372598  0.4972870350071261  1.0000
  C   C3        1.0  0.5703445442067833  0.5713187029096289  0.9973022634168983  1.0000
  C   C4        1.0  0.6389765532469625  0.9286466613690794  0.50271292774746  1.0000
  N   N1        1.0  0.2203567781345015  0.24456981864516078  0.9623924016744424  1.0000
  N   N2        1.0  0.927348132991  0.25533021468347533  0.5375252712959123  1.0000
  N   N3        1.0  0.779644098207484  0.7554157677524741  0.03761360619012074  1.0000
  N   N4        1.0  0.07265659829212717  0.7446706424861559  0.46247449596200596  1.0000
  N   N5        1.0  0.3517174053991281  0.3186333065432266  0.07904114331012835  1.0000
  N   N6        1.0  0.24945830888938042  0.18151967376053335  0.42096838376469486  1.0000
  N   N7        1.0  0.648256303738094  0.6813558742570223  0.9209700233956896  1.0000
  N   N8        1.0  0.7505447306610117  0.8184811794571585  0.5790312517715748  1.0000
  N   N9        1.0  0.22561816303712587  0.2089335010012405  0.051926749974200014  1.0000
  N   N10       1.0  0.9865580269382119  0.2911516698833196  0.4480181231578159  1.0000
  N   N11       1.0  0.7743683532775305  0.7910537697996602  0.9480781403421331  1.0000
  N   N12       1.0  0.013445187598044653  0.7088509238887256  0.5519822538580356  1.0000
  N   N13       1.0  0.3486694105233143  0.38156995384567677  0.9296394479561911  1.0000
  N   N14       1.0  0.1598837986530837  0.11829036220240138  0.5702724774252914  1.0000
  N   N15       1.0  0.651333414639474  0.6184257228281921  0.07035944192885783  1.0000
  N   N16       1.0  0.8401210020714555  0.8817103841451586  0.4297236587245976  1.0000
  O   O1        1.0  0.9652797311605281  0.46055402747658997  0.7468500640139268  1.0000
  O   O2        1.0  0.6729330459696998  0.03918247944449149  0.7530287937931702  1.0000
  O   O3        1.0  0.034728073018072826  0.5394467924777046  0.2531484878997574  1.0000
  O   O4        1.0  0.3270697224124602  0.9608217646434696  0.2469693671271855  1.0000
  O   O5        1.0  0.37968955560393886  0.4446429718062178  0.8417841057871128  1.0000
  O   O6        1.0  0.16601363723649587  0.05510126757479129  0.6580885960026136  1.0000
  O   O7        1.0  0.6203244070264232  0.5553662303094099  0.15820765536536646  1.0000
  O   O8        1.0  0.8339915829011914  0.9449028490593887  0.3419053919984166  1.0000
  O   O9        1.0  0.1333739235302286  0.9713531608788841  0.8498746376004291  1.0000
  O   O10       1.0  0.45443593277975214  0.5284751736378509  0.6501780585072084  1.0000
  O   O11       1.0  0.8666218067527821  0.028654458271582  0.15012152181740399  1.0000
  O   O12       1.0  0.5455681079219942  0.47152570411542166  0.349822382283655  1.0000
