data_image0
_chemical_formula_structural       Co6H24C30N12O14
_chemical_formula_sum              "Co6 H24 C30 N12 O14"
_cell_length_a       10.973888392344323
_cell_length_b       10.627741205081254
_cell_length_c       10.961296119429884
_cell_angle_alpha    85.31352528814033
_cell_angle_beta     83.88265659715788
_cell_angle_gamma    83.39603136137704

_space_group_name_H-M_alt    "P 1"
_space_group_IT_number       1

loop_
  _space_group_symop_operation_xyz
  'x, y, z'

loop_
  _atom_site_type_symbol
  _atom_site_label
  _atom_site_symmetry_multiplicity
  _atom_site_fract_x
  _atom_site_fract_y
  _atom_site_fract_z
  _atom_site_occupancy
  Co  Co1       1.0  0.9093903499882074  0.25146865192144224  0.08051661234194545  1.0000
  Co  Co2       1.0  0.09059171987001241  0.7485424559372545  0.9194964912132092  1.0000
  Co  Co3       1.0  0.8416690500595081  0.0089740475176256  0.9765569556884371  1.0000
  Co  Co4       1.0  0.1583080409740205  0.9910190058734327  0.023437275940033014  1.0000
  Co  Co5       1.0  0.9950842042427936  0.49902742002358746  0.8448245093820432  1.0000
  Co  Co6       1.0  0.004873814992713199  0.5009817089001203  0.1551736471147507  1.0000
  H   H1        1.0  0.8329085378936298  0.9958748854101669  0.6510310582745902  1.0000
  H   H2        1.0  0.16706232313748606  0.0041209816468069  0.3489838355924845  1.0000
  H   H3        1.0  0.8484919743693952  0.09358527106160609  0.4340803602699381  1.0000
  H   H4        1.0  0.1514437531351689  0.9064285184312907  0.5659285444547351  1.0000
  H   H5        1.0  0.942252316853093  0.445078106364832  0.5520900357818801  1.0000
  H   H6        1.0  0.057754132927939815  0.5549093486876231  0.4479154142473901  1.0000
  H   H7        1.0  0.32393938740457884  0.5119845924067192  0.16593600233736078  1.0000
  H   H8        1.0  0.6760592300134007  0.4880408570335035  0.8340263201124216  1.0000
  H   H9        1.0  0.5464441616987159  0.4224896848702143  0.13313286982653239  1.0000
  H   H10       1.0  0.4535474699487735  0.5775366766497  0.8668485429544219  1.0000
  H   H11       1.0  0.4450798299031787  0.06215847505910689  0.04522029115728541  1.0000
  H   H12       1.0  0.5548825860255633  0.9378639610240568  0.954789898387652  1.0000
  H   H13       1.0  0.9210402627260237  0.03255423033196081  0.18410169677786567  1.0000
  H   H14       1.0  0.07895301879659662  0.967456913982019  0.815919064056061  1.0000
  H   H15       1.0  0.8135836990900956  0.4754256229738091  0.05063026283255564  1.0000
  H   H16       1.0  0.1863753334902754  0.5245730632342642  0.9493640465160452  1.0000
  H   H17       1.0  0.1679527929530593  0.3488459128667997  0.7126545352198548  1.0000
  H   H18       1.0  0.8320915955569246  0.651180632935663  0.28734278114813344  1.0000
  H   H19       1.0  0.388178122066229  0.3290105512640197  0.7151009555015405  1.0000
  H   H20       1.0  0.6119112238012507  0.6709696493904856  0.28484223245407486  1.0000
  H   H21       1.0  0.3106937973604289  0.48527356506502867  0.7369347107323633  1.0000
  H   H22       1.0  0.6893775447332475  0.514691355328132  0.26303306047255853  1.0000
  H   H23       1.0  0.35337649713596164  0.38138436412718574  0.8663874616916515  1.0000
  H   H24       1.0  0.6467246456452216  0.6185740246644613  0.13356781921852698  1.0000
  C   C1        1.0  0.9118788655350656  0.2937493715716357  0.6940894806316961  1.0000
  C   C2        1.0  0.08814322001195052  0.7062381406446007  0.3059166587748051  1.0000
  C   C3        1.0  0.8793177462047977  0.1682993037748375  0.7218968810820242  1.0000
  C   C4        1.0  0.120686844766837  0.8316900395491373  0.2781159590745759  1.0000
  C   C5        1.0  0.8557198310362037  0.0928328688975313  0.6293392301610793  1.0000
  C   C6        1.0  0.1442644117400178  0.9071677942589033  0.370679913076266  1.0000
  C   C7        1.0  0.8646166173881439  0.1471460542338434  0.5102227393781575  1.0000
  C   C8        1.0  0.13535948998507755  0.8528517336351701  0.48978948762643154  1.0000
  C   C9        1.0  0.8952391983922325  0.27363629971067377  0.48157676209386574  1.0000
  C   C10       1.0  0.10475395799308979  0.7263577485453041  0.518439928200756  1.0000
  C   C11       1.0  0.9187927354931987  0.34851897253211206  0.5732038786262308  1.0000
  C   C12       1.0  0.0812266332824976  0.6514694759318544  0.4268080152361264  1.0000
  C   C13       1.0  0.9048981871120532  0.323540678802189  0.3494052879712157  1.0000
  C   C14       1.0  0.09511160091640393  0.6764524809991457  0.6506111257685915  1.0000
  C   C15       1.0  0.2957451386144854  0.2086750142536147  0.0879047689745605  1.0000
  C   C16       1.0  0.7042339939640668  0.7913436896298122  0.9120962382023092  1.0000
  C   C17       1.0  0.26181363083824033  0.33426741435991386  0.12355994862357991  1.0000
  C   C18       1.0  0.7381740926472136  0.6657522839624759  0.8764206910123774  1.0000
  C   C19       1.0  0.3507047068595242  0.4146763735706074  0.1410939416621559  1.0000
  C   C20       1.0  0.6492851452289656  0.5853328810379634  0.8588909182349197  1.0000
  C   C21       1.0  0.47284522229395526  0.36493299658972944  0.12267299757095168  1.0000
  C   C22       1.0  0.527154894867074  0.6350753444272285  0.8773142450912487  1.0000
  C   C23       1.0  0.5077058243180587  0.2382647401620801  0.08882531810574082  1.0000
  C   C24       1.0  0.49227619653540705  0.761736872082075  0.9111821751016363  1.0000
  C   C25       1.0  0.4195766996453046  0.15860308862026778  0.07163842620513347  1.0000
  C   C26       1.0  0.5803994492055864  0.841409902606763  0.9283661726298362  1.0000
  C   C27       1.0  0.6422442360993514  0.19253335271427827  0.06962887961145009  1.0000
  C   C28       1.0  0.3577400017065528  0.8074692051190339  0.9303983234926605  1.0000
  C   C29       1.0  0.3198706521979632  0.38581839862578704  0.7750818633924793  1.0000
  C   C30       1.0  0.6802302061591734  0.6141428383589299  0.2248741359360976  1.0000
  N   N1        1.0  0.8800116918841425  0.14440657296052004  0.8458800308752217  1.0000
  N   N2        1.0  0.11997117258137996  0.8555788927783111  0.1541295760170343  1.0000
  N   N3        1.0  0.9128672671735456  0.2467243069094849  0.8909552896431662  1.0000
  N   N4        1.0  0.08712899757130543  0.7532631126663742  0.10904693167447727  1.0000
  N   N5        1.0  0.9320140296986706  0.33923446677751196  0.8035243937851888  1.0000
  N   N6        1.0  0.0679987644954636  0.6607530139061379  0.1964774872135919  1.0000
  N   N7        1.0  0.18811252714306897  0.1588730020317612  0.0734272565484915  1.0000
  N   N8        1.0  0.8118813157005745  0.8411381536395411  0.926578828931241  1.0000
  N   N9        1.0  0.09597627464101069  0.2494647949797795  0.09850542620332449  1.0000
  N   N10       1.0  0.9040115746860309  0.7505434853845898  0.9015062390201082  1.0000
  N   N11       1.0  0.136366119393962  0.3542666557009753  0.13017945713720985  1.0000
  N   N12       1.0  0.8636178410912264  0.6457501653181053  0.8698228970610626  1.0000
  O   O1        1.0  0.9404327657182066  0.0584530631978382  0.09761454365663981  1.0000
  O   O2        1.0  0.05950256239053434  0.9415835177507644  0.9024016878652288  1.0000
  O   O3        1.0  0.9003880187955104  0.4426316887867258  0.04351753100547027  1.0000
  O   O4        1.0  0.09957977386349628  0.5573964782097391  0.9564741515560655  1.0000
  O   O5        1.0  0.9345116487438788  0.4373334372497482  0.32419567273094424  1.0000
  O   O6        1.0  0.06550821381387105  0.56264836921941  0.6758075703743316  1.0000
  O   O7        1.0  0.8835598381843967  0.24930644985755626  0.2712020348655884  1.0000
  O   O8        1.0  0.1164352221112637  0.7507037552531202  0.7288121817874966  1.0000
  O   O9        1.0  0.6715889076143  0.07767236389595669  0.03964975163486882  1.0000
  O   O10       1.0  0.3283900999701571  0.9223235124731771  0.9603978416377714  1.0000
  O   O11       1.0  0.7179067305206741  0.270734648470217  0.08386411715177645  1.0000
  O   O12       1.0  0.2820921620850073  0.7292632281146608  0.9161405616613082  1.0000
  O   O13       1.0  0.20328272873939573  0.3345924332474652  0.7911090635241038  1.0000
  O   O14       1.0  0.7968087378418147  0.6653478625858611  0.20886081495213918  1.0000
