data_image0
_chemical_formula_structural       Hg4H48C52N16O24
_chemical_formula_sum              "Hg4 H48 C52 N16 O24"
_cell_length_a       10.394458953058807
_cell_length_b       10.643955567091748
_cell_length_c       14.21188821300133
_cell_angle_alpha    90.00004953647203
_cell_angle_beta     89.99999136575813
_cell_angle_gamma    97.32524356261972

_space_group_name_H-M_alt    "P 1"
_space_group_IT_number       1

loop_
  _space_group_symop_operation_xyz
  'x, y, z'

loop_
  _atom_site_type_symbol
  _atom_site_label
  _atom_site_symmetry_multiplicity
  _atom_site_fract_x
  _atom_site_fract_y
  _atom_site_fract_z
  _atom_site_occupancy
  Hg  Hg1       1.0  0.1618492650383416  0.22582822841366829  0.2431310224481749  1.0000
  Hg  Hg2       1.0  0.3381496370095719  0.7741707611037185  0.743131604932671  1.0000
  Hg  Hg3       1.0  0.8381500252575691  0.7741716439156079  0.7568693718695911  1.0000
  Hg  Hg4       1.0  0.6618496532863604  0.2258291112251527  0.2568680857488275  1.0000
  H   H1        1.0  0.1260636603961487  0.4224411573794881  0.9082749351356654  1.0000
  H   H2        1.0  0.37393607180947447  0.5775570753035667  0.4082752606276969  1.0000
  H   H3        1.0  0.8739363465478149  0.5775568213864091  0.09172545918144691  1.0000
  H   H4        1.0  0.6260640578944318  0.4224418506928131  0.5917244300534463  1.0000
  H   H5        1.0  0.1255546238900749  0.22072664856040797  0.8147665351417928  1.0000
  H   H6        1.0  0.3744451135532643  0.7792714768242774  0.3147669911849675  1.0000
  H   H7        1.0  0.8744456285737741  0.7792732246664472  0.1852324519033814  1.0000
  H   H8        1.0  0.6255540539827251  0.22072744827411134  0.6852334031324999  1.0000
  H   H9        1.0  0.1500768052786583  0.019655028772518804  0.9008788825865609  1.0000
  H   H10       1.0  0.34992208793325835  0.9803441417564046  0.40087947152673553  1.0000
  H   H11       1.0  0.8499215228493784  0.9803448426579706  0.0991208080949875  1.0000
  H   H12       1.0  0.6500772023626523  0.019655730572871705  0.5991209227910304  1.0000
  H   H13       1.0  0.16931614532042968  0.025320174053426594  0.0765387376716973  1.0000
  H   H14       1.0  0.3306849359145474  0.9746805205618971  0.5765387471703534  1.0000
  H   H15       1.0  0.8306851920712219  0.9746806473031029  0.9234609530099931  1.0000
  H   H16       1.0  0.6693153165492873  0.025319352665363195  0.42346094351108826  1.0000
  H   H17       1.0  0.11559213879854721  0.5266297835949274  0.0611180104558429  1.0000
  H   H18       1.0  0.3844078583723843  0.4733699451960547  0.5611176894358678  1.0000
  H   H19       1.0  0.8844089530732405  0.4733691433002392  0.9388823838615182  1.0000
  H   H20       1.0  0.6155925168513718  0.5266308752620928  0.4388820012458794  1.0000
  H   H21       1.0  0.1854325664742262  0.6812151768103902  0.1634028465526214  1.0000
  H   H22       1.0  0.31456838713526036  0.31878467024849755  0.6634031367825131  1.0000
  H   H23       1.0  0.8145686481575042  0.3187846973152589  0.8365968441287635  1.0000
  H   H24       1.0  0.6854318653285459  0.6812152029791676  0.3365972575351961  1.0000
  H   H25       1.0  0.1317577070014551  0.8483207230958243  0.2703640601613273  1.0000
  H   H26       1.0  0.3682424012087822  0.1516801930310834  0.7703649399074095  1.0000
  H   H27       1.0  0.868242668222301  0.1516800973623162  0.7296356305204128  1.0000
  H   H28       1.0  0.631758936182834  0.8483206283262564  0.22963615804682289  1.0000
  H   H29       1.0  0.9302407337874784  0.5680503569571157  0.4541312025229161  1.0000
  H   H30       1.0  0.5697579715391684  0.431950623639807  0.954133000308211  1.0000
  H   H31       1.0  0.06975759434057952  0.43194951447296853  0.5458677845223576  1.0000
  H   H32       1.0  0.43024264920440203  0.5680520912809115  0.0458680976466681  1.0000
  H   H33       1.0  0.9857600541244197  0.3981032899714804  0.3473796715007538  1.0000
  H   H34       1.0  0.5142385344218711  0.6018966208988276  0.8473794745407162  1.0000
  H   H35       1.0  0.014239358931419617  0.6018975295886762  0.6526207228173108  1.0000
  H   H36       1.0  0.48576087863398953  0.3981041986609312  0.15262021614108076  1.0000
  H   H37       1.0  0.8949336042593146  0.8459060185839035  0.42241770413689744  1.0000
  H   H38       1.0  0.6050660650116485  0.15409492652008083  0.9224179108464626  1.0000
  H   H39       1.0  0.1050666482045131  0.15409385464335662  0.5775819865445442  1.0000
  H   H40       1.0  0.3949343102120864  0.8459058939384647  0.0775824834715451  1.0000
  H   H41       1.0  0.05981741679234186  0.912710582901042  0.42206384279027287  1.0000
  H   H42       1.0  0.4401826829206925  0.08729050729694882  0.9220639692714129  1.0000
  H   H43       1.0  0.9401819962635116  0.0872902366587098  0.5779358478915241  1.0000
  H   H44       1.0  0.5598178150629707  0.9127112603924772  0.077936425046893  1.0000
  H   H45       1.0  0.0019091905121442529  0.7980914858417806  0.5086103663487975  1.0000
  H   H46       1.0  0.4980908095999085  0.2019081826982827  0.0086104349149352  1.0000
  H   H47       1.0  0.9980910619516906  0.20190838738547973  0.49138932433264415  1.0000
  H   H48       1.0  0.5019094428639052  0.7980916905293827  0.991389959402774  1.0000
  C   C1        1.0  0.1402101558938611  0.3268765779350673  0.0405837271860037  1.0000
  C   C2        1.0  0.359790804595157  0.6731231281918255  0.5405835382195008  1.0000
  C   C3        1.0  0.8597916526259368  0.6731204553975304  0.9594180744032386  1.0000
  C   C4        1.0  0.6402094478686707  0.3268767450354347  0.4594161524619409  1.0000
  C   C5        1.0  0.13329319499998601  0.33203052632701713  0.9424357426987697  1.0000
  C   C6        1.0  0.3667067808120166  0.6679696400164586  0.4424361275286799  1.0000
  C   C7        1.0  0.866708265151594  0.6679712422603928  0.05756394798321911  1.0000
  C   C8        1.0  0.6332925094838943  0.3320302323128175  0.5575642667890861  1.0000
  C   C9        1.0  0.1346803164322949  0.2206944870477088  0.8909689353061054  1.0000
  C   C10       1.0  0.36531941674265067  0.7793037257780427  0.39097079964950854  1.0000
  C   C11       1.0  0.8653214920875953  0.7793025462828711  0.10902934810179228  1.0000
  C   C12       1.0  0.6346796280333963  0.22069425208987065  0.609030298303928  1.0000
  C   C13       1.0  0.1465359704179363  0.10818911930171994  0.938303213692322  1.0000
  C   C14       1.0  0.35346292069773716  0.8918100941702041  0.4383030412809887  1.0000
  C   C15       1.0  0.8534634426379243  0.8918117002580388  0.06169647698946789  1.0000
  C   C16       1.0  0.6465362468382523  0.1081888309281922  0.5616973530364788  1.0000
  C   C17       1.0  0.15682218202221074  0.10989543833822071  0.0360888275360338  1.0000
  C   C18       1.0  0.3431768543827616  0.8901042608346046  0.5360894845309758  1.0000
  C   C19       1.0  0.8431779476816958  0.8901034876581594  0.9639108631451094  1.0000
  C   C20       1.0  0.6568214737452537  0.1098956105962827  0.4639109097868399  1.0000
  C   C21       1.0  0.12405929423750453  0.4377887345276721  0.0985493198379075  1.0000
  C   C22       1.0  0.3759417857645886  0.5622119853440566  0.5985490572757115  1.0000
  C   C23       1.0  0.8759409582263442  0.5622111386991832  0.9014496672072667  1.0000
  C   C24       1.0  0.6240595516270632  0.4377888360124729  0.4014506334059718  1.0000
  C   C25       1.0  0.08737168017943732  0.5278130083213527  0.2476569128054891  1.0000
  C   C26       1.0  0.4126281837828714  0.472185987287645  0.7476572915418558  1.0000
  C   C27       1.0  0.9126295344522931  0.4721868658042963  0.7523427778759029  1.0000
  C   C28       1.0  0.5873720686809634  0.5278138859396151  0.2523423991395859  1.0000
  C   C29       1.0  0.1281583670483641  0.6555053029531948  0.2263416983931279  1.0000
  C   C30       1.0  0.3718417436277122  0.3444955626592829  0.7263427025873811  1.0000
  C   C31       1.0  0.8718410460074962  0.344495516606564  0.7736579922886619  1.0000
  C   C32       1.0  0.6281605559318207  0.6555052595960404  0.2736576917305271  1.0000
  C   C33       1.0  0.09779694903006943  0.749951835957404  0.286988140683853  1.0000
  C   C34       1.0  0.40220399765696874  0.2500481529127327  0.7869890803751715  1.0000
  C   C35       1.0  0.9022042656016822  0.25004803816784005  0.7130108463612714  1.0000
  C   C36       1.0  0.5977973397346616  0.7499526684442017  0.2130113139427863  1.0000
  C   C37       1.0  0.025911935767361206  0.7212790110901394  0.3696414733606233  1.0000
  C   C38       1.0  0.4740881668820265  0.2787220189546318  0.8696417200502253  1.0000
  C   C39       1.0  0.9740884394563946  0.27872180936800817  0.6303582173211167  1.0000
  C   C40       1.0  0.525913170509604  0.7212788024023027  0.13035867426773248  1.0000
  C   C41       1.0  0.9858173667753148  0.5931401782458039  0.390124230718726  1.0000
  C   C42       1.0  0.5141812193766668  0.40685978167350373  0.8901253147538951  1.0000
  C   C43       1.0  0.014182885688534016  0.40685969498105123  0.609874756326448  1.0000
  C   C44       1.0  0.4858191558470679  0.593141038785042  0.1098750795641195  1.0000
  C   C45       1.0  0.017280508394328802  0.497311083058193  0.3310173992416523  1.0000
  C   C46       1.0  0.4827186342506238  0.5026899017681645  0.8310177899951083  1.0000
  C   C47       1.0  0.9827189046615102  0.5026897365019636  0.6689829950764122  1.0000
  C   C48       1.0  0.5172809015651437  0.4973118650228798  0.16898260432325427  1.0000
  C   C49       1.0  0.9946768125245171  0.8247913294610995  0.4342774811156147  1.0000
  C   C50       1.0  0.5053238182500408  0.17520963015007143  0.9342777125012844  1.0000
  C   C51       1.0  0.005323562699238909  0.17520949099704813  0.5657222095661324  1.0000
  C   C52       1.0  0.4946775191415895  0.8247911912068631  0.0657226818166734  1.0000
  N   N1        1.0  0.15281139202468813  0.2168059933595714  0.0848184885536583  1.0000
  N   N2        1.0  0.3471887265786151  0.783194709858094  0.5848183722469926  1.0000
  N   N3        1.0  0.8471888604391183  0.7831938798680937  0.9151819057640509  1.0000
  N   N4        1.0  0.6528106864772455  0.21680610970166478  0.4151813184347972  1.0000
  N   N5        1.0  0.1123830100114915  0.42788714882452433  0.1886379797265931  1.0000
  N   N6        1.0  0.387616017848714  0.5721127253939287  0.6886377222871332  1.0000
  N   N7        1.0  0.887616280284405  0.5721127235051569  0.8113631182274403  1.0000
  N   N8        1.0  0.6123843573750422  0.42788809506421904  0.31136196839460684  1.0000
  N   N9        1.0  0.9034616063570057  0.0647911284465579  0.279257022733951  1.0000
  N   N10       1.0  0.5965357783172961  0.9352068088951739  0.7792577361446006  1.0000
  N   N11       1.0  0.0965376839389123  0.9352087438827182  0.720743371583815  1.0000
  N   N12       1.0  0.4034625498107189  0.0647930625357205  0.220742658173215  1.0000
  N   N13       1.0  0.2869431144900433  0.26013319157249976  0.4277419636856408  1.0000
  N   N14       1.0  0.2130567393850811  0.7398660106794851  0.9277425377597907  1.0000
  N   N15       1.0  0.7130571379737914  0.7398666816547603  0.5722577269958008  1.0000
  N   N16       1.0  0.7869425509108297  0.26013386164979113  0.07225785655797519  1.0000
  O   O1        1.0  0.0011751290989253  0.017426284636243797  0.24825343588262427  1.0000
  O   O2        1.0  0.4988207633983636  0.9825717608346167  0.7482569501222116  1.0000
  O   O3        1.0  0.9988242839569352  0.9825745349235149  0.7517462547991657  1.0000
  O   O4        1.0  0.5011785268975686  0.017428111494254505  0.2517427405592798  1.0000
  O   O5        1.0  0.9151139595455716  0.18458097056645073  0.29673820034343373  1.0000
  O   O6        1.0  0.5848864334132031  0.8154179367596653  0.7967374302050416  1.0000
  O   O7        1.0  0.08488533075033901  0.8154189017628256  0.7032621939743252  1.0000
  O   O8        1.0  0.415112017474712  0.1845828819025144  0.20326366774934  1.0000
  O   O9        1.0  0.7968605760830556  0.9974931465572253  0.29162866345487254  1.0000
  O   O10       1.0  0.7031380155860845  0.0025067003392252  0.7916266502843712  1.0000
  O   O11       1.0  0.203139553620808  0.0025057794399642994  0.7083724344988056  1.0000
  O   O12       1.0  0.2968622368777858  0.997493172887225  0.20837163312452842  1.0000
  O   O13       1.0  0.22700805859994233  0.1617949486472128  0.3815728413543126  1.0000
  O   O14       1.0  0.27299276002918305  0.8382042015249311  0.8815727688521164  1.0000
  O   O15       1.0  0.772992193863871  0.8382049245804523  0.6184275529634036  1.0000
  O   O16       1.0  0.7270084546025258  0.16179567260112293  0.1184276254655359  1.0000
  O   O17       1.0  0.29277156245363056  0.36782573136003555  0.390874272269599  1.0000
  O   O18       1.0  0.20722829348660102  0.6321734285867961  0.8908740736210987  1.0000
  O   O19       1.0  0.7072288127701114  0.63217508909851  0.6091261220484085  1.0000
  O   O20       1.0  0.7927690724735968  0.3678264419440964  0.1091235061516969  1.0000
  O   O21       1.0  0.3339953064172363  0.23949783302685998  0.5056802257636264  1.0000
  O   O22       1.0  0.16600733484276733  0.7604999403845697  0.0056806926497401  1.0000
  O   O23       1.0  0.6660067476224614  0.7605010947662906  0.49431946491741036  1.0000
  O   O24       1.0  0.8339955586048831  0.23949804107649436  0.9943197016672158  1.0000
