data_image0
_chemical_formula_structural       Cd4H56C48S8N4Cl8
_chemical_formula_sum              "Cd4 H56 C48 S8 N4 Cl8"
_cell_length_a       8.235697628975391
_cell_length_b       14.844118901106812
_cell_length_c       18.508511716480903
_cell_angle_alpha    83.38151594374482
_cell_angle_beta     77.78148165300597
_cell_angle_gamma    73.93287509828102

_space_group_name_H-M_alt    "P 1"
_space_group_IT_number       1

loop_
  _space_group_symop_operation_xyz
  'x, y, z'

loop_
  _atom_site_type_symbol
  _atom_site_label
  _atom_site_symmetry_multiplicity
  _atom_site_fract_x
  _atom_site_fract_y
  _atom_site_fract_z
  _atom_site_occupancy
  Cd  Cd1       1.0  0.11711795507639494  0.883428593122126  0.9503104513042686  1.0000
  Cd  Cd2       1.0  0.9510279789927698  0.6171449474938626  0.549187473321105  1.0000
  Cd  Cd3       1.0  0.8828858864412225  0.116573103220901  0.04968670451842172  1.0000
  Cd  Cd4       1.0  0.04898085267578262  0.3828546418524822  0.45081203773497697  1.0000
  H   H1        1.0  0.3791583156854371  0.8867288522619956  0.7455596143081209  1.0000
  H   H2        1.0  0.01702196214490206  0.6127012914866439  0.7537089754081878  1.0000
  H   H3        1.0  0.6208441013837526  0.1132770580744022  0.2544380070323485  1.0000
  H   H4        1.0  0.9829958535114685  0.3872884652085062  0.24628670197905225  1.0000
  H   H5        1.0  0.5944189408298545  0.8616605080442382  0.7622740296515005  1.0000
  H   H6        1.0  0.2225661924494276  0.6381903327090368  0.7385354503680688  1.0000
  H   H7        1.0  0.4055825174494245  0.1383475092888489  0.23772469518799974  1.0000
  H   H8        1.0  0.7774383350759849  0.3618078519728484  0.26146535554428857  1.0000
  H   H9        1.0  0.4500416589441018  0.7925151978550529  0.8092149822328027  1.0000
  H   H10       1.0  0.05532008962943265  0.707338452227134  0.6908021162111383  1.0000
  H   H11       1.0  0.5499693930720467  0.2074850938235215  0.19077819554903647  1.0000
  H   H12       1.0  0.9446835778120006  0.2926555184613874  0.30919676366912097  1.0000
  H   H13       1.0  0.48385500222539674  0.9436746516489902  0.9670801929121284  1.0000
  H   H14       1.0  0.3948585894602774  0.5570604253794684  0.5334208200093968  1.0000
  H   H15       1.0  0.5161583934823214  0.056322128368442685  0.03291622562449703  1.0000
  H   H16       1.0  0.6051573660747992  0.4429391639668765  0.4665753122269011  1.0000
  H   H17       1.0  0.6577977862976849  0.899951661120532  0.8944482008053783  1.0000
  H   H18       1.0  0.45333627195041265  0.6010418741678689  0.6066823002700731  1.0000
  H   H19       1.0  0.3422099949233015  0.10004863055804238  0.10554699942270672  1.0000
  H   H20       1.0  0.5466674366621264  0.3989703571585821  0.393310718607701  1.0000
  H   H21       1.0  0.8061304360515107  0.750036740034794  0.93423567253285  1.0000
  H   H22       1.0  0.49145963604847503  0.7504665673583941  0.5660229772698316  1.0000
  H   H23       1.0  0.19387449262566045  0.24996144464709857  0.06577596736793372  1.0000
  H   H24       1.0  0.5085288456165457  0.2495379383135514  0.4339718383499261  1.0000
  H   H25       1.0  0.5168064849013163  0.5557491711095963  0.04882530961612729  1.0000
  H   H26       1.0  0.11852730975583374  0.9446691540839891  0.4507648566907677  1.0000
  H   H27       1.0  0.4831933964883531  0.4442440972467025  0.9511677374045392  1.0000
  H   H28       1.0  0.881448743050029  0.05533745858463849  0.5492375391016324  1.0000
  H   H29       1.0  0.21165870074180057  0.6065797637864774  0.07383969717474773  1.0000
  H   H30       1.0  0.8875670914791911  0.8940197631219533  0.4258435073573352  1.0000
  H   H31       1.0  0.7883421102642815  0.3934184208954078  0.9261510934189378  1.0000
  H   H32       1.0  0.11240765268374281  0.1059826355533033  0.5741599076597482  1.0000
  H   H33       1.0  0.16789268581152317  0.649834298718794  0.9842790958431848  1.0000
  H   H34       1.0  0.8010380285146825  0.8501591154767849  0.5151146809798065  1.0000
  H   H35       1.0  0.832111778341236  0.3501751232787455  0.015713390665169427  1.0000
  H   H36       1.0  0.19893880900490757  0.14983766454064806  0.4848883353711315  1.0000
  H   H37       1.0  0.9821001914016493  0.844775738948357  0.17560686057053942  1.0000
  H   H38       1.0  0.9994886605147993  0.6552078425960273  0.32375972985074253  1.0000
  H   H39       1.0  0.017910664091118578  0.1552175294079348  0.8243964342784906  1.0000
  H   H40       1.0  0.0005275599419432715  0.3447903420858651  0.6762406182704555  1.0000
  H   H41       1.0  0.11086914681924036  0.7266996447593141  0.18693375578834556  1.0000
  H   H42       1.0  0.020732110981711478  0.773394905277115  0.3130057986959828  1.0000
  H   H43       1.0  0.8891431580819783  0.27329011193584307  0.8130636873073201  1.0000
  H   H44       1.0  0.9792817383106182  0.22660468406922965  0.6869936881319562  1.0000
  H   H45       1.0  0.2023128510223416  0.8157609899408766  0.13155428420716223  1.0000
  H   H46       1.0  0.14586670254188025  0.6845133571459456  0.36941236356108226  1.0000
  H   H47       1.0  0.7976946865900276  0.1842308737509626  0.8684468225375712  1.0000
  H   H48       1.0  0.8541361277529801  0.3154876368648587  0.6305936614577449  1.0000
  H   H49       1.0  0.7602410593517631  0.5181434942879264  0.10890561591487113  1.0000
  H   H50       1.0  0.3836448539797105  0.9813898922982387  0.39075386087733227  1.0000
  H   H51       1.0  0.23976169889783708  0.4818553927261888  0.8911015847889985  1.0000
  H   H52       1.0  0.6163464737473987  0.018606185386964593  0.6092550067285529  1.0000
  H   H53       1.0  0.9713876925192649  0.6065186608826352  0.8869574754734657  1.0000
  H   H54       1.0  0.467442054756084  0.89434845460471  0.6134324553276117  1.0000
  H   H55       1.0  0.0286141910596101  0.3934795237992574  0.11304722273432333  1.0000
  H   H56       1.0  0.5325455785769293  0.10564832541272298  0.3865759937457156  1.0000
  C   C1        1.0  0.46073827291259967  0.8628629008187545  0.7873614317054136  1.0000
  C   C2        1.0  0.11529732710460644  0.6369303486918196  0.7125963486543656  1.0000
  C   C3        1.0  0.539258851237868  0.13714020018873185  0.21263796067784574  1.0000
  C   C4        1.0  0.8847115337374452  0.3630622173322493  0.2874043153296669  1.0000
  C   C5        1.0  0.5278450226000261  0.8958633852207284  0.9215674854178105  1.0000
  C   C6        1.0  0.34615297781277093  0.6048569428309349  0.5789593073090131  1.0000
  C   C7        1.0  0.47216331342433177  0.10413479946115697  0.07843076034450291  1.0000
  C   C8        1.0  0.6538585552608255  0.3951482651732334  0.4210345593026119  1.0000
  C   C9        1.0  0.5291669949364677  0.7974266071261906  0.953001332019312  1.0000
  C   C10       1.0  0.2793979258313398  0.7032305110249479  0.5473197584696694  1.0000
  C   C11       1.0  0.4708399337390288  0.2025736845523838  0.04700096249881369  1.0000
  C   C12       1.0  0.720595545984622  0.2967718876503085  0.4526774123834799  1.0000
  C   C13       1.0  0.6850932965656396  0.7315148345152023  0.9573206765508503  1.0000
  C   C14       1.0  0.3739615973271101  0.7690334221405803  0.5428851371637435  1.0000
  C   C15       1.0  0.3149178221481535  0.2684861594956018  0.042683301793594815  1.0000
  C   C16       1.0  0.6260262745888596  0.23096897653467605  0.45711139184484045  1.0000
  C   C17       1.0  0.6839281679170881  0.6427611108495481  0.9925724451419814  1.0000
  C   C18       1.0  0.31824959563389393  0.8576888192943031  0.5074275692192033  1.0000
  C   C19       1.0  0.3160763175487347  0.3572384784967966  0.007430163767928423  1.0000
  C   C20       1.0  0.6817281319553317  0.1423156863776427  0.49257800047634964  1.0000
  C   C21       1.0  0.5240871213209886  0.6241443904791593  0.02166583124753882  1.0000
  C   C22       1.0  0.1677143500222231  0.8763743682230396  0.4781677248026099  1.0000
  C   C23       1.0  0.47590840179202604  0.3758537942027259  0.9783327439370241  1.0000
  C   C24       1.0  0.8322697038337172  0.12363435144226997  0.5218368014401236  1.0000
  C   C25       1.0  0.37331622748250476  0.6918646685775229  0.012004032599470825  1.0000
  C   C26       1.0  0.07506422027436334  0.8087727842712269  0.48795258373046124  1.0000
  C   C27       1.0  0.6266802972921821  0.3081405394266454  0.987991110473061  1.0000
  C   C28       1.0  0.9249190705028736  0.1912345307296235  0.51204345455956  1.0000
  C   C29       1.0  0.20232487967724913  0.6679095209413077  0.034131514965999116  1.0000
  C   C30       1.0  0.901681766833349  0.8324961622721643  0.4654138634686334  1.0000
  C   C31       1.0  0.7976838878064854  0.3320907707372668  0.9658602023015208  1.0000
  C   C32       1.0  0.09830129322135399  0.16750834339977413  0.5345851254125266  1.0000
  C   C33       1.0  0.08765066259797996  0.7890660442828263  0.14866923250887962  1.0000
  C   C34       1.0  0.02199092206554821  0.7110580037071796  0.35123361655941926  1.0000
  C   C35       1.0  0.9123631267230151  0.2109265217412357  0.8513289996940332  1.0000
  C   C36       1.0  0.9780127778743828  0.2889408833069352  0.6487688974073933  1.0000
  C   C37       1.0  0.8457412068152979  0.5703211601783238  0.9971109431776598  1.0000
  C   C38       1.0  0.4125787100622917  0.9299222842904624  0.5028839457777751  1.0000
  C   C39       1.0  0.15426546115200784  0.42967281051019757  0.0028936746190951082  1.0000
  C   C40       1.0  0.5873919802924233  0.07008081671702368  0.4971244035165087  1.0000
  C   C41       1.0  0.8646526477419059  0.5100104870864682  0.06079524641241112  1.0000
  C   C42       1.0  0.433384541065983  0.9897188501913448  0.4389998677725515  1.0000
  C   C43       1.0  0.13534852235633799  0.4899891022598765  0.9392081811672527  1.0000
  C   C44       1.0  0.5665982187337731  0.0102821438194596  0.5610062541588406  1.0000
  C   C45       1.0  0.9833568615426388  0.5594729365830062  0.9363733968009101  1.0000
  C   C46       1.0  0.4806634927667306  0.9410451197869703  0.563832181353007  1.0000
  C   C47       1.0  0.016643785438567718  0.4405231411021972  0.06363114494651262  1.0000
  C   C48       1.0  0.5193112264361871  0.05895657655606359  0.4361766198996478  1.0000
  S   S1        1.0  0.37925337872350434  0.9456959638014764  0.859039152983158  1.0000
  S   S2        1.0  0.18735532137119285  0.5545172803814964  0.6405956395285841  1.0000
  S   S3        1.0  0.6207514386835983  0.0543015185481792  0.14096048257852095  1.0000
  S   S4        1.0  0.8126657804792573  0.4454794996359367  0.3593980662609511  1.0000
  S   S5        1.0  0.019061637293369047  0.7615964261771777  0.06933520396511031  1.0000
  S   S6        1.0  0.8476530349220112  0.7385507987763589  0.42948501373793857  1.0000
  S   S7        1.0  0.9809446920063466  0.23840597249808576  0.9306628412422883  1.0000
  S   S8        1.0  0.15234450780174283  0.261448790569986  0.5705108060760369  1.0000
  N   N1        1.0  0.3774489958355215  0.7766986760781192  0.9788012231444159  1.0000
  N   N2        1.0  0.13171956397556514  0.7240104146578972  0.5213938732882895  1.0000
  N   N3        1.0  0.6225652299705048  0.2232988062715364  0.021196494111791322  1.0000
  N   N4        1.0  0.8682664024345212  0.27599128168512976  0.4786024324082875  1.0000
  Cl  Cl1       1.0  0.09210289340081323  0.771912984275815  0.8615723283972729  1.0000
  Cl  Cl2       1.0  0.7291625575115359  0.7283585534820958  0.6379734426350866  1.0000
  Cl  Cl3       1.0  0.9078916117631338  0.2280908190639011  0.13842557004585393  1.0000
  Cl  Cl4       1.0  0.2708453299538648  0.2716396311997897  0.3620277483840014  1.0000
  Cl  Cl5       1.0  0.8349270842680027  0.008468019674261  0.9483828804038269  1.0000
  Cl  Cl6       1.0  0.7934342724876581  0.4914647022711236  0.5513223713262577  1.0000
  Cl  Cl7       1.0  0.1650698212338639  0.9915273556787125  0.05161703226050212  1.0000
  Cl  Cl8       1.0  0.20657762672637145  0.5085341847429916  0.4486756884131823  1.0000
