data_image0
_chemical_formula_structural       Dy4Ag12H24C56N8O44
_chemical_formula_sum              "Dy4 Ag12 H24 C56 N8 O44"
_cell_length_a       8.136703240005131
_cell_length_b       13.834647746012864
_cell_length_c       14.567141973011646
_cell_angle_alpha    90.00012025382327
_cell_angle_beta     89.9999189952752
_cell_angle_gamma    90.00009983662453

_space_group_name_H-M_alt    "P 1"
_space_group_IT_number       1

loop_
  _space_group_symop_operation_xyz
  'x, y, z'

loop_
  _atom_site_type_symbol
  _atom_site_label
  _atom_site_symmetry_multiplicity
  _atom_site_fract_x
  _atom_site_fract_y
  _atom_site_fract_z
  _atom_site_occupancy
  Dy  Dy1       1.0  0.9738141207242136  0.7500003544844773  0.2499999812918787  1.0000
  Dy  Dy2       1.0  0.5261837963089562  0.7499999567605472  0.7499987186601516  1.0000
  Dy  Dy3       1.0  0.026184481537960394  0.25000070408790986  0.7499991068630578  1.0000
  Dy  Dy4       1.0  0.47381480595214487  0.2500003789889577  0.2500003694940673  1.0000
  Ag  Ag1       1.0  0.5525026152681888  0.8244094344960475  0.0143342283567449  1.0000
  Ag  Ag2       1.0  0.9474992098725036  0.8244143262398611  0.9856659925206798  1.0000
  Ag  Ag3       1.0  0.9474995808837432  0.6755896318919741  0.5143345420340282  1.0000
  Ag  Ag4       1.0  0.5525005730402552  0.6755901211576187  0.4856633234694812  1.0000
  Ag  Ag5       1.0  0.4474996739887799  0.17559017843245786  0.9856648597952856  1.0000
  Ag  Ag6       1.0  0.05250062139015199  0.17558890080333356  0.0143344685888351  1.0000
  Ag  Ag7       1.0  0.05250147937446309  0.32441070385954884  0.4856652325956645  1.0000
  Ag  Ag8       1.0  0.4474992582196221  0.32440949176886863  0.5143350782070684  1.0000
  Ag  Ag9       1.0  0.24999825521457805  0.5562237340446502  0.4999990129398526  1.0000
  Ag  Ag10      1.0  0.24999945915470786  0.9437762353424689  8.389537314e-07  1.0000
  Ag  Ag11      1.0  0.7499978890446853  0.44377515605934564  0.5000014481668131  1.0000
  Ag  Ag12      1.0  0.7499942271093969  0.05622337758164521  0.9999982492017166  1.0000
  H   H1        1.0  0.22633715596933968  0.7311651614144312  0.0556395537505594  1.0000
  H   H2        1.0  0.2736635612888846  0.7311654471007358  0.9443601929665703  1.0000
  H   H3        1.0  0.27366410559892523  0.7688349312252927  0.555639504660391  1.0000
  H   H4        1.0  0.22633672359308574  0.7688340609717274  0.4443596304886199  1.0000
  H   H5        1.0  0.7736639042888667  0.26883517433709164  0.9443602208791332  1.0000
  H   H6        1.0  0.7263362699692663  0.26883416582727193  0.055639581662895  1.0000
  H   H7        1.0  0.7263357256613714  0.23116612734848743  0.44436026997050965  1.0000
  H   H8        1.0  0.7736643366649074  0.23116555195614552  0.5556394576638937  1.0000
  H   H9        1.0  0.6150593059782138  0.4748133458527236  0.0677238757864416  1.0000
  H   H10       1.0  0.8849451673468064  0.4748173325850972  0.9322729039816692  1.0000
  H   H11       1.0  0.8849449572843183  0.025184230235076707  0.5677259995629811  1.0000
  H   H12       1.0  0.6150581799698215  0.025186110799104704  0.4322760643659507  1.0000
  H   H13       1.0  0.38494544127630087  0.5251848214297468  0.9322738394102572  1.0000
  H   H14       1.0  0.11505835091215735  0.5251837259890451  0.0677254976948518  1.0000
  H   H15       1.0  0.11505856096797368  0.9748146598734524  0.4322751480172045  1.0000
  H   H16       1.0  0.3849465672820853  0.974814947780985  0.5677271426452748  1.0000
  H   H17       1.0  0.8997982450581856  0.3536288682837139  0.2914408273358191  1.0000
  H   H18       1.0  0.6002009521668795  0.35362990003674355  0.7085584573516357  1.0000
  H   H19       1.0  0.6002017691107253  0.1463713718375672  0.7914406727031816  1.0000
  H   H20       1.0  0.8997980412519978  0.14637304777976115  0.2085602592648925  1.0000
  H   H21       1.0  0.10020158620103807  0.6463714674671834  0.7085589472943568  1.0000
  H   H22       1.0  0.39980010809433947  0.6463718813597839  0.2914406308030379  1.0000
  H   H23       1.0  0.39979806214742547  0.8536282410904408  0.2085591019262765  1.0000
  H   H24       1.0  0.10020179000764526  0.8536287336184288  0.7914408883196415  1.0000
  C   C1        1.0  0.6994917677842947  0.6643383162714971  0.1074058022034023  1.0000
  C   C2        1.0  0.8005034367157434  0.6643421288267747  0.8925920409311914  1.0000
  C   C3        1.0  0.80050650752095  0.8356602334608213  0.6074065511249955  1.0000
  C   C4        1.0  0.6994916640486721  0.8356613895762454  0.39259369212333445  1.0000
  C   C5        1.0  0.30050683447638693  0.3356605738307153  0.8925919129964655  1.0000
  C   C6        1.0  0.19949393654959377  0.3356603753907592  0.1074070472256636  1.0000
  C   C7        1.0  0.1994920947364917  0.16433937946808194  0.39259459645786887  1.0000
  C   C8        1.0  0.3005069382104963  0.1643382233511375  0.6074060825066142  1.0000
  C   C9        1.0  0.7578751731316798  0.5722919595111977  0.15082189093921983  1.0000
  C   C10       1.0  0.7421271318489173  0.5722956162410497  0.849175769150385  1.0000
  C   C11       1.0  0.7421266800837286  0.9277066863976772  0.6508235558213045  1.0000
  C   C12       1.0  0.7578754519953035  0.9277078059918229  0.3491775569440634  1.0000
  C   C13       1.0  0.24212588712695998  0.4277069305922725  0.8491758242596603  1.0000
  C   C14       1.0  0.25787638641133265  0.42770688797962464  0.15082331900403287  1.0000
  C   C15       1.0  0.25787438016973846  0.07229220371036152  0.349178278236316  1.0000
  C   C16       1.0  0.24212683726015166  0.07229252976184601  0.6508235906380477  1.0000
  C   C17       1.0  0.7017724973648284  0.4817424330092734  0.1243135348611304  1.0000
  C   C18       1.0  0.7982307675496115  0.48174620578446803  0.875683945162784  1.0000
  C   C19       1.0  0.7982316237136683  0.018255991256722805  0.6243157138388752  1.0000
  C   C20       1.0  0.7017690349560438  0.018257112241784102  0.3756849633599871  1.0000
  C   C21       1.0  0.2982322498916189  0.518256457095319  0.8756834938598317  1.0000
  C   C22       1.0  0.20176906371111153  0.5182562984366046  0.1243172024224677  1.0000
  C   C23       1.0  0.20177066553857503  0.9817421760282914  0.3756854337410828  1.0000
  C   C24       1.0  0.29823325429747877  0.9817425006897623  0.6243168706978679  1.0000
  C   C25       1.0  0.748332936501633  0.39926986833967976  0.1758698756373889  1.0000
  C   C26       1.0  0.7516676253469468  0.39927275651161415  0.8241288133359248  1.0000
  C   C27       1.0  0.7516685970418564  0.10072867012939213  0.6758708827053894  1.0000
  C   C28       1.0  0.7483323066938112  0.10072972448817552  0.3241292720207838  1.0000
  C   C29       1.0  0.25166935275512964  0.600729021765176  0.8241285260374624  1.0000
  C   C30       1.0  0.24833220591269609  0.6007290248865758  0.1758723342486093  1.0000
  C   C31       1.0  0.24833246321419705  0.8992702199763587  0.324128891922868  1.0000
  C   C32       1.0  0.2516687535626686  0.8992706112648678  0.6758718755618176  1.0000
  C   C33       1.0  0.8601644001109745  0.4145562653872334  0.2494868950530318  1.0000
  C   C34       1.0  0.6398349781602234  0.4145581533945872  0.7505118243180604  1.0000
  C   C35       1.0  0.6398381774623586  0.0854424361576562  0.7494893336360704  1.0000
  C   C36       1.0  0.8601589938545541  0.0854434417032337  0.2505101042171063  1.0000
  C   C37       1.0  0.1398366601470116  0.5854433475406396  0.7505121930994889  1.0000
  C   C38       1.0  0.36016485309834667  0.5854429051807133  0.24948932326574888  1.0000
  C   C39       1.0  0.3601616537949325  0.9145571767711119  0.2505111274698422  1.0000
  C   C40       1.0  0.13983837940777727  0.9145576168692958  0.7494896704147749  1.0000
  C   C41       1.0  0.9104023048402821  0.5079515356472443  0.2697249803414863  1.0000
  C   C42       1.0  0.5895985799519889  0.5079533274919399  0.7302732382768866  1.0000
  C   C43       1.0  0.5896041656148154  0.9920466508341479  0.7697296404071494  1.0000
  C   C44       1.0  0.9103956996506638  0.9920483856993915  0.230272286781684  1.0000
  C   C45       1.0  0.08959752641959537  0.492048077279243  0.7302734213350632  1.0000
  C   C46       1.0  0.410401251306581  0.49204773108336064  0.2697279093069298  1.0000
  C   C47       1.0  0.41039689463865153  0.0079522392738838  0.2302721936504781  1.0000
  C   C48       1.0  0.08960413160811949  0.007953395699551901  0.7697295472793045  1.0000
  C   C49       1.0  0.019835169955264596  0.5337205263940633  0.3483179902336175  1.0000
  C   C50       1.0  0.4801649606040569  0.5337210975706485  0.6516799908956727  1.0000
  C   C51       1.0  0.48016904322826537  0.9662773232901287  0.8483216018877258  1.0000
  C   C52       1.0  0.019831143659786197  0.9662792078124698  0.1516806718010812  1.0000
  C   C53       1.0  0.9801646613056858  0.46627980935531366  0.6516804114436497  1.0000
  C   C54       1.0  0.5198348706532342  0.4662785153581197  0.348320470210247  1.0000
  C   C55       1.0  0.5198307880262191  0.03372156681727741  0.151680232170385  1.0000
  C   C56       1.0  0.9801686875998568  0.033722573585713206  0.8483204757834456  1.0000
  N   N1        1.0  0.8608676773112477  0.5861290891578506  0.22173007633296038  1.0000
  N   N2        1.0  0.639133439784679  0.5861317607558763  0.7782682977489017  1.0000
  N   N3        1.0  0.6391376847380882  0.9138697138275874  0.7217331685798101  1.0000
  N   N4        1.0  0.8608631772257237  0.9138707815770531  0.2782679166700248  1.0000
  N   N5        1.0  0.13913215394840955  0.4138698009449939  0.7782676388664101  1.0000
  N   N6        1.0  0.3608688494746559  0.4138700206420438  0.22173147688173603  1.0000
  N   N7        1.0  0.3608633755173115  0.08612989910257342  0.2782679790020808  1.0000
  N   N8        1.0  0.13913788303182875  0.08613027699887252  0.7217332309133013  1.0000
  O   O1        1.0  0.7723813229403402  0.7427126223346792  0.13361071690518864  1.0000
  O   O2        1.0  0.7276178014443102  0.7427163023659421  0.8663865956052206  1.0000
  O   O3        1.0  0.7276181155242581  0.7572859854447673  0.6336099950023382  1.0000
  O   O4        1.0  0.7723798231600795  0.7572864351659095  0.3663880329621634  1.0000
  O   O5        1.0  0.22761973731443416  0.2572848221245395  0.8663883712451721  1.0000
  O   O6        1.0  0.2723820298196458  0.2572854790284397  0.1336111195970275  1.0000
  O   O7        1.0  0.2723817157338927  0.24271362748324782  0.36638977962712727  1.0000
  O   O8        1.0  0.22761755010182574  0.24271317775932036  0.6336103687153667  1.0000
  O   O9        1.0  0.5829925635366918  0.6618025314442094  0.0508614667902734  1.0000
  O   O10       1.0  0.9170026334282607  0.6618080339392807  0.9491384307327451  1.0000
  O   O11       1.0  0.9170083118397299  0.8381966158565463  0.5508614416037715  1.0000
  O   O12       1.0  0.5829935542623516  0.8381963325444703  0.4491381202090139  1.0000
  O   O13       1.0  0.41700726772210567  0.33819635865939557  0.9491369348855584  1.0000
  O   O14       1.0  0.08299473983857547  0.3381966387484284  0.0508620303791858  1.0000
  O   O15       1.0  0.08299151941842099  0.16180299707146167  0.4491383330256866  1.0000
  O   O16       1.0  0.4170087349907518  0.1618018347397837  0.5508623408944899  1.0000
  O   O17       1.0  0.6838005510163684  0.3137916745619266  0.159896195652891  1.0000
  O   O18       1.0  0.8161997568346492  0.3137946640574187  0.8401036962928856  1.0000
  O   O19       1.0  0.8161997936645873  0.18620682852084508  0.6598959484142668  1.0000
  O   O20       1.0  0.6838001350688072  0.18620785232880624  0.3401036898163952  1.0000
  O   O21       1.0  0.31620050923969245  0.6862072155438245  0.8401035789753665  1.0000
  O   O22       1.0  0.18379884542493838  0.6862063945172495  0.15989745129141397  1.0000
  O   O23       1.0  0.18380249559045578  0.8137920615855309  0.3401038262135003  1.0000
  O   O24       1.0  0.3161972381924513  0.8137924834208335  0.6598960848147684  1.0000
  O   O25       1.0  0.08063727498974059  0.4690417006224693  0.4004667722193034  1.0000
  O   O26       1.0  0.41936143437626316  0.46904137133224577  0.5995324532432277  1.0000
  O   O27       1.0  0.4193640924327438  0.03095682447602851  0.9004695665694625  1.0000
  O   O28       1.0  0.08063577317309266  0.030957209963560214  0.0995308471536731  1.0000
  O   O29       1.0  0.9193613272722272  0.5309586351262824  0.5995316294584541  1.0000
  O   O30       1.0  0.580637167877306  0.5309567959524062  0.40047006729110995  1.0000
  O   O31       1.0  0.5806332808257153  0.9690427884522494  0.0995315810138919  1.0000
  O   O32       1.0  0.9193640580872041  0.9690438486102195  0.9004689274772204  1.0000
  O   O33       1.0  0.04851275166043219  0.6239743878696657  0.3599696334587321  1.0000
  O   O34       1.0  0.4514851890858651  0.6239749039343182  0.6400299001017588  1.0000
  O   O35       1.0  0.451484058258444  0.8760242104407043  0.8599703425459353  1.0000
  O   O36       1.0  0.04851340245057399  0.8760260984643652  0.1400290057621589  1.0000
  O   O37       1.0  0.9514846216016861  0.3760259478792136  0.6400294546959701  1.0000
  O   O38       1.0  0.5485109551736115  0.3760247089933274  0.3599712474820791  1.0000
  O   O39       1.0  0.548514543999644  0.12397467966379593  0.1400294320833027  1.0000
  O   O40       1.0  0.9514851998126728  0.1239756829309115  0.8599700823934953  1.0000
  O   O41       1.0  0.25000163406186715  0.7716002088376687  0.9999998458412733  1.0000
  O   O42       1.0  0.2500009690200996  0.7283994224867744  0.4999991841317666  1.0000
  O   O43       1.0  0.7500018569091152  0.22839906602779794  0.9999997933445925  1.0000
  O   O44       1.0  0.750001320237949  0.2716009132646137  0.4999999040209815  1.0000
