data_image0
_chemical_formula_structural       Zn2H8C8O8
_chemical_formula_sum              "Zn2 H8 C8 O8"
_cell_length_a       4.879489847788005
_cell_length_b       4.879490861636165
_cell_length_c       11.22876800325586
_cell_angle_alpha    83.42101107135832
_cell_angle_beta     83.42116187350318
_cell_angle_gamma    89.0656193284188

_space_group_name_H-M_alt    "P 1"
_space_group_IT_number       1

loop_
  _space_group_symop_operation_xyz
  'x, y, z'

loop_
  _atom_site_type_symbol
  _atom_site_label
  _atom_site_symmetry_multiplicity
  _atom_site_fract_x
  _atom_site_fract_y
  _atom_site_fract_z
  _atom_site_occupancy
  Zn  Zn1       1.0  0.5142642225359141  0.48573611709511516  0.2499999114286808  1.0000
  Zn  Zn2       1.0  0.4857367432518416  0.5142643618305203  0.7500004249534058  1.0000
  H   H1        1.0  0.02921680393156831  0.7581924381264714  0.09985774390973029  1.0000
  H   H2        1.0  0.7581942857834819  0.029218642733290806  0.5998585481312445  1.0000
  H   H3        1.0  0.9707821194977841  0.2418039119742589  0.900142008456818  1.0000
  H   H4        1.0  0.24180460700259232  0.9707838957919682  0.4001417889154054  1.0000
  H   H5        1.0  0.7992324643691547  0.7617706282422533  0.9922860978076002  1.0000
  H   H6        1.0  0.7617721188700771  0.7992347256725836  0.4922862124869525  1.0000
  H   H7        1.0  0.20076438552465703  0.23822778092149832  0.007714545846397401  1.0000
  H   H8        1.0  0.2382288574880108  0.20076369080260295  0.5077133352531858  1.0000
  C   C1        1.0  0.9078636871242554  0.898495972876063  0.04235748378617638  1.0000
  C   C2        1.0  0.8984996275550828  0.9078635625121408  0.5423578710026787  1.0000
  C   C3        1.0  0.09213729980416471  0.1015003811486821  0.9576412753119996  1.0000
  C   C4        1.0  0.10150340173174752  0.09213692033750931  0.4576414721110353  1.0000
  C   C5        1.0  0.6960954033355263  0.03382682685267471  0.1254901321538355  1.0000
  C   C6        1.0  0.0338271300444077  0.6960965154455182  0.6254911393705953  1.0000
  C   C7        1.0  0.3039035100573458  0.9661715862350916  0.8745095182317822  1.0000
  C   C8        1.0  0.9661717833484714  0.30390189764224834  0.3745085110150299  1.0000
  O   O1        1.0  0.6777016358761828  0.29653129019596486  0.11193612890631495  1.0000
  O   O2        1.0  0.2965329721813106  0.6777038295871238  0.6119353944816907  1.0000
  O   O3        1.0  0.3223014018455502  0.7034671280568646  0.8880659880569864  1.0000
  O   O4        1.0  0.7034679936064452  0.3222966493385116  0.388064941900403  1.0000
  O   O5        1.0  0.5413450992233989  0.8885614107076026  0.20803553785404458  1.0000
  O   O6        1.0  0.8885610387327318  0.5413487746304783  0.70803525090232  1.0000
  O   O7        1.0  0.4586538035991552  0.11143906483060566  0.7919649011735357  1.0000
  O   O8        1.0  0.1114399175524099  0.45865376781878825  0.2919640928759577  1.0000
