data_image0
_chemical_formula_structural       Zn4H34C44Br2N16Cl4
_chemical_formula_sum              "Zn4 H34 C44 Br2 N16 Cl4"
_cell_length_a       15.39422294088646
_cell_length_b       15.215854786074685
_cell_length_c       14.865742945655569
_cell_angle_alpha    115.14145631369391
_cell_angle_beta     101.8157606833456
_cell_angle_gamma    112.58891309330473

_space_group_name_H-M_alt    "P 1"
_space_group_IT_number       1

loop_
  _space_group_symop_operation_xyz
  'x, y, z'

loop_
  _atom_site_type_symbol
  _atom_site_label
  _atom_site_symmetry_multiplicity
  _atom_site_fract_x
  _atom_site_fract_y
  _atom_site_fract_z
  _atom_site_occupancy
  Zn  Zn1       1.0  0.3639043903965699  0.865749209868184  0.9966394394300121  1.0000
  Zn  Zn2       1.0  0.6269442916707035  0.1421276580538443  0.994954887339048  1.0000
  Zn  Zn3       1.0  0.4981701474210781  0.14443582361149504  0.14742864016084659  1.0000
  Zn  Zn4       1.0  0.5009391392390157  0.8611067765056287  0.8514953448795023  1.0000
  H   H1        1.0  0.16097521375773752  0.8082149222471743  0.812751718523927  1.0000
  H   H2        1.0  0.9780609283910168  0.34722930417910186  0.2961148498196591  1.0000
  H   H3        1.0  0.4785105646905308  0.17902694009629969  0.8439634592919701  1.0000
  H   H4        1.0  0.9996177371994721  0.2554272152084139  0.32735443013384474  1.0000
  H   H5        1.0  0.08492531348674247  0.32253685209948907  0.5590776744972458  1.0000
  H   H6        1.0  0.9086321053689164  0.18461662497001183  0.4287735119506307  1.0000
  H   H7        1.0  0.9848488198060399  0.5196907043572667  0.6368784600153886  1.0000
  H   H8        1.0  0.04024327413191028  0.5907217098835389  0.5767990242361377  1.0000
  H   H9        1.0  0.8339756899346187  0.39801341600285406  0.4731349420545143  1.0000
  H   H10       1.0  0.034740358274227535  0.37855285859064475  0.6500677807098469  1.0000
  H   H11       1.0  0.8636673263002808  0.26423544354624795  0.5080347923676242  1.0000
  H   H12       1.0  0.8300368615076439  0.1750456203741706  0.14272542443283945  1.0000
  H   H13       1.0  0.21932649025317377  0.8291850408534459  0.3218355072613264  1.0000
  H   H14       1.0  0.539182121026265  0.4076020361245511  0.24557140407768688  1.0000
  H   H15       1.0  0.4038242182310938  0.0792516185157196  0.48374404372255236  1.0000
  H   H16       1.0  0.24754704742534275  0.8188656849684007  0.48204119749714636  1.0000
  H   H17       1.0  0.37123427554724503  0.08237050231107186  0.6226888394576804  1.0000
  H   H18       1.0  0.5494841986967601  0.5776123331760772  0.25014599157903905  1.0000
  H   H19       1.0  0.6783777278366969  0.5793828983981726  0.11692075222340745  1.0000
  H   H20       1.0  0.5367341152253432  0.7236709347190312  0.2357476946105449  1.0000
  H   H21       1.0  0.6400916086143696  0.6830821257365616  0.07804542199015434  1.0000
  H   H22       1.0  0.9396939744117462  0.05078069396463984  0.8274465399872779  1.0000
  H   H23       1.0  0.4666709726826995  0.18609475835689437  0.37807550034796816  1.0000
  H   H24       1.0  0.11981333412399663  0.07302550564192248  0.050604506796510386  1.0000
  H   H25       1.0  0.3065184889360142  0.6052790223806853  0.6080823815289377  1.0000
  H   H26       1.0  0.028464310103615244  0.9150554374265951  0.7973770472253959  1.0000
  H   H27       1.0  0.3268056355618755  0.8092687631816062  0.6412913883672997  1.0000
  H   H28       1.0  0.4901434045655436  0.8510315670321873  0.1834390168739829  1.0000
  H   H29       1.0  0.6914326857763982  0.8340528410434301  0.7973031172794618  1.0000
  H   H30       1.0  0.8383157413379224  0.199261967754708  0.9503887191902292  1.0000
  H   H31       1.0  0.26485279331353684  0.8164308489113878  0.16128756877560582  1.0000
  H   H32       1.0  0.674939819367232  0.2058250252931372  0.3567692527362708  1.0000
  H   H33       1.0  0.1605560003600531  0.4201654367091762  0.4688484567173674  1.0000
  H   H34       1.0  0.12123081266952346  0.5115022168944421  0.45699113054393337  1.0000
  C   C1        1.0  0.2129674477313159  0.8993847709857403  0.8760233314449478  1.0000
  C   C2        1.0  0.31675801466841597  0.9077634806364756  0.20010444938009894  1.0000
  C   C3        1.0  0.5871694998029753  0.797667109091485  0.004435694335668968  1.0000
  C   C4        1.0  0.44956476091747544  0.0889307562491338  0.8095784422665202  1.0000
  C   C5        1.0  0.6976653816058658  0.1890715479115243  0.2895430810502828  1.0000
  C   C6        1.0  0.574793047812193  0.7860668300381873  0.09121976280813017  1.0000
  C   C7        1.0  0.7971184806227927  0.21953713571801362  0.2920055478488805  1.0000
  C   C8        1.0  0.3554948910608431  6.25793946510972e-05  0.30936762134845697  1.0000
  C   C9        1.0  0.8059992496217845  0.019674249063448983  0.8708564019695683  1.0000
  C   C10       1.0  0.09713450338753664  0.4373389396897949  0.4638193850402601  1.0000
  C   C11       1.0  0.9940058448552948  0.3317997930178081  0.36162196828890086  1.0000
  C   C12       1.0  0.3777154160410491  0.9928940288454413  0.7009927647341242  1.0000
  C   C13       1.0  0.034810087933216535  0.3580905187638521  0.5697526085839044  1.0000
  C   C14       1.0  0.004305569906172439  0.5074855403596459  0.5670593140025203  1.0000
  C   C15       1.0  0.08342792890616835  0.468548229082188  0.5708992708347863  1.0000
  C   C16       1.0  0.5787100563069743  0.3890654786322969  0.19401989703853653  1.0000
  C   C17       1.0  0.9017021406409783  0.3058953819453976  0.3923320024016162  1.0000
  C   C18       1.0  0.9219139378621225  0.2709016757232875  0.4748191121353144  1.0000
  C   C19       1.0  0.9036787261812125  0.4182793102306519  0.4579493992011333  1.0000
  C   C20       1.0  0.2772648853710822  0.9092803307330115  0.4020836210329577  1.0000
  C   C21       1.0  0.34478281646246256  0.9998181195249032  0.40349846714857307  1.0000
  C   C22       1.0  0.28404484190313184  0.9050383232446465  0.49864051414270694  1.0000
  C   C23       1.0  0.6301239633262412  0.4524440564030526  0.15447920479304117  1.0000
  C   C24       1.0  0.34032845390633787  0.9962451071181845  0.6057667975543166  1.0000
  C   C25       1.0  0.5890510024818667  0.6052382000824109  0.20538470722286906  1.0000
  C   C26       1.0  0.6368238017769555  0.551868904640436  0.16039259312945806  1.0000
  C   C27       1.0  0.5768665268482779  0.6894455708735094  0.19223161456658025  1.0000
  C   C28       1.0  0.2839087495831548  0.6238422479830134  0.6753306461886694  1.0000
  C   C29       1.0  0.6020977243046063  0.7197358830332662  0.12313325111455942  1.0000
  C   C30       1.0  0.9640640501997809  0.019149978886360615  0.9503963138443721  1.0000
  C   C31       1.0  0.9058764081491902  0.029194362978685513  0.878552812116183  1.0000
  C   C32       1.0  0.06260054119002234  0.025317388139207034  0.9646961228871048  1.0000
  C   C33       1.0  0.08717735959047695  0.9727732306586035  0.8838575463615611  1.0000
  C   C34       1.0  0.185491218343529  0.5651307834431948  0.6713231880049477  1.0000
  C   C35       1.0  0.6633467775222073  0.3841386139395624  0.09182114981958003  1.0000
  C   C36       1.0  0.20599296123513985  0.6286578904260622  0.782915646474592  1.0000
  C   C37       1.0  0.372460917180476  0.9002567758278346  0.7057237548320786  1.0000
  C   C38       1.0  0.28719075932952637  0.08402845572574326  0.9969999412154777  1.0000
  C   C39       1.0  0.18931358636418594  0.9851774814177361  0.9119477503203228  1.0000
  C   C40       1.0  0.5188449879357507  0.8395645288074648  0.1208929729173248  1.0000
  C   C41       1.0  0.7767610383452422  0.1736025242806604  0.18071018211278295  1.0000
  C   C42       1.0  0.4206527354459624  0.09606347089663805  0.3105616875515337  1.0000
  C   C43       1.0  0.7111025456221115  0.9218552353622016  0.8345488621651778  1.0000
  C   C44       1.0  0.7861348950565985  0.10803583558243424  0.9119492199888766  1.0000
  Br  Br1       1.0  0.9206412850454274  0.0002454062203440947  0.057530407187023416  1.0000
  Br  Br2       1.0  0.11835230258728298  0.6087102556899494  0.8538724695214484  1.0000
  N   N1        1.0  0.3148865203065796  0.9438008628540756  0.9370893957151266  1.0000
  N   N2        1.0  0.5803908634181882  0.2927066419777091  0.15668873723117105  1.0000
  N   N3        1.0  0.355187978728118  0.7136217041538372  0.7792663153602672  1.0000
  N   N4        1.0  0.6336015039584382  0.28931195108270197  0.09258838553519393  1.0000
  N   N5        1.0  0.306162972313686  0.7169911939086118  0.8468004396964373  1.0000
  N   N6        1.0  0.43792348151089294  0.9396312652618093  0.8076335646100856  1.0000
  N   N7        1.0  0.3614949613397727  0.05880329977421889  0.010990787590017577  1.0000
  N   N8        1.0  0.4999014971766584  0.8772892560632854  0.05627779679330292  1.0000
  N   N9        1.0  0.6734161860804094  0.12261477479572847  0.11754992169256429  1.0000
  N   N10       1.0  0.4203579537191403  0.06362193808345747  0.21105559868851734  1.0000
  N   N11       1.0  0.6406910533021702  0.9497557891927642  0.8533303836121815  1.0000
  N   N12       1.0  0.6876264600763095  0.06607817168182345  0.9020913310119238  1.0000
  N   N13       1.0  0.35613282929408296  0.9462549557340055  0.1424630467867658  1.0000
  N   N14       1.0  0.5428946681484776  0.8521942280834267  0.984350734595374  1.0000
  N   N15       1.0  0.6249134325021475  0.13272570390906685  0.18496437604347454  1.0000
  N   N16       1.0  0.48534939287949924  0.05560489459785592  0.8716498002222506  1.0000
  Cl  Cl1       1.0  0.6433211417758713  0.7443126326160224  0.9261367751109545  1.0000
  Cl  Cl2       1.0  0.8882045810585952  0.4762385710947044  0.3753540000256873  1.0000
  Cl  Cl3       1.0  0.7299006190642316  0.4068408415298777  0.017091791828860902  1.0000
  Cl  Cl4       1.0  0.316444673618939  0.2214688792229964  0.0740448783330123  1.0000
