data_image0
_chemical_formula_structural       Cd2H48C44N8O16
_chemical_formula_sum              "Cd2 H48 C44 N8 O16"
_cell_length_a       9.499805803852315
_cell_length_b       10.974655349860255
_cell_length_c       12.779965541872906
_cell_angle_alpha    109.20219332301053
_cell_angle_beta     111.79960029625231
_cell_angle_gamma    90.00014924165248

_space_group_name_H-M_alt    "P 1"
_space_group_IT_number       1

loop_
  _space_group_symop_operation_xyz
  'x, y, z'

loop_
  _atom_site_type_symbol
  _atom_site_label
  _atom_site_symmetry_multiplicity
  _atom_site_fract_x
  _atom_site_fract_y
  _atom_site_fract_z
  _atom_site_occupancy
  Cd  Cd1       1.0  0.9999993237690673  1.435382806399903e-06  1.3764927118090948e-06  1.0000
  Cd  Cd2       1.0  1.370580250168459e-06  0.5000002096800599  3.2965266427810645e-07  1.0000
  H   H1        1.0  0.9070903400469631  0.4833051174756164  0.6083458289468808  1.0000
  H   H2        1.0  0.29879850008722997  0.0163582886255966  0.3915314947387998  1.0000
  H   H3        1.0  0.09291100605334884  0.516694039898283  0.39165618529091967  1.0000
  H   H4        1.0  0.701203176071786  0.9836428400642913  0.6084688321591969  1.0000
  H   H5        1.0  0.6359263387570948  0.07507016359436847  0.8909049605140069  1.0000
  H   H6        1.0  0.7450884510712612  0.4247080728550969  0.1088818324396286  1.0000
  H   H7        1.0  0.364071775988826  0.9249300075572431  0.10909332421774554  1.0000
  H   H8        1.0  0.2549099871975997  0.5752940318801335  0.8911186647472248  1.0000
  H   H9        1.0  0.6364070886789861  0.22258687392486817  0.24234994960375636  1.0000
  H   H10       1.0  0.3942045935432433  0.27739944162602365  0.7575366236062635  1.0000
  H   H11       1.0  0.3635889213939905  0.7774142701875774  0.7576488173964081  1.0000
  H   H12       1.0  0.6057975648656537  0.7225977941727064  0.2424619302380506  1.0000
  H   H13       1.0  0.924233119208651  0.15656791220221317  0.2557998943263086  1.0000
  H   H14       1.0  0.6685354594300464  0.3432355759120114  0.7439428559066954  1.0000
  H   H15       1.0  0.07576192071574181  0.8434342093330259  0.7441988869628632  1.0000
  H   H16       1.0  0.33146669636454357  0.6567616447937608  0.2560572578555805  1.0000
  H   H17       1.0  0.3677792694172056  0.16645721245952672  0.050534668380677855  1.0000
  H   H18       1.0  0.31740625365522845  0.3337223243814762  0.9494419376311497  1.0000
  H   H19       1.0  0.6322177108043618  0.8335429542301253  0.9494640843304933  1.0000
  H   H20       1.0  0.6825920228521625  0.6662788135619448  0.0505574533281532  1.0000
  H   H21       1.0  0.3792852612517237  0.11025291486973289  0.9070552946691562  1.0000
  H   H22       1.0  0.47235104709200465  0.3898400547777782  0.09288620952014527  1.0000
  H   H23       1.0  0.620711720276994  0.889747259366395  0.09294267808302709  1.0000
  H   H24       1.0  0.5276491710197178  0.6101591358665316  0.9071123729021693  1.0000
  H   H25       1.0  0.5436895965948667  0.1250438053904404  0.4342379657657959  1.0000
  H   H26       1.0  0.10953548671317749  0.3746344436390102  0.5655089237956546  1.0000
  H   H27       1.0  0.4563128840298134  0.8749553564454259  0.5657635804925931  1.0000
  H   H28       1.0  0.8904652179900979  0.6253676549271957  0.4344921973503233  1.0000
  H   H29       1.0  0.7791881345931342  0.2789397640531773  0.5609680025664615  1.0000
  H   H30       1.0  0.2183074054465095  0.22057671159346626  0.4387794929776376  1.0000
  H   H31       1.0  0.22081451040731534  0.7210603796674419  0.43903309000151586  1.0000
  H   H32       1.0  0.7816942707125064  0.7794244170964219  0.561220833920359  1.0000
  H   H33       1.0  0.5943365252357252  0.549496027383043  0.38158306023983374  1.0000
  H   H34       1.0  0.21293661623217724  0.9503299172957395  0.6185328935076482  1.0000
  H   H35       1.0  0.4056649826260568  0.4505040967826586  0.6184200602255174  1.0000
  H   H36       1.0  0.7870637649481652  0.04967024768685491  0.3814660151832356  1.0000
  H   H37       1.0  0.356613110793532  0.3926769900326477  0.2518706915550339  1.0000
  H   H38       1.0  0.10504090338394426  0.10737387132464697  0.7483019949394673  1.0000
  H   H39       1.0  0.6433893698311479  0.6073221718032115  0.748130854703355  1.0000
  H   H40       1.0  0.8949568839175868  0.8926243436039342  0.2516964172141271  1.0000
  H   H41       1.0  0.1276189424280076  0.9348746833080097  0.1927990909453499  1.0000
  H   H42       1.0  0.9348758392620055  0.5650702979478764  0.807118215635434  1.0000
  H   H43       1.0  0.8723815978994977  0.0651264333734431  0.8072024838910464  1.0000
  H   H44       1.0  0.06512357046258899  0.434930836911036  0.19288148730343116  1.0000
  H   H45       1.0  0.003577354762420265  0.8047374358560758  0.13657591835253405  1.0000
  H   H46       1.0  0.8669968219108667  0.6951445116061592  0.8634330334259133  1.0000
  H   H47       1.0  0.9964244857723655  0.19526467471857242  0.8634239548550582  1.0000
  H   H48       1.0  0.1330035579623257  0.30485564582996005  0.1365666552239517  1.0000
  C   C1        1.0  0.6769666979782655  0.10445723113123509  0.9883164951798307  1.0000
  C   C2        1.0  0.6887350219444881  0.39534435097093  0.011473176582697298  1.0000
  C   C3        1.0  0.3230302822432947  0.8955429355584171  0.011682257531340706  1.0000
  C   C4        1.0  0.3112643864729563  0.6046567763415067  0.9885273063151488  1.0000
  C   C5        1.0  0.6801095155309013  0.18177903470043327  0.17287824391924994  1.0000
  C   C6        1.0  0.5073797533331329  0.3180812405272987  0.8269683079818434  1.0000
  C   C7        1.0  0.3198855217791845  0.8182230717418548  0.8271220972878767  1.0000
  C   C8        1.0  0.49261981250410963  0.6819140527638864  0.17302896936620027  1.0000
  C   C9        1.0  0.8217004747412274  0.14933031740623187  0.1777311398969986  1.0000
  C   C10       1.0  0.6441074102006252  0.35044024382408157  0.822035966141243  1.0000
  C   C11       1.0  0.17829909674483693  0.8506717842444825  0.822269669269417  1.0000
  C   C12       1.0  0.35589458513964445  0.6495560176363638  0.17796226143450158  1.0000
  C   C13       1.0  0.4338146805102454  0.1800806196582627  0.9997080174585804  1.0000
  C   C14       1.0  0.4341884319915295  0.319991869129339  0.00023127100417499755  1.0000
  C   C15       1.0  0.5661824627799346  0.8199205213696742  0.0002910615211532665  1.0000
  C   C16       1.0  0.5658098445158615  0.680009268814082  0.999768119955128  1.0000
  C   C17       1.0  0.43298918269987036  0.24618021526553946  0.33224574120496436  1.0000
  C   C18       1.0  0.1009299666677066  0.2536867339348773  0.6677090748894727  1.0000
  C   C19       1.0  0.5670134609934223  0.7538199209086044  0.667756131321994  1.0000
  C   C20       1.0  0.8990692812954248  0.7463134341322328  0.33228952182184196  1.0000
  C   C21       1.0  0.5529685676010985  0.21794607160202156  0.4221362080798983  1.0000
  C   C22       1.0  0.1309246288119965  0.2817669364728984  0.5776728881897952  1.0000
  C   C23       1.0  0.4470327798063707  0.7820530933183458  0.5778650261989213  1.0000
  C   C24       1.0  0.8690755879925689  0.7182322466249358  0.4223264741915073  1.0000
  C   C25       1.0  0.6865765079417157  0.30509635610979297  0.4942870754396154  1.0000
  C   C26       1.0  0.19236647387484143  0.19451054252564853  0.5055161987616614  1.0000
  C   C27       1.0  0.3134248407729103  0.6949028163570573  0.5057133788802305  1.0000
  C   C28       1.0  0.8076327727811332  0.8054896179949792  0.4944831779086343  1.0000
  C   C29       1.0  0.7031631191580059  0.425149182868381  0.4792743351313645  1.0000
  C   C30       1.0  0.22400940270833297  0.0745241060986785  0.5206513139889495  1.0000
  C   C31       1.0  0.2968395232281366  0.5748509457592802  0.5207283173545676  1.0000
  C   C32       1.0  0.775992111689213  0.9254760557994004  0.47934790668150384  1.0000
  C   C33       1.0  0.5820953500609748  0.4554499303167602  0.3911924794001322  1.0000
  C   C34       1.0  0.1910558432992673  0.044331122608639376  0.6088264289329857  1.0000
  C   C35       1.0  0.4179059973464945  0.5445492346036146  0.6088087548786874  1.0000
  C   C36       1.0  0.8089432402880874  0.9556680635737107  0.3911726214687405  1.0000
  C   C37       1.0  0.44957118553087133  0.3672017806516051  0.31894724334463115  1.0000
  C   C38       1.0  0.1308275010310993  0.13270071997655458  0.6810948665662906  1.0000
  C   C39       1.0  0.5504312950938086  0.6327973811842539  0.6810543029137578  1.0000
  C   C40       1.0  0.8691715838634124  0.8672984737522709  0.3189034038764618  1.0000
  C   C41       1.0  0.2982792977090654  0.14535136936574128  0.2500337780132185  1.0000
  C   C42       1.0  0.048403967071323  0.35459511319231035  0.7498988361469401  1.0000
  C   C43       1.0  0.7017222166884806  0.8546487925323374  0.7499654426572347  1.0000
  C   C44       1.0  0.9515973829504534  0.6454040668210155  0.25010083821391765  1.0000
  N   N1        1.0  0.817885859838938  0.10130441745258877  0.06219050660852323  1.0000
  N   N2        1.0  0.7557947870334162  0.398437526443253  0.9375620045666722  1.0000
  N   N3        1.0  0.18211015023403823  0.8986967266598567  0.9378082603916481  1.0000
  N   N4        1.0  0.2442067247498301  0.6015626203618751  0.062438776021735996  1.0000
  N   N5        1.0  0.5888541655674686  0.15123914449996784  0.051759602836689615  1.0000
  N   N6        1.0  0.5372092572724156  0.3486529402924744  0.9480985008769095  1.0000
  N   N7        1.0  0.41114265158547164  0.8487600478513996  0.9482388236059052  1.0000
  N   N8        1.0  0.4627911239079268  0.6513472246901202  0.051900407813974446  1.0000
  O   O1        1.0  0.19824901731288944  0.1642217643244521  0.15832986826705306  1.0000
  O   O2        1.0  0.03983761015850719  0.3357636267542432  0.8415683487665931  1.0000
  O   O3        1.0  0.8017547635190708  0.8357783914046093  0.8416699763625316  1.0000
  O   O4        1.0  0.9601624435774454  0.6642345820053137  0.15843068734613297  1.0000
  O   O5        1.0  0.2895382688865027  0.03922664565185129  0.2703910441337598  1.0000
  O   O6        1.0  0.01946680369083957  0.4607454859983091  0.7295418906725217  1.0000
  O   O7        1.0  0.7104632442038934  0.9607735086997522  0.7296089564956747  1.0000
  O   O8        1.0  0.9805335748751958  0.5392546638913345  0.2704585779363243  1.0000
  O   O9        1.0  0.8306995637981059  0.5129665150147316  0.5455618271158116  1.0000
  O   O10       1.0  0.28527549296310184  0.9866674952881738  0.45434985367038644  1.0000
  O   O11       1.0  0.1693029155194168  0.487032639274652  0.45444049910155837  1.0000
  O   O12       1.0  0.7147273164131177  0.013333630317205797  0.5456507852071795  1.0000
  O   O13       1.0  0.021668768557951457  0.8928734454423688  0.1347202635995614  1.0000
  O   O14       1.0  0.886834345980766  0.6069432756308187  0.8651341147309921  1.0000
  O   O15       1.0  0.9783319348381666  0.10712864557735459  0.8652816375053973  1.0000
  O   O16       1.0  0.11316619696103909  0.3930578561435852  0.1348659001874424  1.0000
