data_image0
_chemical_formula_structural       Ca4P4H36C12O28
_chemical_formula_sum              "Ca4 P4 H36 C12 O28"
_cell_length_a       5.47237512508302
_cell_length_b       7.882361171423612
_cell_length_c       18.175884930519892
_cell_angle_alpha    90.00078305044168
_cell_angle_beta     89.99954123831077
_cell_angle_gamma    95.26654115394864

_space_group_name_H-M_alt    "P 1"
_space_group_IT_number       1

loop_
  _space_group_symop_operation_xyz
  'x, y, z'

loop_
  _atom_site_type_symbol
  _atom_site_label
  _atom_site_symmetry_multiplicity
  _atom_site_fract_x
  _atom_site_fract_y
  _atom_site_fract_z
  _atom_site_occupancy
  Ca  Ca1       1.0  0.8849446142713404  0.16620260359135125  0.5617448501019171  1.0000
  Ca  Ca2       1.0  0.11505894990338561  0.33380142949955166  0.06174641270517613  1.0000
  Ca  Ca3       1.0  0.11505720922740888  0.8338042433563256  0.4382533774030153  1.0000
  Ca  Ca4       1.0  0.8849530025063006  0.6661990526192128  0.9382556660252779  1.0000
  P   P1        1.0  0.642648982815743  0.14812217343065018  0.4091153792276289  1.0000
  P   P2        1.0  0.3573536320308933  0.3518756087587889  0.9091167475490425  1.0000
  P   P3        1.0  0.3573485170285339  0.8518795755982821  0.5908811977285782  1.0000
  P   P4        1.0  0.6426563257349898  0.6481235984299898  0.09088423082089753  1.0000
  H   H1        1.0  0.7597828603503132  0.12638577708763418  0.2845138123902232  1.0000
  H   H2        1.0  0.24022341741130762  0.37360066461693003  0.7845150421307924  1.0000
  H   H3        1.0  0.2402133020328066  0.8736057796981028  0.7154844150756292  1.0000
  H   H4        1.0  0.7597787288969686  0.6263947169669563  0.2154870365961302  1.0000
  H   H5        1.0  0.6082298841600817  0.3103686361868725  0.3000494157701753  1.0000
  H   H6        1.0  0.39177188318727474  0.18961444263825905  0.8000513784165054  1.0000
  H   H7        1.0  0.3917717606950503  0.6896229231823552  0.6999449604323262  1.0000
  H   H8        1.0  0.6082166348746725  0.8103745626331785  0.19995180066672455  1.0000
  H   H9        1.0  0.9905514466999252  0.46154756306930955  0.3527797178235519  1.0000
  H   H10       1.0  0.0094481278611269  0.038443449617418  0.8527794905125676  1.0000
  H   H11       1.0  0.009453685870603587  0.538442724100335  0.6472196099868059  1.0000
  H   H12       1.0  0.9905241215976234  0.9615608352616076  0.14722423881556784  1.0000
  H   H13       1.0  0.1399890254164333  0.2746693559411852  0.3501079561309767  1.0000
  H   H14       1.0  0.8600165939575747  0.22532540223752304  0.8501095590605419  1.0000
  H   H15       1.0  0.8600084629394545  0.7253183795754051  0.6498869702445875  1.0000
  H   H16       1.0  0.139974264659827  0.7746814394615454  0.14989086917569244  1.0000
  H   H17       1.0  0.3367184974623214  0.5191019982363301  0.18405161418607466  1.0000
  H   H18       1.0  0.6632840556334331  0.9809026662917615  0.6840541225891104  1.0000
  H   H19       1.0  0.6632844847975575  0.4808997534495559  0.8159460631226383  1.0000
  H   H20       1.0  0.3367082960994239  0.01910162822059649  0.31594630563768794  1.0000
  H   H21       1.0  0.35431163186212444  0.3353920631345844  0.5016691398526236  1.0000
  H   H22       1.0  0.6457026054636331  0.16461146580599012  0.0016689634977993003  1.0000
  H   H23       1.0  0.6456961756181769  0.6646186085377719  0.49832798729751476  1.0000
  H   H24       1.0  0.3543128347241193  0.8353877440315783  0.998332565045111  1.0000
  H   H25       1.0  0.2513282350380025  0.500717320934548  0.5341083451245653  1.0000
  H   H26       1.0  0.7486838850401085  0.999287993256189  0.0341099297105032  1.0000
  H   H27       1.0  0.7486792380629127  0.49929080269537707  0.4658904325569539  1.0000
  H   H28       1.0  0.25133172234674117  0.0007124905903523999  0.9658899482974096  1.0000
  H   H29       1.0  0.45281041791911053  0.35001379160776475  0.6053366452064355  1.0000
  H   H30       1.0  0.5471964768799893  0.14999663282048203  0.10533771797671683  1.0000
  H   H31       1.0  0.5471894109295619  0.6499917804180766  0.39466103211752585  1.0000
  H   H32       1.0  0.4528207907462091  0.8500025779462702  0.8946671116412336  1.0000
  H   H33       1.0  0.6235580136057381  0.3883373242105605  0.6758266581760285  1.0000
  H   H34       1.0  0.37644095704521874  0.11166881898336098  0.17582791091226116  1.0000
  H   H35       1.0  0.37643234345824783  0.6116656954044473  0.32417487040842036  1.0000
  H   H36       1.0  0.6235660029386879  0.888321469148124  0.8241769186913006  1.0000
  C   C1        1.0  0.7520693074546616  0.23541260354269158  0.3218124702683483  1.0000
  C   C2        1.0  0.24794210459165103  0.2645787696140616  0.8218130272980348  1.0000
  C   C3        1.0  0.24792735649441514  0.7645827753107779  0.6781835564902112  1.0000
  C   C4        1.0  0.7520547264625181  0.7354178833708147  0.17818960161861955  1.0000
  C   C5        1.0  0.9979102590389533  0.34183857144013524  0.3222906004826457  1.0000
  C   C6        1.0  0.002096495601598694  0.15815918341326093  0.8222900087889757  1.0000
  C   C7        1.0  0.0020862376984850874  0.6581555334206826  0.6777081771699971  1.0000
  C   C8        1.0  0.9978948645065487  0.8418514804514883  0.17771482089444396  1.0000
  C   C9        1.0  0.0861478137592329  0.38392155033172765  0.2452837412441228  1.0000
  C   C10       1.0  0.9138474128559511  0.1160841047244858  0.7452774070714486  1.0000
  C   C11       1.0  0.913855335599479  0.6160814754937288  0.754721088402228  1.0000
  C   C12       1.0  0.08615043284357427  0.8839342058755404  0.2547202702931061  1.0000
  O   O1        1.0  0.8222614254647811  0.029848750512556393  0.44183673689126846  1.0000
  O   O2        1.0  0.17773811497820452  0.47014617956014587  0.9418353948421019  1.0000
  O   O3        1.0  0.177740063654575  0.9701555483926823  0.5581631411450376  1.0000
  O   O4        1.0  0.822264198529169  0.5298504760327062  0.05816503334982312  1.0000
  O   O5        1.0  0.6204294606997749  0.29306267568404093  0.465659992735816  1.0000
  O   O6        1.0  0.3795758553404482  0.20693933410380788  0.9656604380264899  1.0000
  O   O7        1.0  0.3795658888338594  0.7069505378611181  0.5343349337187535  1.0000
  O   O8        1.0  0.6204341024191606  0.7930598730931276  0.0343410905229931  1.0000
  O   O9        1.0  0.3881999952529328  0.056042855244442094  0.3894993071088636  1.0000
  O   O10       1.0  0.6118042252183857  0.4439492496448309  0.8895006170492938  1.0000
  O   O11       1.0  0.6118006579712232  0.9439550734853408  0.610500020729795  1.0000
  O   O12       1.0  0.3881960936263767  0.5560461310425138  0.11050036132073873  1.0000
  O   O13       1.0  0.9815231632869444  0.32083014694268996  0.18986784377251106  1.0000
  O   O14       1.0  0.0184676760386679  0.17917258727307225  0.6898700897273218  1.0000
  O   O15       1.0  0.018469511380786178  0.6791626820426229  0.8101254320854925  1.0000
  O   O16       1.0  0.9815150366853446  0.8208278808521354  0.3101380410131186  1.0000
  O   O17       1.0  0.285626943866454  0.4929940528220696  0.24128182306059653  1.0000
  O   O18       1.0  0.7143647073955394  0.006997468320463399  0.7412808150722444  1.0000
  O   O19       1.0  0.7143620757865109  0.506998774484451  0.7587169545971835  1.0000
  O   O20       1.0  0.28563512142806496  0.9930081037380273  0.258719062969874  1.0000
  O   O21       1.0  0.22071241495520164  0.3737124004796967  0.5342703038012361  1.0000
  O   O22       1.0  0.7792959316172559  0.1262946412330237  0.034270677146857116  1.0000
  O   O23       1.0  0.7792897429104002  0.6262969945267327  0.4657273735313938  1.0000
  O   O24       1.0  0.2207160208049643  0.8737058408694194  0.9657303012245184  1.0000
  O   O25       1.0  0.6161192848532765  0.3371863476209639  0.6265595864232909  1.0000
  O   O26       1.0  0.38387914787159644  0.1628196068432359  0.1265583773279744  1.0000
  O   O27       1.0  0.3838699019925187  0.6628077537026937  0.37343809087902724  1.0000
  O   O28       1.0  0.6161254946527067  0.8371808717302115  0.8734420508726263  1.0000
