data_image0
_chemical_formula_structural       Zn6H102C72Br6N12O12
_chemical_formula_sum              "Zn6 H102 C72 Br6 N12 O12"
_cell_length_a       14.786978815004728
_cell_length_b       15.761807008352767
_cell_length_c       15.762470188552655
_cell_angle_alpha    119.99727773865087
_cell_angle_beta     90.00002633280447
_cell_angle_gamma    90.00006293118705

_space_group_name_H-M_alt    "P 1"
_space_group_IT_number       1

loop_
  _space_group_symop_operation_xyz
  'x, y, z'

loop_
  _atom_site_type_symbol
  _atom_site_label
  _atom_site_symmetry_multiplicity
  _atom_site_fract_x
  _atom_site_fract_y
  _atom_site_fract_z
  _atom_site_occupancy
  Zn  Zn1       1.0  0.481675529103704  0.35970393047216476  0.7534348540470148  1.0000
  Zn  Zn2       1.0  0.3151785103683197  0.753322053389333  0.393714048797044  1.0000
  Zn  Zn3       1.0  0.14859801703036618  0.39369307722534325  0.6402598392041554  1.0000
  Zn  Zn4       1.0  0.9816762859440401  0.640296654149438  0.24656452049059402  1.0000
  Zn  Zn5       1.0  0.8151789816604235  0.24667852306026108  0.6062861164268725  1.0000
  Zn  Zn6       1.0  0.6485974368537485  0.6063064901888922  0.35974084848252375  1.0000
  H   H1        1.0  0.4418018922425304  0.3855932924073358  0.5190501210784788  1.0000
  H   H2        1.0  0.27479210147963323  0.5190233229250013  0.13354795658744223  1.0000
  H   H3        1.0  0.10838477558782958  0.133502822722704  0.6144323711197542  1.0000
  H   H4        1.0  0.9417986757939117  0.6144049564936012  0.48094766625610663  1.0000
  H   H5        1.0  0.7747922985642218  0.48097682019951543  0.8664525239791202  1.0000
  H   H6        1.0  0.6083851894333278  0.8664963116548491  0.3855686321287734  1.0000
  H   H7        1.0  0.40149265803547246  0.20773795896837302  0.4498785152308428  1.0000
  H   H8        1.0  0.2345134066518071  0.44982632657445276  0.24212257497399045  1.0000
  H   H9        1.0  0.06801422923476959  0.2422890304165578  0.792196583660342  1.0000
  H   H10       1.0  0.9014923890820083  0.7922607592573954  0.5501212226180242  1.0000
  H   H11       1.0  0.7345129554796086  0.5501751167471127  0.757877756630819  1.0000
  H   H12       1.0  0.5680137522529948  0.7577114040054271  0.2078042705104367  1.0000
  H   H13       1.0  0.46061767378048296  0.2077970506505764  0.547928742811365  1.0000
  H   H14       1.0  0.2934768512103788  0.5479294142072179  0.34024121606955754  1.0000
  H   H15       1.0  0.12715212752487298  0.3402668862140744  0.7921167982942023  1.0000
  H   H16       1.0  0.9606173567777532  0.7922031327180791  0.4520709714459058  1.0000
  H   H17       1.0  0.7934769132535776  0.45207176064590016  0.6597595561802477  1.0000
  H   H18       1.0  0.627152211958297  0.6597330119242671  0.20788349606605283  1.0000
  H   H19       1.0  0.6050095854425095  0.24894965524066487  0.48767739855234987  1.0000
  H   H20       1.0  0.43804858157332655  0.48786492621736954  0.23932468402188087  1.0000
  H   H21       1.0  0.2715946808224459  0.2390885379118117  0.7514346490262512  1.0000
  H   H22       1.0  0.10500849325497798  0.7510473021869261  0.5123206965727433  1.0000
  H   H23       1.0  0.9380480871636718  0.5121354878058781  0.76067600244631  1.0000
  H   H24       1.0  0.771594903812023  0.7609128687360142  0.24856709630105203  1.0000
  H   H25       1.0  0.5706106276842959  0.5278582485686911  0.742578914794251  1.0000
  H   H26       1.0  0.40358123790101535  0.7425968424308921  0.21466531891595517  1.0000
  H   H27       1.0  0.237461188888723  0.2146854904582441  0.4721279818811368  1.0000
  H   H28       1.0  0.0706117887824789  0.4721411894387728  0.2574216745343989  1.0000
  H   H29       1.0  0.9035811331162618  0.25740287998490174  0.7853346896849517  1.0000
  H   H30       1.0  0.7374615771714305  0.7853135899972514  0.5278721834853286  1.0000
  H   H31       1.0  0.4560943321615838  0.5356071336054882  0.7140964765074783  1.0000
  H   H32       1.0  0.28905748020140004  0.7139893562534497  0.17848745967369692  1.0000
  H   H33       1.0  0.12291782180002288  0.17847154221781383  0.46423288860191286  1.0000
  H   H34       1.0  0.9560955782486644  0.46439157701967565  0.2859046971614561  1.0000
  H   H35       1.0  0.789056750397421  0.2860121775754863  0.8215129407229256  1.0000
  H   H36       1.0  0.6229182564132216  0.82152871520438  0.535767034139269  1.0000
  H   H37       1.0  0.6275657856641247  0.08089632011251509  0.35275376512259266  1.0000
  H   H38       1.0  0.46044591850161953  0.3526960935934653  0.2721010309160691  1.0000
  H   H39       1.0  0.29372975646881366  0.27213826027046645  0.9195137530241055  1.0000
  H   H40       1.0  0.1275669853814421  0.9191007729505927  0.6472429914977623  1.0000
  H   H41       1.0  0.9604462428293488  0.6473040894907172  0.727898683124991  1.0000
  H   H42       1.0  0.7937298584524797  0.7278621823828433  0.08048775210249198  1.0000
  H   H43       1.0  0.5088768873367898  0.058801297046407755  0.3434729133278934  1.0000
  H   H44       1.0  0.3417367448483261  0.3433077575352712  0.28466029728573966  1.0000
  H   H45       1.0  0.17497799290369895  0.2847371868850744  0.9412622541719458  1.0000
  H   H46       1.0  0.008876764965592098  0.9411975023128178  0.6565255967890663  1.0000
  H   H47       1.0  0.8417370740398198  0.6566928629835617  0.7153399014338219  1.0000
  H   H48       1.0  0.6749787457410931  0.7152630587182858  0.05873910118316431  1.0000
  H   H49       1.0  0.5680418183759528  0.0810605574615479  0.4509575092125075  1.0000
  H   H50       1.0  0.4007968985031595  0.4507723705501903  0.3701181627009404  1.0000
  H   H51       1.0  0.23418080042832656  0.37012270821102766  0.9192508454393503  1.0000
  H   H52       1.0  0.06804161730292438  0.918936168724713  0.5490381716586655  1.0000
  H   H53       1.0  0.9007963835864459  0.5492279816595342  0.6298824767847293  1.0000
  H   H54       1.0  0.7341814639095715  0.6298780019400567  0.08075021830446626  1.0000
  H   H55       1.0  0.6087114333962659  0.22106524552265236  0.3188068624875058  1.0000
  H   H56       1.0  0.44214800090643536  0.3192011835655394  0.09812710038921321  1.0000
  H   H57       1.0  0.27523902747818607  0.09798879335311012  0.7791095326539547  1.0000
  H   H58       1.0  0.10871316162828039  0.7789340858080961  0.681191407264876  1.0000
  H   H59       1.0  0.9421477733764971  0.6808002379844991  0.9018738593671924  1.0000
  H   H60       1.0  0.7752387261150985  0.902012351236813  0.220891216593749  1.0000
  H   H61       1.0  0.5362159705122949  0.3206101649567543  0.39152564928517103  1.0000
  H   H62       1.0  0.3696261233438847  0.3918703277319011  0.0712661237310357  1.0000
  H   H63       1.0  0.2028056652468351  0.07117416125026185  0.6795154694883222  1.0000
  H   H64       1.0  0.03621687015711931  0.6793885815633304  0.6084742622674568  1.0000
  H   H65       1.0  0.8696265000132042  0.6081309734796108  0.9287347445598256  1.0000
  H   H66       1.0  0.702805444064225  0.9288268631475776  0.3204851884051438  1.0000
  H   H67       1.0  0.48917652341282997  0.20445461393326525  0.3084243690022035  1.0000
  H   H68       1.0  0.32261986105356033  0.30848232967671413  0.10396777238992871  1.0000
  H   H69       1.0  0.15568925946968187  0.1041444256244119  0.7956244070915801  1.0000
  H   H70       1.0  0.989177680071947  0.7955445178964383  0.6915764801116423  1.0000
  H   H71       1.0  0.8226196432343045  0.6915182591201017  0.8960324022187222  1.0000
  H   H72       1.0  0.6556882665351578  0.8958555198660677  0.20437592325954768  1.0000
  H   H73       1.0  0.43664278936510204  0.6235611059847772  0.6273602776356739  1.0000
  H   H74       1.0  0.26958214405667746  0.6273506704346588  0.003852425497527225  1.0000
  H   H75       1.0  0.1032267249841254  0.0038435037216685308  0.3764950089115472  1.0000
  H   H76       1.0  0.9366460035686685  0.37643767057017635  0.3726395045473793  1.0000
  H   H77       1.0  0.7695816013073793  0.3726508310780758  0.9961479503365566  1.0000
  H   H78       1.0  0.603227407307834  0.9961541833685034  0.6235023514082911  1.0000
  H   H79       1.0  0.6723683004891824  0.43664252740710197  0.5609509059139768  1.0000
  H   H80       1.0  0.505508623979395  0.5610544200975484  0.12416840952511882  1.0000
  H   H81       1.0  0.33928723202446776  0.12406143628639649  0.5628891912100613  1.0000
  H   H82       1.0  0.1723683048925082  0.5633603497281285  0.4390516167815193  1.0000
  H   H83       1.0  0.005508696228837101  0.4389472776403025  0.8758322676516741  1.0000
  H   H84       1.0  0.839289710976473  0.8759384475501264  0.43711173697928263  1.0000
  H   H85       1.0  0.7160350961772722  0.4852145774931671  0.43978976857623303  1.0000
  H   H86       1.0  0.5490342123298361  0.4398425074367864  0.9543938589119847  1.0000
  H   H87       1.0  0.38266708878170863  0.9542755919120934  0.5144951575761566  1.0000
  H   H88       1.0  0.21603645545329184  0.5147873713773805  0.5602125410756926  1.0000
  H   H89       1.0  0.049035372988541284  0.5601572610776487  0.04560633692519646  1.0000
  H   H90       1.0  0.8826672653199593  0.04572419400511044  0.48550345769314157  1.0000
  H   H91       1.0  0.48781009386274116  0.6595612348158396  0.49897612462353885  1.0000
  H   H92       1.0  0.3206880474440013  0.49904391398950304  0.8394326654155008  1.0000
  H   H93       1.0  0.15419975493418286  0.8393898362862233  0.34051410390036113  1.0000
  H   H94       1.0  0.9878126524047558  0.34043762664293103  0.501023722092242  1.0000
  H   H95       1.0  0.8206879225335159  0.5009570379115829  0.16056714047786608  1.0000
  H   H96       1.0  0.6541994750592437  0.16060866800464177  0.6594825881491958  1.0000
  H   H97       1.0  0.5733291063970397  0.3598619622171879  0.6164490622558886  1.0000
  H   H98       1.0  0.40652362769746725  0.6162782031185758  0.2563370348340682  1.0000
  H   H99       1.0  0.2400588100869925  0.25645072601027147  0.640044973901837  1.0000
  H   H100      1.0  0.07332782113591918  0.6401385792283919  0.38355043166311725  1.0000
  H   H101      1.0  0.9065243269199853  0.38372252490454156  0.7436632455961245  1.0000
  H   H102      1.0  0.7400590672230719  0.7435480906507621  0.3599541940651392  1.0000
  C   C1        1.0  0.4426898260621711  0.35040537233503954  0.564284908967629  1.0000
  C   C2        1.0  0.2757767977862642  0.5642923423998029  0.2139633527743143  1.0000
  C   C3        1.0  0.10934445940312537  0.21391746146341006  0.6495487022733641  1.0000
  C   C4        1.0  0.9426900100956743  0.6495945131807801  0.43571378200345384  1.0000
  C   C5        1.0  0.7757762261648652  0.43570916939199117  0.7860370308725634  1.0000
  C   C6        1.0  0.6093440854960761  0.7860830415398966  0.35045220402392363  1.0000
  C   C7        1.0  0.45957284270121324  0.23996263993850422  0.49986071408962823  1.0000
  C   C8        1.0  0.2925848023894416  0.4998634511714783  0.2600076183802286  1.0000
  C   C9        1.0  0.12613563781651746  0.2600330133472468  0.7600119108219232  1.0000
  C   C10       1.0  0.9595711589592212  0.7600358083515815  0.5001394632890381  1.0000
  C   C11       1.0  0.7925842837875265  0.5001353544427688  0.7399929827874772  1.0000
  C   C12       1.0  0.6261365083176285  0.7399668831050334  0.23998838225680433  1.0000
  C   C13       1.0  0.5469875574611224  0.21175475313773967  0.4390084426045817  1.0000
  C   C14       1.0  0.38005225410967103  0.4390825067257469  0.22754764231433458  1.0000
  C   C15       1.0  0.21348342108225177  0.22749094453763516  0.7884329790975073  1.0000
  C   C16       1.0  0.04698720897715699  0.7882424743214856  0.5609892130636354  1.0000
  C   C17       1.0  0.8800524989392075  0.5609188117862373  0.7724532391260723  1.0000
  C   C18       1.0  0.7134836395654175  0.7725087305447219  0.21156779042433274  1.0000
  C   C19       1.0  0.3505364737024337  0.36734870139583353  0.6151490908748087  1.0000
  C   C20       1.0  0.1836992036158378  0.6153421145729255  0.2479778001440067  1.0000
  C   C21       1.0  0.017229647919208394  0.24796340748798662  0.632650211947336  1.0000
  C   C22       1.0  0.8505352604355708  0.6326522283386283  0.384847018078716  1.0000
  C   C23       1.0  0.6836999080257086  0.3846572429827403  0.7520219311381594  1.0000
  C   C24       1.0  0.517229918627109  0.7520355756313748  0.36735067633458135  1.0000
  C   C25       1.0  0.5214754757656122  0.5010419919126718  0.6823256118261014  1.0000
  C   C26       1.0  0.35450423219263877  0.6822939166258523  0.18125264969570754  1.0000
  C   C27       1.0  0.18826789507169647  0.1812127659099332  0.4988543684254694  1.0000
  C   C28       1.0  0.0214760215241583  0.4989573645619743  0.3176749155320095  1.0000
  C   C29       1.0  0.8545028619332199  0.3177083602159454  0.8187484676398356  1.0000
  C   C30       1.0  0.6882689857983594  0.8187862329173543  0.5011457348979605  1.0000
  C   C31       1.0  0.5638266215161779  0.10175843762040421  0.3939875828543649  1.0000
  C   C32       1.0  0.39669458829466453  0.3939052910045575  0.29242107880042306  1.0000
  C   C33       1.0  0.23004264959982376  0.29243719355973485  0.8984932443155527  1.0000
  C   C34       1.0  0.0638271003209709  0.8982385496766554  0.606009093376535  1.0000
  C   C35       1.0  0.8966941780838127  0.6060944199836342  0.7075789211147168  1.0000
  C   C36       1.0  0.730042738066949  0.7075645104484566  0.10150808232657482  1.0000
  C   C37       1.0  0.5450473349937185  0.24131736466280534  0.3602826875877554  1.0000
  C   C38       1.0  0.37840343365186874  0.36050721730121893  0.11921941914980756  1.0000
  C   C39       1.0  0.21159046874740986  0.1191927403296233  0.7588233215000599  1.0000
  C   C40       1.0  0.04504834291049779  0.7586821291311738  0.6397165025454258  1.0000
  C   C41       1.0  0.8784038236333346  0.6394940984749196  0.8807814602111675  1.0000
  C   C42       1.0  0.7115901524462773  0.8808079323354294  0.2411777137518032  1.0000
  C   C43       1.0  0.5508722828326641  0.5281366997890943  0.6072614993933172  1.0000
  C   C44       1.0  0.38389623885654334  0.6072752400998667  0.07906400494946549  1.0000
  C   C45       1.0  0.21760039234521136  0.07902044684045245  0.4717073063529753  1.0000
  C   C46       1.0  0.05087350982297781  0.47186434060431276  0.3927399675554851  1.0000
  C   C47       1.0  0.8838956828441694  0.39272645109970455  0.9209365150596438  1.0000
  C   C48       1.0  0.717602292462864  0.9209786988653619  0.528291467011165  1.0000
  C   C49       1.0  0.4996366971762569  0.591396347765219  0.5884288491909402  1.0000
  C   C50       1.0  0.33258847331256897  0.588437338782242  0.9970244321429503  1.0000
  C   C51       1.0  0.1662354530272836  0.9969979123215468  0.4085805658873338  1.0000
  C   C52       1.0  0.9996386156078855  0.408602899627219  0.411570646161465  1.0000
  C   C53       1.0  0.8325881664571567  0.4115636328656437  0.0029753887593386833  1.0000
  C   C54       1.0  0.6662363075666989  0.003001514460841338  0.5914177764148435  1.0000
  C   C55       1.0  0.6297896512768018  0.48830457471215993  0.5521657391590225  1.0000
  C   C56       1.0  0.4628555368953045  0.5522256224492708  0.06375902402071185  1.0000
  C   C57       1.0  0.2965800152289829  0.06366138627213758  0.5113872742112804  1.0000
  C   C58       1.0  0.12978959939583484  0.5116963285268454  0.4478348266454192  1.0000
  C   C59       1.0  0.962855052925974  0.44777519904710056  0.9362413274555691  1.0000
  C   C60       1.0  0.7965819139406277  0.9363381585930597  0.4886125994389871  1.0000
  C   C61       1.0  0.6545296589830301  0.5137232215310803  0.4829162275057612  1.0000
  C   C62       1.0  0.48755515131573185  0.48298910233648945  0.969080784555338  1.0000
  C   C63       1.0  0.3211825903764876  0.9689870434688361  0.4860492841248885  1.0000
  C   C64       1.0  0.15453163999509908  0.4862789915908153  0.5170856382958746  1.0000
  C   C65       1.0  0.9875556580596123  0.517012126455704  0.03091923179427873  1.0000
  C   C66       1.0  0.8211834398532145  0.031011639700551416  0.5139489854816758  1.0000
  C   C67       1.0  0.5281083635532156  0.6128209039565815  0.5170614913308353  1.0000
  C   C68       1.0  0.36106075633006174  0.517111594040557  0.9042075634776835  1.0000
  C   C69       1.0  0.19461035793414536  0.9041692338065987  0.38717647979537173  1.0000
  C   C70       1.0  0.02811088791840889  0.3871794642501811  0.4829393125118244  1.0000
  C   C71       1.0  0.8610605785354724  0.4828900592673194  0.09579292773113218  1.0000
  C   C72       1.0  0.6946106555324646  0.09582997195445132  0.6128208976178229  1.0000
  Br  Br1       1.0  0.47779160765073664  0.19948508699043543  0.7326645983223373  1.0000
  Br  Br2       1.0  0.31087745038105646  0.7318793602452021  0.5327395887639028  1.0000
  Br  Br3       1.0  0.1447575966856363  0.5326842387016699  0.8007541424213613  1.0000
  Br  Br4       1.0  0.9777945913472122  0.8005145886690599  0.2673331362459379  1.0000
  Br  Br5       1.0  0.8108792313288404  0.2681231123119118  0.46726247422630957  1.0000
  Br  Br6       1.0  0.64476083260395  0.46730892517774697  0.19925039953533027  1.0000
  N   N1        1.0  0.5120779459800602  0.3941933080566642  0.6415643547310097  1.0000
  N   N2        1.0  0.3452535180034814  0.6414887109381199  0.24732298414620152  1.0000
  N   N3        1.0  0.17882586892322647  0.24727919975862975  0.6057023237113127  1.0000
  N   N4        1.0  0.012077284439420998  0.605805496613776  0.35843415942284207  1.0000
  N   N5        1.0  0.845253515803087  0.35851191541598126  0.7526772190085679  1.0000
  N   N6        1.0  0.6788254773496616  0.7527201497095745  0.3942974014238273  1.0000
  N   N7        1.0  0.6047013918987788  0.5751988446687976  0.4655705646493402  1.0000
  N   N8        1.0  0.437672045060161  0.46564201911141356  0.8903001744146052  1.0000
  N   N9        1.0  0.27122303379553614  0.890226184540879  0.4247135539727013  1.0000
  N   N10       1.0  0.10470330930797189  0.4248012843222  0.5344307020723633  1.0000
  N   N11       1.0  0.9376712581553691  0.5343581261820703  0.10969951090292085  1.0000
  N   N12       1.0  0.7712226531053117  0.10977341645140364  0.5752849207409554  1.0000
  O   O1        1.0  0.3470915645275028  0.3587606394583317  0.6912876228848147  1.0000
  O   O2        1.0  0.18036728336063848  0.6913369137527496  0.3328031678263769  1.0000
  O   O3        1.0  0.013884188793319699  0.33275827587888773  0.6413864172398717  1.0000
  O   O4        1.0  0.8470923528870883  0.6412424559095838  0.30871138559081857  1.0000
  O   O5        1.0  0.6803671808764945  0.3086639752070753  0.6671988287219506  1.0000
  O   O6        1.0  0.5138830032502214  0.6672418006172266  0.35861336798507176  1.0000
  O   O7        1.0  0.28326174491925826  0.3847620378876755  0.5763775864538445  1.0000
  O   O8        1.0  0.11640414964994507  0.5768288977329448  0.19174826786999688  1.0000
  O   O9        1.0  0.9499089749470571  0.1918181404290564  0.61516229607264  1.0000
  O   O10       1.0  0.7832598539340265  0.6152369486653059  0.42362026904562106  1.0000
  O   O11       1.0  0.6164035741975907  0.4231713488799611  0.8082516466553853  1.0000
  O   O12       1.0  0.44990856364340454  0.8081815606552852  0.3848391379119461  1.0000
