data_image0
_chemical_formula_structural       Zn2H30C40N16O10
_chemical_formula_sum              "Zn2 H30 C40 N16 O10"
_cell_length_a       8.918462243010946
_cell_length_b       9.978664806386425
_cell_length_c       13.807432358052916
_cell_angle_alpha    90.15821277684886
_cell_angle_beta     106.73622053445156
_cell_angle_gamma    116.16799300058818

_space_group_name_H-M_alt    "P 1"
_space_group_IT_number       1

loop_
  _space_group_symop_operation_xyz
  'x, y, z'

loop_
  _atom_site_type_symbol
  _atom_site_label
  _atom_site_symmetry_multiplicity
  _atom_site_fract_x
  _atom_site_fract_y
  _atom_site_fract_z
  _atom_site_occupancy
  Zn  Zn1       1.0  0.7455244580763818  0.0899022189685397  0.9231142714386138  1.0000
  Zn  Zn2       1.0  0.25447359921626866  0.9100997641815312  0.07688549806854889  1.0000
  H   H1        1.0  0.8003214102224447  0.6895755456240948  0.7404901223577623  1.0000
  H   H2        1.0  0.19967659865749715  0.31042417786719784  0.2595096280271534  1.0000
  H   H3        1.0  0.48854914455075255  0.6352534805715138  0.667746226883061  1.0000
  H   H4        1.0  0.5114523759320165  0.36474624108713266  0.33225417177065  1.0000
  H   H5        1.0  0.3642723763799082  0.17907016119865202  0.560680185512183  1.0000
  H   H6        1.0  0.6357285830420808  0.8209306905948213  0.43932011465785337  1.0000
  H   H7        1.0  0.6861494439510311  0.25478599441959915  0.637007555634483  1.0000
  H   H8        1.0  0.3138509050343714  0.7452137309523579  0.3629919025136346  1.0000
  H   H9        1.0  0.6073826055946372  0.20008944725711333  0.4534336316904871  1.0000
  H   H10       1.0  0.3926154023222069  0.7999102793366079  0.5465653942784314  1.0000
  H   H11       1.0  0.33856211043939055  0.050603908678624514  0.3017687488671754  1.0000
  H   H12       1.0  0.6614376765221265  0.9493969499305949  0.6982298863812629  1.0000
  H   H13       1.0  0.628335240947301  0.9584211217584409  0.14983296489528186  1.0000
  H   H14       1.0  0.3716657175115897  0.0415797331374606  0.850166610858757  1.0000
  H   H15       1.0  0.9101207396345359  0.10514990459872561  0.2950058824365129  1.0000
  H   H16       1.0  0.08987961224015367  0.8948498114659388  0.7049957489596039  1.0000
  H   H17       1.0  0.09709688574861275  0.5341882678984363  0.717048876974367  1.0000
  H   H18       1.0  0.9029022462159871  0.46580919222076755  0.2829517947939095  1.0000
  H   H19       1.0  0.30300269410451364  0.5263611384232976  0.7483048127618729  1.0000
  H   H20       1.0  0.6969988263782553  0.473638583235342  0.2516955858918378  1.0000
  H   H21       1.0  0.05879277451759889  0.0361756461183802  0.8534698248835753  1.0000
  H   H22       1.0  0.941205794460032  0.9638229503405145  0.14652929956902483  1.0000
  H   H23       1.0  0.9089318708395949  0.38505010824017927  0.8203833820941  1.0000
  H   H24       1.0  0.09106613804034687  0.6149496152511135  0.1796163682908158  1.0000
  H   H25       1.0  0.7721891039753574  0.5951374297347983  0.9523045061352989  1.0000
  H   H26       1.0  0.22781363352821427  0.40486455717660164  0.04769467889826021  1.0000
  H   H27       1.0  0.05060498517210733  0.18733993395662205  0.0879792203512082  1.0000
  H   H28       1.0  0.9493935847686147  0.812658659399837  0.9120206285173894  1.0000
  H   H29       1.0  0.9017204729086928  0.23884178393926453  0.10067583581373195  1.0000
  H   H30       1.0  0.09827870554242686  0.7611579420435748  0.8993234062447826  1.0000
  C   C1        1.0  0.7012326579238035  0.5771249318472657  0.6999274529264312  1.0000
  C   C2        1.0  0.298766522453505  0.4228747879307165  0.3000732379640851  1.0000
  C   C3        1.0  0.5247937988667459  0.5459106953675033  0.6597169243167401  1.0000
  C   C4        1.0  0.47520533117166525  0.4540867709565647  0.3402822986195346  1.0000
  C   C5        1.0  0.39915409484346753  0.40066813983641236  0.6084962739279902  1.0000
  C   C6        1.0  0.6008456446684393  0.5993304560115932  0.39150306661420603  1.0000
  C   C7        1.0  0.4580223306663669  0.2937106586825138  0.5990127248532886  1.0000
  C   C8        1.0  0.5419780192821265  0.7062890635870147  0.4009874577108263  1.0000
  C   C9        1.0  0.6368040736001106  0.3362376069106787  0.6421518375198048  1.0000
  C   C10       1.0  0.36319627634838286  0.66376211535885  0.3578483450443102  1.0000
  C   C11       1.0  0.21077818714969962  0.3558749655267519  0.5649532956307439  1.0000
  C   C12       1.0  0.7892203827910224  0.6441236278297141  0.4350465532378466  1.0000
  C   C13       1.0  0.9423955208582767  0.2536237590233767  0.4707107310382668  1.0000
  C   C14       1.0  0.05760539111409467  0.7463748300088896  0.5292902744255272  1.0000
  C   C15       1.0  0.7810176379794314  0.16472760100812428  0.3855705183931519  1.0000
  C   C16       1.0  0.21898332336875379  0.835273244580492  0.6144312306088793  1.0000
  C   C17       1.0  0.6169772226483373  0.14780004164371258  0.3876601133430809  1.0000
  C   C18       1.0  0.38302195676588024  0.8521996812366981  0.6123398531314308  1.0000
  C   C19       1.0  0.46802408509704213  0.06447437800104441  0.3040290266215493  1.0000
  C   C20       1.0  0.5319739228198018  0.935525348592677  0.6959699993473762  1.0000
  C   C21       1.0  0.6298126547106547  0.012926713700856905  0.218924103945433  1.0000
  C   C22       1.0  0.3701889122586337  0.9870752738214251  0.78107486499853  1.0000
  C   C23       1.0  0.7855922490008779  0.09437980769271091  0.2993803535251374  1.0000
  C   C24       1.0  0.21440754084992633  0.9056210416092156  0.7006204549713005  1.0000
  C   C25       1.0  0.1597503855164106  0.4621581448738823  0.714162697800603  1.0000
  C   C26       1.0  0.8402505254928628  0.5378404472608196  0.2858375832471935  1.0000
  C   C27       1.0  0.04904392398575652  0.1373970050737654  0.8314322584159513  1.0000
  C   C28       1.0  0.9509564249996388  0.8626027202981917  0.1685671997321663  1.0000
  C   C29       1.0  0.9702525789480277  0.3128397183176902  0.8178217787020757  1.0000
  C   C30       1.0  0.029747771963563797  0.6871600008494029  0.1821791282780438  1.0000
  C   C31       1.0  0.6484812174166096  0.7962971247092343  0.9392955243089817  1.0000
  C   C32       1.0  0.3515197420053796  0.20370372708423906  0.06070477586105481  1.0000
  C   C33       1.0  0.30241156807228725  0.6717305791637358  0.9825156547550407  1.0000
  C   C34       1.0  0.6975887818762061  0.32826914310579275  0.017484527809074286  1.0000
  C   C35       1.0  0.4101746943855035  0.587739332247189  0.9933662873176416  1.0000
  C   C36       1.0  0.5898292165416308  0.4122626447460362  0.006635287053512705  1.0000
  C   C37       1.0  0.565707808601779  0.6413879447432651  0.966888974558259  1.0000
  C   C38       1.0  0.43429549188876143  0.3586129058284442  0.03311175779097652  1.0000
  C   C39       1.0  0.6519405629866314  0.5522083958670053  0.9729513408702672  1.0000
  C   C40       1.0  0.34806334890359386  0.4477935780237914  0.027050957916891608  1.0000
  N   N1        1.0  0.7580144637389877  0.4748357305557819  0.6922336949233738  1.0000
  N   N2        1.0  0.24198532611181636  0.5251651187461449  0.3077671135730641  1.0000
  N   N3        1.0  0.10385543663650056  0.26538576895908517  0.4768831635458213  1.0000
  N   N4        1.0  0.8961413542595482  0.7346116923818828  0.5231170760432491  1.0000
  N   N5        1.0  0.11537706962398896  0.3981257649228739  0.6091952825677395  1.0000
  N   N6        1.0  0.884621500316733  0.6018728284335922  0.3908045663008508  1.0000
  N   N7        1.0  0.9436377424768381  0.3315844368692495  0.5501755427694377  1.0000
  N   N8        1.0  0.05636204641087526  0.6684164155351056  0.4498245413110027  1.0000
  N   N9        1.0  0.4735422106135232  0.9985965691119959  0.2208999773010163  1.0000
  N   N10       1.0  0.5264593573188634  0.0014054153078504  0.7790997160589441  1.0000
  N   N11       1.0  0.09257895869601644  0.34045471264256844  0.771975246989804  1.0000
  N   N12       1.0  0.9074220016890706  0.6595461360484763  0.22802577759623693  1.0000
  N   N13       1.0  0.14464220574976144  0.23023159926221132  0.7795515327096824  1.0000
  N   N14       1.0  0.8553587536722276  0.7697692525312618  0.22044876746035413  1.0000
  N   N15       1.0  0.9394184957976108  0.18409609420872647  0.8562855558162569  1.0000
  N   N16       1.0  0.060581853187784494  0.8159036311632308  0.1437139023318608  1.0000
  O   O1        1.0  0.6038318497031909  0.8917050481324298  0.96789460664246  1.0000
  O   O2        1.0  0.3961684992822043  0.10829467723952753  0.032104851505657526  1.0000
  O   O3        1.0  0.7599027171061081  0.829498176808258  0.8919444034504095  1.0000
  O   O4        1.0  0.24009767836581367  0.17050381442733453  0.10805362498796  1.0000
  O   O5        1.0  0.3146879434776721  0.7382509219710585  0.0658783274141186  1.0000
  O   O6        1.0  0.685308894867994  0.2617488021311162  0.9341212068812013  1.0000
  O   O7        1.0  0.201789254724801  0.6620603324492293  0.8940985503950288  1.0000
  O   O8        1.0  0.7982128742683656  0.3379405218357904  0.1059012414486133  1.0000
  O   O9        1.0  0.9240680923357374  0.1542652730453185  0.07899317978223046  1.0000
  O   O10       1.0  0.07593108611538216  0.8457344529375208  0.921006062276284  1.0000
