data_image0
_chemical_formula_structural       Ag4H48C56N12O28
_chemical_formula_sum              "Ag4 H48 C56 N12 O28"
_cell_length_a       7.889770925000158
_cell_length_b       12.81918219255449
_cell_length_c       14.901012090218309
_cell_angle_alpha    98.66462848814412
_cell_angle_beta     90.00001880500794
_cell_angle_gamma    89.999984546668

_space_group_name_H-M_alt    "P 1"
_space_group_IT_number       1

loop_
  _space_group_symop_operation_xyz
  'x, y, z'

loop_
  _atom_site_type_symbol
  _atom_site_label
  _atom_site_symmetry_multiplicity
  _atom_site_fract_x
  _atom_site_fract_y
  _atom_site_fract_z
  _atom_site_occupancy
  Ag  Ag1       1.0  0.33337866110647246  0.33351604592211  0.7503301117110653  1.0000
  Ag  Ag2       1.0  0.8333805393833983  0.16648388414198226  0.7496703259228996  1.0000
  Ag  Ag3       1.0  0.6666200488687224  0.6664845824507212  0.2496702222950519  1.0000
  Ag  Ag4       1.0  0.1666207055199109  0.8335151660609841  0.25032980649777414  1.0000
  H   H1        1.0  0.7988229709740294  0.217888537207898  0.25384854164126847  1.0000
  H   H2        1.0  0.2988223796735383  0.2821113400324932  0.24615162144855426  1.0000
  H   H3        1.0  0.2011770064652154  0.7821113020799969  0.7461516915721235  1.0000
  H   H4        1.0  0.7011775977657138  0.717888499255409  0.7538486117648449  1.0000
  H   H5        1.0  0.9240889697501656  0.30751614210858247  0.33041155508715303  1.0000
  H   H6        1.0  0.4240883695686223  0.1924845081754755  0.16958939959965144  1.0000
  H   H7        1.0  0.07591100768964051  0.6924829115631183  0.6695899199704345  1.0000
  H   H8        1.0  0.5759128753345452  0.8075153311123344  0.8304108336138472  1.0000
  H   H9        1.0  0.8421207532402802  0.4565990986683843  0.24913890740108977  1.0000
  H   H10       1.0  0.3421215349475162  0.0434015615127095  0.2508613632168136  1.0000
  H   H11       1.0  0.15787922419903572  0.5434015314386827  0.7508620979236369  1.0000
  H   H12       1.0  0.6578784424917359  0.9565982777751855  0.7491388699965784  1.0000
  H   H13       1.0  0.9312957111921776  0.35097162330207254  0.17191531888457234  1.0000
  H   H14       1.0  0.4312952278471869  0.14902902595932233  0.3280856369232766  1.0000
  H   H15       1.0  0.06870426624728052  0.6490282177201506  0.8280855856473296  1.0000
  H   H16       1.0  0.5687047495920653  0.8509708133285727  0.6719145962901224  1.0000
  H   H17       1.0  0.6017729745957681  0.3317594274701748  0.6062547764278535  1.0000
  H   H18       1.0  0.1017725236537643  0.16823974810888134  0.8937461957043811  1.0000
  H   H19       1.0  0.39822700284376106  0.6682388336480402  0.39374525519990305  1.0000
  H   H20       1.0  0.8982274537853457  0.8317608802638575  0.10625413830183561  1.0000
  H   H21       1.0  0.08801279610310792  0.4005910059518528  0.6054541920342305  1.0000
  H   H22       1.0  0.5880109905444043  0.0994097480152618  0.8945463082245838  1.0000
  H   H23       1.0  0.9119884487995834  0.5994104097713234  0.39454557144640034  1.0000
  H   H24       1.0  0.4119889868946345  0.900590089538312  0.105453253670305  1.0000
  H   H25       1.0  0.09932358743323987  0.43091193706087694  0.4433582082037405  1.0000
  H   H26       1.0  0.5993241205801071  0.0690871794039651  0.056641823060374505  1.0000
  H   H27       1.0  0.9006789249335795  0.5690894803965207  0.5566422265954928  1.0000
  H   H28       1.0  0.40067712432299624  0.9309118690646798  0.9433576380417892  1.0000
  H   H29       1.0  0.3750387959239135  0.4082244816395858  0.360284992189513  1.0000
  H   H30       1.0  0.8750381032992394  0.09177459916943322  0.13971642460018785  1.0000
  H   H31       1.0  0.6249624489792538  0.5917753576482242  0.6397152410239786  1.0000
  H   H32       1.0  0.1249618741398706  0.9082260292033058  0.8602839094060288  1.0000
  H   H33       1.0  0.603043064180092  0.32945563363486496  0.8976863596352163  1.0000
  H   H34       1.0  0.10304243176850038  0.1705443273801706  0.6023133708503751  1.0000
  H   H35       1.0  0.39695944818706846  0.6705449964720175  0.10231464568970243  1.0000
  H   H36       1.0  0.8969575456705456  0.8294555101734036  0.39768619104451386  1.0000
  H   H37       1.0  0.08628787440636639  0.3910787123021963  0.9111505881436771  1.0000
  H   H38       1.0  0.5862871429095474  0.10892283272877991  0.5888506839582278  1.0000
  H   H39       1.0  0.9137146379607299  0.6089211269855214  0.08884964506991372  1.0000
  H   H40       1.0  0.4137141019937545  0.8910785881973596  0.4111510934779263  1.0000
  H   H41       1.0  0.09630310629520268  0.43983356981328114  0.07940762526360601  1.0000
  H   H42       1.0  0.5963026012020691  0.06016712698426121  0.4205932784347298  1.0000
  H   H43       1.0  0.903695603679779  0.5601670568252289  0.9205920374240011  1.0000
  H   H44       1.0  0.4036948413098216  0.9398311358684596  0.5794074245113309  1.0000
  H   H45       1.0  0.37526180237310314  0.4320559723956237  0.15980080193809704  1.0000
  H   H46       1.0  0.8752599766864505  0.06794310664751178  0.3401999435677042  1.0000
  H   H47       1.0  0.6247381750663478  0.5679438686265926  0.8402001025938122  1.0000
  H   H48       1.0  0.12473873328922018  0.9320559452899604  0.6598008601712808  1.0000
  C   C1        1.0  0.6768283291500338  0.34428575454880667  0.4324408065593914  1.0000
  C   C2        1.0  0.1768289490556967  0.15571414173711423  0.06756000887224901  1.0000
  C   C3        1.0  0.32317164828942424  0.6557140864734096  0.5675600979725106  1.0000
  C   C4        1.0  0.8231722958469943  0.844287273986055  0.9324397546083746  1.0000
  C   C5        1.0  0.8117358858674067  0.3001070360680416  0.28656460662949  1.0000
  C   C6        1.0  0.31173530965410373  0.19989283933998087  0.21343555846899429  1.0000
  C   C7        1.0  0.18826535903590266  0.6998920141349245  0.7134355257911836  1.0000
  C   C8        1.0  0.6882646677852834  0.8001062108630779  0.7865645739515801  1.0000
  C   C9        1.0  0.8244168251038245  0.37425261244236213  0.21756749145031057  1.0000
  C   C10       1.0  0.32441632349626554  0.1257480519853686  0.2824334477320747  1.0000
  C   C11       1.0  0.17558315233583952  0.6257472303141826  0.7824340844001018  1.0000
  C   C12       1.0  0.675582386479199  0.8742509982177755  0.7175666846883999  1.0000
  C   C13       1.0  0.6791096485921101  0.36777104079445894  0.07535352311728623  1.0000
  C   C14       1.0  0.17910923226849457  0.132228062614324  0.4246458492393047  1.0000
  C   C15       1.0  0.32089032884734797  0.6322288002277646  0.9246473814146159  1.0000
  C   C16       1.0  0.8208907451706863  0.8677709858544063  0.5753536118627595  1.0000
  C   C17       1.0  0.50829492835215  0.36341188151612164  0.47621133914495334  1.0000
  C   C18       1.0  0.008295529374237299  0.13658803868504074  0.023789450070609095  1.0000
  C   C19       1.0  0.49170504908737916  0.6365863796020933  0.5237886924827964  1.0000
  C   C20       1.0  0.9917057155285889  0.8634125879532917  0.976210212617197  1.0000
  C   C21       1.0  0.492555592149195  0.35166775185242477  0.5674635283014808  1.0000
  C   C22       1.0  0.9925550565484258  0.14833136653945903  0.9325368333001196  1.0000
  C   C23       1.0  0.5074443852903272  0.6483305092657902  0.43253650332627563  1.0000
  C   C24       1.0  0.007444920890684199  0.8516692618332796  0.06746350070609711  1.0000
  C   C25       1.0  0.20581468542560094  0.3912404440776245  0.5667428139366352  1.0000
  C   C26       1.0  0.7058141672845794  0.10875871673771091  0.9332581743797237  1.0000
  C   C27       1.0  0.7941852920135161  0.6087601842951217  0.4332575200695815  1.0000
  C   C28       1.0  0.2941870776183889  0.8912411208157779  0.06674138751526472  1.0000
  C   C29       1.0  0.2127045879189282  0.40716225490837854  0.4764322821436623  1.0000
  C   C30       1.0  0.7127038229089209  0.09283684373323813  0.02356709543874301  1.0000
  C   C31       1.0  0.7872953895201819  0.5928383734643604  0.5235680518625545  1.0000
  C   C32       1.0  0.2872961545304022  0.9071614156506488  0.9764322648705036  1.0000
  C   C33       1.0  0.3660132101861535  0.39318289728298356  0.43009857035225724  1.0000
  C   C34       1.0  0.8660137353238966  0.10681618133806127  0.06990150239656152  1.0000
  C   C35       1.0  0.6339880347170208  0.6068169420048264  0.5699016628612414  1.0000
  C   C36       1.0  0.13398624211500726  0.8931844453003566  0.9300981602911522  1.0000
  C   C37       1.0  0.508803042029399  0.3754773239170389  0.034533217374360006  1.0000
  C   C38       1.0  0.0087975844422346  0.12452101110547183  0.46546468506009847  1.0000
  C   C39       1.0  0.4911969354100592  0.6245225171051774  0.9654676871575422  1.0000
  C   C40       1.0  0.9911973231409803  0.8754772448101349  0.5345333326117372  1.0000
  C   C41       1.0  0.49292453948218196  0.35224293826897235  0.9403313692783403  1.0000
  C   C42       1.0  0.9929237732171926  0.14775854385645462  0.5596679521220836  1.0000
  C   C43       1.0  0.5070754379572762  0.647756902753251  0.0596695352535619  1.0000
  C   C44       1.0  0.007076204221362999  0.8522428701324856  0.4403311400399375  1.0000
  C   C45       1.0  0.20481350776523752  0.3881142062511528  0.9483647700632007  1.0000
  C   C46       1.0  0.7048127519474717  0.11188810931130891  0.5516359499501748  1.0000
  C   C47       1.0  0.7951877371380718  0.6118848439518131  0.051635362357473014  1.0000
  C   C48       1.0  0.2951884929550772  0.8881140954967036  0.44836391432327366  1.0000
  C   C49       1.0  0.21160936304954694  0.41477789276945043  0.04236979732828421  1.0000
  C   C50       1.0  0.7116063351936432  0.08522278940039739  0.4576317956247423  1.0000
  C   C51       1.0  0.7883918818534141  0.5852219447840383  0.9576297645667043  1.0000
  C   C52       1.0  0.28839110731755113  0.9147770481533612  0.5423677662699475  1.0000
  C   C53       1.0  0.36574820041191464  0.4091888436794521  0.0865596698915212  1.0000
  C   C54       1.0  0.8657438753228559  0.0908102332452145  0.413439731497185  1.0000
  C   C55       1.0  0.6342517770274724  0.5908102065236066  0.9134404625290531  1.0000
  C   C56       1.0  0.134252299724352  0.9091888134894647  0.5865590582860776  1.0000
  N   N1        1.0  0.34406459984987947  0.36486222100299415  0.6119621980257153  1.0000
  N   N2        1.0  0.8440640423644439  0.13513691846006992  0.888038140477484  1.0000
  N   N3        1.0  0.6559366450532236  0.6351368274656509  0.3880372630764485  1.0000
  N   N4        1.0  0.1559372025383823  0.8648637081782627  0.11196152221032214  1.0000
  N   N5        1.0  0.34370092750670267  0.35883333930356553  0.8977974914645517  1.0000
  N   N6        1.0  0.8437027253440448  0.141168169199787  0.6022038206792288  1.0000
  N   N7        1.0  0.6563003173964645  0.6411664999842444  0.10220274174893973  1.0000
  N   N8        1.0  0.15629851955905846  0.8588332499920311  0.39779728543841497  1.0000
  N   N9        1.0  0.33801002870986  0.08850295829090983  0.7560272043984001  1.0000
  N   N10       1.0  0.838009263193463  0.41149696764751553  0.7439718913187721  1.0000
  N   N11       1.0  0.661989948728838  0.9114976666131798  0.24397178697079627  1.0000
  N   N12       1.0  0.16198944678151855  0.5885036589909873  0.2560277713688351  1.0000
  O   O1        1.0  0.8115686286346244  0.34572828304298037  0.4732700662875332  1.0000
  O   O2        1.0  0.31156795641120993  0.15427317055847573  0.02673030037056631  1.0000
  O   O3        1.0  0.1884313488044853  0.6542723453297654  0.5267302677186834  1.0000
  O   O4        1.0  0.6884307535637005  0.8457290359840429  0.9732702352211933  1.0000
  O   O5        1.0  0.660126933161756  0.3235421713744699  0.3408909315923125  1.0000
  O   O6        1.0  0.1601263333806031  0.17645772728150183  0.15910988124126393  1.0000
  O   O7        1.0  0.3398730442776312  0.6764568788285814  0.6591092008282615  1.0000
  O   O8        1.0  0.8398723765945844  0.8235429010913293  0.8408904527648533  1.0000
  O   O9        1.0  0.6676834891627337  0.3691399988232078  0.16617278181828254  1.0000
  O   O10       1.0  0.16768301718492043  0.13085989702614143  0.3338273608722488  1.0000
  O   O11       1.0  0.3323164882767244  0.6308598421990085  0.8338281227136193  1.0000
  O   O12       1.0  0.8323156927901961  0.869139940527525  0.6661722010225406  1.0000
  O   O13       1.0  0.8122630589760432  0.36168753834232353  0.032575861433265615  1.0000
  O   O14       1.0  0.3122613990646173  0.1383123369909711  0.4674243037471301  1.0000
  O   O15       1.0  0.18773691846327267  0.6383130917647437  0.9674251438914542  1.0000
  O   O16       1.0  0.6877373109106414  0.8616867114778518  0.5325751573548347  1.0000
  O   O17       1.0  0.2015738606959303  0.13813608015728823  0.7448372966509994  1.0000
  O   O18       1.0  0.7015731234477017  0.36186386514171437  0.7551617778429575  1.0000
  O   O19       1.0  0.7984273842066897  0.8618645447467157  0.2551616947182965  1.0000
  O   O20       1.0  0.29842812145512443  0.638136761496611  0.24483788484484859  1.0000
  O   O21       1.0  0.3329247748714295  0.9969857067274364  0.7776833986467014  1.0000
  O   O22       1.0  0.8329241715603715  0.5030140741784521  0.7223162538655858  1.0000
  O   O23       1.0  0.6670739351036872  0.0030141308262301007  0.22231616324808814  1.0000
  O   O24       1.0  0.1670758058786674  0.496985763375129  0.27768330802930313  1.0000
  O   O25       1.0  0.4796909354683335  0.1329147659286676  0.7454226493526195  1.0000
  O   O26       1.0  0.9796901956132729  0.36708514337359327  0.7545778110406404  1.0000
  O   O27       1.0  0.5203103094350469  0.8670850750934634  0.25457825517938204  1.0000
  O   O28       1.0  0.020308514361843805  0.6329146941800732  0.24542175085414908  1.0000
