data_image0
_chemical_formula_structural       ZnH20C24N6O6
_chemical_formula_sum              "Zn1 H20 C24 N6 O6"
_cell_length_a       9.051411457251012
_cell_length_b       10.469164547172696
_cell_length_c       11.386730318297698
_cell_angle_alpha    58.369426832013595
_cell_angle_beta     89.12646599893381
_cell_angle_gamma    63.505268193624886

_space_group_name_H-M_alt    "P 1"
_space_group_IT_number       1

loop_
  _space_group_symop_operation_xyz
  'x, y, z'

loop_
  _atom_site_type_symbol
  _atom_site_label
  _atom_site_symmetry_multiplicity
  _atom_site_fract_x
  _atom_site_fract_y
  _atom_site_fract_z
  _atom_site_occupancy
  Zn  Zn1       1.0  0.5000109336174248  0.4999962224561544  0.5000082380982249  1.0000
  H   H1        1.0  0.2728760228675211  0.7396276152873186  0.19149246759057087  1.0000
  H   H2        1.0  0.7271392706360442  0.26036468745806474  0.8085188284478022  1.0000
  H   H3        1.0  0.13758751423938526  0.7263976564028312  0.013938823026521259  1.0000
  H   H4        1.0  0.8624183171602056  0.27360270464926373  0.9860543149363535  1.0000
  H   H5        1.0  0.2852212943814862  0.1961395778970854  0.3577895953669811  1.0000
  H   H6        1.0  0.7147786913238292  0.8038614602213913  0.6422077591539264  1.0000
  H   H7        1.0  0.41743069073512373  0.23115758523409377  0.52218630970183  1.0000
  H   H8        1.0  0.5825704119991643  0.7688343089293286  0.47781557173721023  1.0000
  H   H9        1.0  0.2332109975060064  0.3188023994281792  0.07927248289831826  1.0000
  H   H10       1.0  0.7667785975479331  0.6812018260099466  0.9207219412343336  1.0000
  H   H11       1.0  0.7089650542634729  0.2185693786678798  0.450853270519616  1.0000
  H   H12       1.0  0.29101902487005293  0.7814280562356047  0.5491616219102652  1.0000
  H   H13       1.0  0.8818883536586313  0.1811148554525204  0.2869975364868012  1.0000
  H   H14       1.0  0.11810550817359897  0.8188829053387112  0.7130135805272176  1.0000
  H   H15       1.0  0.8548073301042152  0.6658187873768711  0.14246955967467295  1.0000
  H   H16       1.0  0.145194562912124  0.33418066238449046  0.8575443340378328  1.0000
  H   H17       1.0  0.6898687745003612  0.6798304945308545  0.3155852135300066  1.0000
  H   H18       1.0  0.31014076383335987  0.3201462916895537  0.6844270377204467  1.0000
  H   H19       1.0  0.004584652901335928  0.28348271848523865  0.10859348962998179  1.0000
  H   H20       1.0  0.9954209162024198  0.7165068238939867  0.8914145915482835  1.0000
  C   C1        1.0  0.2725454245062976  0.6214482690040201  0.22432756966679077  1.0000
  C   C2        1.0  0.7274572721077207  0.3785426095695997  0.7756729308743501  1.0000
  C   C3        1.0  0.19814662500261443  0.6118460684390501  0.12527044766103757  1.0000
  C   C4        1.0  0.8018388798178079  0.3881666418261249  0.8747312467486381  1.0000
  C   C5        1.0  0.2014808895655448  0.45775687791029196  0.1701006539114046  1.0000
  C   C6        1.0  0.7984989484034274  0.5422583768290822  0.8298938920617046  1.0000
  C   C7        1.0  0.2789507832632765  0.3193202853394085  0.3167945129697927  1.0000
  C   C8        1.0  0.721024640390901  0.6806858686350311  0.6832125653077625  1.0000
  C   C9        1.0  0.3505280627676156  0.3386443075126523  0.4090738733814234  1.0000
  C   C10       1.0  0.6494639332502954  0.661359532545454  0.5909224481459107  1.0000
  C   C11       1.0  0.12897566543657757  0.4336743438352002  0.07056993671517382  1.0000
  C   C12       1.0  0.8710067841051198  0.5663286643735007  0.9294259362186352  1.0000
  C   C13       1.0  0.744748435831525  0.3144923518364139  0.38132067077217596  1.0000
  C   C14       1.0  0.25525579103834417  0.6854908664461733  0.6186970302055101  1.0000
  C   C15       1.0  0.8401662805659242  0.29472364275007834  0.2892276847787087  1.0000
  C   C16       1.0  0.1598315558212704  0.7052704410619911  0.7107760112490454  1.0000
  C   C17       1.0  0.8804572753544306  0.42207878211961275  0.19777534041374878  1.0000
  C   C18       1.0  0.11952831999042955  0.5779177345542055  0.8022230926499673  1.0000
  C   C19       1.0  0.8272256771908388  0.562148180525192  0.2092842789994336  1.0000
  C   C20       1.0  0.17275836623059607  0.43785381209372076  0.7907102130364905  1.0000
  C   C21       1.0  0.7350491875236783  0.5711063474632427  0.3061357502395054  1.0000
  C   C22       1.0  0.26495022153528686  0.428884505858619  0.6938727586684977  1.0000
  C   C23       1.0  0.9686316221240784  0.408749879098835  0.08957849623429577  1.0000
  C   C24       1.0  0.031357323020884446  0.5912533991913878  0.9104145440199218  1.0000
  N   N1        1.0  0.3489390767670528  0.4870182123037808  0.3644606375810753  1.0000
  N   N2        1.0  0.6510686001581192  0.5129737934720922  0.6355393583854294  1.0000
  N   N3        1.0  0.7340646712804002  0.06355364573277461  0.7266831058561607  1.0000
  N   N4        1.0  0.2659642373573303  0.9364629215072074  0.27329445745177583  1.0000
  N   N5        1.0  0.6910991032332631  0.4514292250928948  0.38954649247925494  1.0000
  N   N6        1.0  0.3089105180938603  0.5485565429470399  0.6104692461810117  1.0000
  O   O1        1.0  0.5993260303805812  0.21437349500047287  0.6775425550747513  1.0000
  O   O2        1.0  0.40068367926493664  0.7856303340386361  0.3224650799368761  1.0000
  O   O3        1.0  0.7495955417949743  0.9946950531754128  0.6602612177846507  1.0000
  O   O4        1.0  0.2503669127798673  0.005312714427475419  0.3397312008127713  1.0000
  O   O5        1.0  0.8451572426578409  0.9881799011223648  0.8409086233160892  1.0000
  O   O6        1.0  0.15494148141209513  0.011870324621497712  0.15901137851476926  1.0000
