data_image0
_chemical_formula_structural       Cu4H28C28N4Cl4
_chemical_formula_sum              "Cu4 H28 C28 N4 Cl4"
_cell_length_a       7.841416944006612
_cell_length_b       9.367310120045026
_cell_length_c       10.620465543027581
_cell_angle_alpha    90.00004860160891
_cell_angle_beta     108.54832702397032
_cell_angle_gamma    89.99964941788058

_space_group_name_H-M_alt    "P 1"
_space_group_IT_number       1

loop_
  _space_group_symop_operation_xyz
  'x, y, z'

loop_
  _atom_site_type_symbol
  _atom_site_label
  _atom_site_symmetry_multiplicity
  _atom_site_fract_x
  _atom_site_fract_y
  _atom_site_fract_z
  _atom_site_occupancy
  Cu  Cu1       1.0  0.1501464048074936  0.12206777736037819  0.0727716468307875  1.0000
  Cu  Cu2       1.0  0.15014398628424175  0.3779333748310449  0.5727692400386104  1.0000
  Cu  Cu3       1.0  0.8498547252076422  0.8779344164363256  0.9272286365218461  1.0000
  Cu  Cu4       1.0  0.8498557763355734  0.6220666838853361  0.4272325974464195  1.0000
  H   H1        1.0  0.9899020601187093  0.2382015558756549  0.3608165755611878  1.0000
  H   H2        1.0  0.9899125806517619  0.2618009026939347  0.8608228460597046  1.0000
  H   H3        1.0  0.010093667173144603  0.7618006379352664  0.639184290750883  1.0000
  H   H4        1.0  0.0100899167752431  0.7381991560138133  0.1391758831629275  1.0000
  H   H5        1.0  0.019386358962151507  0.12769535394586026  0.5101242013239116  1.0000
  H   H6        1.0  0.019398944178476502  0.37230961031901444  0.010129241058948  1.0000
  H   H7        1.0  0.9806107134403989  0.872305772319436  0.4898769887126802  1.0000
  H   H8        1.0  0.9806035643887726  0.6276925834728646  0.9898685492349202  1.0000
  H   H9        1.0  0.31659688913040906  0.2746630934981624  0.41972826180512607  1.0000
  H   H10       1.0  0.3166063582964116  0.22533221902250491  0.9197333105373388  1.0000
  H   H11       1.0  0.6834001721277615  0.7253369652253241  0.5802738671596258  1.0000
  H   H12       1.0  0.6833974730927752  0.7746667721401224  0.08026668133737049  1.0000
  H   H13       1.0  0.3763956483444488  0.7959257329687192  0.46990412475976473  1.0000
  H   H14       1.0  0.3763905418263178  0.7040778504527907  0.9699009417263724  1.0000
  H   H15       1.0  0.6236014798089614  0.20407325820938377  0.5300923706402259  1.0000
  H   H16       1.0  0.6236106104941257  0.29592220825825427  0.030097463772335666  1.0000
  H   H17       1.0  0.1528436994619895  0.936804441789171  0.2950018618211415  1.0000
  H   H18       1.0  0.15284100753596158  0.5631926413250453  0.7950010383255659  1.0000
  H   H19       1.0  0.8471547515009519  0.06319454938665811  0.7049968351578854  1.0000
  H   H20       1.0  0.8471601336318314  0.436808484928825  0.20499830610010142  1.0000
  H   H21       1.0  0.5437432321023153  0.07138415574540599  0.13446979977528878  1.0000
  H   H22       1.0  0.5437390534039397  0.4286150318164204  0.6344688902882466  1.0000
  H   H23       1.0  0.4562565416618796  0.9286169705127921  0.8655310987815809  1.0000
  H   H24       1.0  0.4562620766277449  0.5713828918109982  0.36553139306678156  1.0000
  H   H25       1.0  0.7804723391313928  0.9410174840395416  0.29887910328380224  1.0000
  H   H26       1.0  0.7804697244324929  0.5589838421920064  0.798874528799331  1.0000
  H   H27       1.0  0.2195274346410727  0.058981507134006995  0.7011217952742612  1.0000
  H   H28       1.0  0.219532761845997  0.4410162165162461  0.20112513935085724  1.0000
  C   C1        1.0  0.07772043690980011  0.2041333422392029  0.4578334885484665  1.0000
  C   C2        1.0  0.07772800322415922  0.29586644270628437  0.9578390734028942  1.0000
  C   C3        1.0  0.9222779806034468  0.795866716480475  0.5421680252126392  1.0000
  C   C4        1.0  0.9222731490962842  0.7041336160047607  0.04215933209581375  1.0000
  C   C5        1.0  0.26383974179555747  0.220267714240407  0.4906124194696205  1.0000
  C   C6        1.0  0.2638501233743895  0.27972794275256513  0.9906186698642756  1.0000
  C   C7        1.0  0.7361573306111282  0.779732344482575  0.5093887705675684  1.0000
  C   C8        1.0  0.7361537191591765  0.7202721159518788  0.00938038308226657  1.0000
  C   C9        1.0  0.6018841981656351  0.8569340942271352  0.4034772831338316  1.0000
  C   C10       1.0  0.6018836443704528  0.6430650567072149  0.9034713839678473  1.0000
  C   C11       1.0  0.3981128853937079  0.14306489695301383  0.5965229679763978  1.0000
  C   C12       1.0  0.3981201981672556  0.35693393445490074  0.09652766897929871  1.0000
  C   C13       1.0  0.42031529860784644  0.8562556022020902  0.39792601465912714  1.0000
  C   C14       1.0  0.4203119935994266  0.6437434109830847  0.8979241619224536  1.0000
  C   C15       1.0  0.5796818295538417  0.1437412538913705  0.6020704807420572  1.0000
  C   C16       1.0  0.579691848930004  0.35625771526368066  0.10207489102349848  1.0000
  C   C17       1.0  0.294149685226806  0.9339099734167462  0.3006210507498963  1.0000
  C   C18       1.0  0.2941470043098064  0.5660885225077621  0.8006174072255304  1.0000
  C   C19       1.0  0.7058474094851875  0.06608795022057018  0.6993782614333667  1.0000
  C   C20       1.0  0.7058554708243038  0.4339104686586808  0.19938319985281783  1.0000
  C   C21       1.0  0.5106846756194443  0.0102130373656877  0.21070681958944698  1.0000
  C   C22       1.0  0.5106814125674077  0.4897863986624457  0.71070240953005  1.0000
  C   C23       1.0  0.48931375304646  0.9897859538111646  0.7892937552446995  1.0000
  C   C24       1.0  0.48931972861279166  0.5102115249644614  0.2892969348974148  1.0000
  C   C25       1.0  0.6443436081752408  0.9359128503363153  0.30473839316238127  1.0000
  C   C26       1.0  0.6443409650755215  0.56408598063269  0.8047328740283602  1.0000
  C   C27       1.0  0.35565482049479874  0.0640850732982088  0.695262181672362  1.0000
  C   C28       1.0  0.35566019839343715  0.4359140780778431  0.19526459254278444  1.0000
  N   N1        1.0  0.33690712945670503  0.0116066263222407  0.20789696204825245  1.0000
  N   N2        1.0  0.33690518888683124  0.4883872969018483  0.7078956940610651  1.0000
  N   N3        1.0  0.6630899652552955  0.9883912973150757  0.7921023501350105  1.0000
  N   N4        1.0  0.6630959411365751  0.5116127618102128  0.29210458929276933  1.0000
  Cl  Cl1       1.0  0.8920194254431523  0.07639642786185163  0.1160514289489996  1.0000
  Cl  Cl2       1.0  0.8920166195489403  0.4236020139804637  0.6160517877336815  1.0000
  Cl  Cl3       1.0  0.1079803483169073  0.9236057659386674  0.8839494696072733  1.0000
  Cl  Cl4       1.0  0.10798313191821761  0.5763991122787503  0.3839509886783077  1.0000
