data_image0
_chemical_formula_structural       Sm2H12C20N4O14
_chemical_formula_sum              "Sm2 H12 C20 N4 O14"
_cell_length_a       7.52213971864814
_cell_length_b       9.055060173829713
_cell_length_c       9.72525173794113
_cell_angle_alpha    118.23814690058207
_cell_angle_beta     92.26996140944881
_cell_angle_gamma    98.73773245311946

_space_group_name_H-M_alt    "P 1"
_space_group_IT_number       1

loop_
  _space_group_symop_operation_xyz
  'x, y, z'

loop_
  _atom_site_type_symbol
  _atom_site_label
  _atom_site_symmetry_multiplicity
  _atom_site_fract_x
  _atom_site_fract_y
  _atom_site_fract_z
  _atom_site_occupancy
  Sm  Sm1       1.0  0.126068478410204  0.3473387870902442  0.31863156480261523  1.0000
  Sm  Sm2       1.0  0.8739290772120469  0.652658580588664  0.6813668995658377  1.0000
  H   H1        1.0  0.46201988923135673  0.7795722507905226  0.7875365262192277  1.0000
  H   H2        1.0  0.5379803867874101  0.22043147351585896  0.21246591230627837  1.0000
  H   H3        1.0  0.9225940897514776  0.6225676467439528  0.055970686668665406  1.0000
  H   H4        1.0  0.07740234112888804  0.3774246105939625  0.94402544777369  1.0000
  H   H5        1.0  0.2744535119571053  0.789141730080935  0.9996435084372026  1.0000
  H   H6        1.0  0.7255505542958716  0.21086708279293728  0.0003603181160372285  1.0000
  H   H7        1.0  0.7559696389788186  0.2555600879121087  0.43000013689770367  1.0000
  H   H8        1.0  0.2440260276186521  0.7444347422870621  0.5699971225573464  1.0000
  H   H9        1.0  0.8350037241454941  0.0827402768085364  0.358333164831798  1.0000
  H   H10       1.0  0.1649935259219576  0.9172557860691057  0.64166676065328  1.0000
  H   H11       1.0  0.3347972635941474  0.7379257902855088  0.2730766182799159  1.0000
  H   H12       1.0  0.6652050050922327  0.26208690433362847  0.7269278540181006  1.0000
  C   C1        1.0  0.5090817717558096  0.760137146318037  0.8836857218134853  1.0000
  C   C2        1.0  0.4909208763851538  0.23986526502157807  0.11631621413121715  1.0000
  C   C3        1.0  0.6708140974618075  0.7022562576547459  0.03449249592066663  1.0000
  C   C4        1.0  0.3291862151109441  0.2977475074756697  0.9655068772076164  1.0000
  C   C5        1.0  0.5066252740980345  0.7364914824780867  0.09876164237453379  1.0000
  C   C6        1.0  0.4933769031301622  0.2635147929160481  0.901240979265296  1.0000
  C   C7        1.0  0.5932299734101036  0.672789716681379  0.30164321972692687  1.0000
  C   C8        1.0  0.4067700214231921  0.32721273003975426  0.6983586363170531  1.0000
  C   C9        1.0  0.5361864487543286  0.6665598197584116  0.44593834510190783  1.0000
  C   C10       1.0  0.4638103182156996  0.33344009356572707  0.5540632878773692  1.0000
  C   C11       1.0  0.7620134645315844  0.6411678060784425  0.2402088827093395  1.0000
  C   C12       1.0  0.23798434790680995  0.358830811969696  0.7597922077387835  1.0000
  C   C13       1.0  0.9015342879306587  0.5715949471794914  0.29446965582133094  1.0000
  C   C14       1.0  0.09846460653007942  0.42840241641667387  0.7055278266984076  1.0000
  C   C15       1.0  0.7984690927829162  0.6551066657117913  0.1059830293045182  1.0000
  C   C16       1.0  0.20152978949315783  0.34489068427636477  0.8940154750142995  1.0000
  C   C17       1.0  0.46534000664507863  0.7203464576757241  0.22972296938822734  1.0000
  C   C18       1.0  0.5346630019548756  0.2796636368661396  0.7702824214952458  1.0000
  C   C19       1.0  0.05165424687926651  0.9555382144418089  0.034733045268510024  1.0000
  C   C20       1.0  0.9483537200616894  0.044464139742792994  0.9652680286785511  1.0000
  N   N1        1.0  0.6676667572909665  0.7174431055439  0.8982779007395154  1.0000
  N   N2        1.0  0.33233111607073335  0.2825555805442832  0.10171808071324054  1.0000
  N   N3        1.0  0.4091273667876152  0.7743559482829523  0.0008144728448229277  1.0000
  N   N4        1.0  0.5908740705270148  0.225652927188456  0.9991872302095501  1.0000
  O   O1        1.0  0.047838061407283354  0.5546666713559747  0.2333882171919584  1.0000
  O   O2        1.0  0.9521541205107765  0.44532437507697853  0.7666061931187258  1.0000
  O   O3        1.0  0.87113133570584  0.5164246425533533  0.3943218126720184  1.0000
  O   O4        1.0  0.12886353005475834  0.4835727196830391  0.6056796371929282  1.0000
  O   O5        1.0  0.6487347864796575  0.731481199620738  0.5690010901076122  1.0000
  O   O6        1.0  0.3512637902416317  0.26851484556614474  0.4309988753278234  1.0000
  O   O7        1.0  0.36828571732360865  0.6082404616553347  0.4412036359463941  1.0000
  O   O8        1.0  0.6317129325056428  0.391755665179609  0.5587901986946022  1.0000
  O   O9        1.0  0.06893826933693253  0.8039855986147301  0.9385093995184448  1.0000
  O   O10       1.0  0.931069630515161  0.19601036356088034  0.06148778017229262  1.0000
  O   O11       1.0  0.1124344241128696  0.0367767686545335  0.17850763696601757  1.0000
  O   O12       1.0  0.887571867899922  0.9632179336265879  0.8214889202928365  1.0000
  O   O13       1.0  0.8436396816614361  0.19225817752850108  0.36114583456484445  1.0000
  O   O14       1.0  0.15635777031796752  0.8077327573173888  0.6388518009445009  1.0000
