data_image0
_chemical_formula_structural       Cu4H28C20N16O8
_chemical_formula_sum              "Cu4 H28 C20 N16 O8"
_cell_length_a       6.821047886089528
_cell_length_b       9.855741922055168
_cell_length_c       11.817586346507065
_cell_angle_alpha    89.99987721983726
_cell_angle_beta     98.45898729973632
_cell_angle_gamma    90.00038471373986

_space_group_name_H-M_alt    "P 1"
_space_group_IT_number       1

loop_
  _space_group_symop_operation_xyz
  'x, y, z'

loop_
  _atom_site_type_symbol
  _atom_site_label
  _atom_site_symmetry_multiplicity
  _atom_site_fract_x
  _atom_site_fract_y
  _atom_site_fract_z
  _atom_site_occupancy
  Cu  Cu1       1.0  0.18476541780605518  0.9911003637433992  0.3872652728506623  1.0000
  Cu  Cu2       1.0  0.3152363791032896  0.4910990939597396  0.11273405297424686  1.0000
  Cu  Cu3       1.0  0.8152380136244517  0.0089055964467235  0.612733498802825  1.0000
  Cu  Cu4       1.0  0.6847624373264622  0.5088977344786797  0.8872710595731021  1.0000
  H   H1        1.0  0.25514009563124773  0.795914044078415  0.20072016304975182  1.0000
  H   H2        1.0  0.24485093805636637  0.29591297583928616  0.2992810634305484  1.0000
  H   H3        1.0  0.744854274740554  0.20408582826087948  0.7992845358397103  1.0000
  H   H4        1.0  0.7551508002139117  0.7040868965144039  0.7007260135226117  1.0000
  H   H5        1.0  0.6475752697710034  0.3346118985779468  0.520490527802103  1.0000
  H   H6        1.0  0.8524164893464173  0.8346056080331079  0.9795066918438377  1.0000
  H   H7        1.0  0.3524222335634376  0.6653940615988458  0.47950769230956064  1.0000
  H   H8        1.0  0.1475810139457394  0.16539122041106674  0.020491528272387396  1.0000
  H   H9        1.0  0.5729554227095193  0.349115136369221  0.36977392887025207  1.0000
  H   H10       1.0  0.9270527977325285  0.8491192293159314  0.13022035978217156  1.0000
  H   H11       1.0  0.4270540212179768  0.6508816921061537  0.6302220170567949  1.0000
  H   H12       1.0  0.0729581071410621  0.15088470162034173  0.8697765683449885  1.0000
  H   H13       1.0  0.790001679517644  0.2540481530476767  0.42645262343887674  1.0000
  H   H14       1.0  0.7100008976956075  0.7540483199127123  0.07355401131512447  1.0000
  H   H15       1.0  0.21000899312772958  0.7459537486021899  0.5735535921895902  1.0000
  H   H16       1.0  0.2900038257569904  0.24595662563356058  0.9264524970882062  1.0000
  H   H17       1.0  0.41280691420195836  0.05991809686173609  0.18423237323263206  1.0000
  H   H18       1.0  0.08719105814772378  0.5599190884449284  0.3157606288462062  1.0000
  H   H19       1.0  0.5871906524225992  0.9400787315858422  0.8157633139289685  1.0000
  H   H20       1.0  0.9127945467541919  0.440082813155108  0.6842381768202515  1.0000
  H   H21       1.0  0.37338131146489667  0.9310519502609645  0.07702589421533187  1.0000
  H   H22       1.0  0.12661103716430233  0.4310530478288682  0.4229726642909382  1.0000
  H   H23       1.0  0.6266161284807551  0.0689418342689265  0.9229748588570457  1.0000
  H   H24       1.0  0.87337137146136  0.5689468244780967  0.5770351531059105  1.0000
  H   H25       1.0  0.5827699251912861  0.9217541703430779  0.18796401370281046  1.0000
  H   H26       1.0  0.9172166320730922  0.42175388562327476  0.31203235568623455  1.0000
  H   H27       1.0  0.41722006242677867  0.07824265807875719  0.8120377385771744  1.0000
  H   H28       1.0  0.08277060258616592  0.5782388842554269  0.6879606776427776  1.0000
  C   C1        1.0  0.5133800216512654  0.15723183751077838  0.4393904746587649  1.0000
  C   C2        1.0  0.9866232675647097  0.6572303038056191  0.060611328802934836  1.0000
  C   C3        1.0  0.4866307776683172  0.8427720934198177  0.5606106750594433  1.0000
  C   C4        1.0  0.013377094235558202  0.3427695685504161  0.9393913886737263  1.0000
  C   C5        1.0  0.6389473385566117  0.2813100605034791  0.43832795617579  1.0000
  C   C6        1.0  0.8610556600271905  0.7813089440276996  0.06167189679540288  1.0000
  C   C7        1.0  0.36105903578293647  0.7186898118704262  0.5616719355698621  1.0000
  C   C8        1.0  0.1389506298738397  0.21869194297861583  0.9383313722225848  1.0000
  C   C9        1.0  0.8735346175275538  0.13350570468003298  0.20641547677612235  1.0000
  C   C10       1.0  0.6264685785901775  0.6334998368552573  0.2935812844836291  1.0000
  C   C11       1.0  0.1264613826908629  0.8665043140401276  0.7935834497662668  1.0000
  C   C12       1.0  0.37354238956413605  0.36649293307789316  0.706413110694477  1.0000
  C   C13       1.0  0.6288325042939603  0.2695974921293923  0.10813060172628748  1.0000
  C   C14       1.0  0.8711645210448394  0.7695955743113102  0.39186617845106037  1.0000
  C   C15       1.0  0.3711486967575155  0.7304044094629133  0.8918661016473802  1.0000
  C   C16       1.0  0.12884200107502147  0.2304053127075035  0.6081278030666295  1.0000
  C   C17       1.0  0.4255190574590557  0.9508546261343154  0.16807986353110485  1.0000
  C   C18       1.0  0.07447053162878349  0.45085368168492573  0.33191755510191  1.0000
  C   C19       1.0  0.5744799067557056  0.04914423158597709  0.83191933878777  1.0000
  C   C20       1.0  0.9255195193216891  0.549143146740313  0.6680816642234502  1.0000
  N   N1        1.0  0.5724178830070343  0.0508208305821185  0.5024940438132928  1.0000
  N   N2        1.0  0.9275785734404066  0.550819922881736  0.9975075260700162  1.0000
  N   N3        1.0  0.4275826054674424  0.9491810710546457  0.497503607753103  1.0000
  N   N4        1.0  0.07241884542263219  0.44917994946876394  0.0024940713175212017  1.0000
  N   N5        1.0  0.9716546755571186  0.07815029037123367  0.2827401453944133  1.0000
  N   N6        1.0  0.5283480289786482  0.5781421248832429  0.21725582685471062  1.0000
  N   N7        1.0  0.028345728539932207  0.921865816178396  0.7172608834377241  1.0000
  N   N8        1.0  0.4716644211902903  0.4218486157793179  0.7827387062098692  1.0000
  N   N9        1.0  0.7738690088201776  0.18527337765483048  0.11562030207100084  1.0000
  N   N10       1.0  0.7261317871522762  0.6852687629581167  0.3843727544225146  1.0000
  N   N11       1.0  0.22612559379393818  0.8147315678817507  0.8843751093156339  1.0000
  N   N12       1.0  0.2738777412137239  0.31472705088484787  0.615619814232204  1.0000
  N   N13       1.0  0.49205401320001124  0.3430954667206052  0.08749803664583305  1.0000
  N   N14       1.0  0.007940400418405595  0.84309786345824  0.41250426278218544  1.0000
  N   N15       1.0  0.5079255368940424  0.6568962884897046  0.9125052833931161  1.0000
  N   N16       1.0  0.9920586060461571  0.15690708208606446  0.5874932508972319  1.0000
  O   O1        1.0  0.3403028010627763  0.15787073128873885  0.3753643340791653  1.0000
  O   O2        1.0  0.15970171104740413  0.6578745870918111  0.12464094212902664  1.0000
  O   O3        1.0  0.6597079559976108  0.8421250825439227  0.6246385042795166  1.0000
  O   O4        1.0  0.8403014247989801  0.3421242706237066  0.8753696499829287  1.0000
  O   O5        1.0  0.3083751275986302  0.8802720512352945  0.2397612502078275  1.0000
  O   O6        1.0  0.19161543754870536  0.3802647434785554  0.2602304666064795  1.0000
  O   O7        1.0  0.6916164054040477  0.11973086501502188  0.7602381069999492  1.0000
  O   O8        1.0  0.8083967804483905  0.6197361435410966  0.7397733539533247  1.0000
