data_image0
_chemical_formula_structural       Zn4H44C52N8O20
_chemical_formula_sum              "Zn4 H44 C52 N8 O20"
_cell_length_a       7.652957429092782
_cell_length_b       11.938955924803441
_cell_length_c       16.160411613805426
_cell_angle_alpha    108.52617545703974
_cell_angle_beta     90.00056102627545
_cell_angle_gamma    89.99984666575668

_space_group_name_H-M_alt    "P 1"
_space_group_IT_number       1

loop_
  _space_group_symop_operation_xyz
  'x, y, z'

loop_
  _atom_site_type_symbol
  _atom_site_label
  _atom_site_symmetry_multiplicity
  _atom_site_fract_x
  _atom_site_fract_y
  _atom_site_fract_z
  _atom_site_occupancy
  Zn  Zn1       1.0  0.9868331413279989  0.17392086343166818  0.3141199819525367  1.0000
  Zn  Zn2       1.0  0.4868329393499309  0.8260818159750729  0.18588041511181796  1.0000
  Zn  Zn3       1.0  0.0131649922005579  0.8260758600267337  0.6858790328121669  1.0000
  Zn  Zn4       1.0  0.51316650085883  0.17391933778834104  0.8141190699350103  1.0000
  H   H1        1.0  0.2172219065849745  0.42984304628024017  0.21215349778399425  1.0000
  H   H2        1.0  0.7172199541298029  0.5701560120871676  0.2878453724285918  1.0000
  H   H3        1.0  0.7827866804213031  0.5701589767443025  0.7878468198584653  1.0000
  H   H4        1.0  0.28278471280422923  0.4298460529395669  0.7121530989090556  1.0000
  H   H5        1.0  0.09119775860830258  0.3356781415919841  0.226035734491269  1.0000
  H   H6        1.0  0.5911899102656333  0.6643182044030027  0.2739631197750255  1.0000
  H   H7        1.0  0.9088212818963509  0.6643194091264348  0.7739659591924021  1.0000
  H   H8        1.0  0.40881214333865035  0.3356855431394834  0.7260394784319144  1.0000
  H   H9        1.0  0.5213150848795891  0.984691209212748  0.8573363587120749  1.0000
  H   H10       1.0  0.0213055357703809  0.015304874098397604  0.6426619996542298  1.0000
  H   H11       1.0  0.47868304865793476  0.015310799809448406  0.14266457433754445  1.0000
  H   H12       1.0  0.9786899843703193  0.9846918913623809  0.3573351688087526  1.0000
  H   H13       1.0  0.6707532745731014  0.9684845275697712  0.7792391926960532  1.0000
  H   H14       1.0  0.1707504930463486  0.031510727495870604  0.720759039095526  1.0000
  H   H15       1.0  0.3292435522795998  0.0315165981914589  0.22076152320830283  1.0000
  H   H16       1.0  0.8292437204167553  0.9684869072246015  0.27923896193839676  1.0000
  H   H17       1.0  0.9713321631458595  0.3482110957232933  0.4968988143099294  1.0000
  H   H18       1.0  0.4713262969824257  0.6517951264724501  0.003101762647418087  1.0000
  H   H19       1.0  0.028672503830520696  0.6517864549931502  0.5031028793397921  1.0000
  H   H20       1.0  0.528671836511883  0.3482096303384665  0.9968955138057748  1.0000
  H   H21       1.0  0.6788678704413866  0.28507389757145774  0.2712470535525567  1.0000
  H   H22       1.0  0.17886638993068968  0.7149286553110273  0.22875373489951303  1.0000
  H   H23       1.0  0.32113548986331597  0.7149236251429869  0.7287558709577836  1.0000
  H   H24       1.0  0.8211382770266056  0.28506893740814826  0.7712461124546548  1.0000
  H   H25       1.0  0.7497282671451656  0.48643709005710895  0.5854553784350145  1.0000
  H   H26       1.0  0.2497196692902861  0.5135661220286423  0.9145457961518485  1.0000
  H   H27       1.0  0.2502711731414847  0.5135541658258517  0.41454971866193074  1.0000
  H   H28       1.0  0.750270624105795  0.4864421538234254  0.08545296428338389  1.0000
  H   H29       1.0  0.13353952722373205  0.1888127537593434  0.0668052686248117  1.0000
  H   H30       1.0  0.6335317434706269  0.8111943149930737  0.43319146792603647  1.0000
  H   H31       1.0  0.866462526311892  0.8111937975754981  0.9331912112582967  1.0000
  H   H32       1.0  0.3664663900418929  0.1888086332935472  0.5668072205383506  1.0000
  H   H33       1.0  0.6037718076082896  0.0658552833178305  0.012280086253689098  1.0000
  H   H34       1.0  0.10376430899548689  0.9341472909563816  0.48771850111606313  1.0000
  H   H35       1.0  0.3962289392997603  0.9341502587478626  0.9877217153708098  1.0000
  H   H36       1.0  0.8962325178486806  0.0658494325018424  0.5122805136455566  1.0000
  H   H37       1.0  0.9394828108559565  0.08363097185284832  0.8035075139319473  1.0000
  H   H38       1.0  0.4394746193586414  0.9163635297079722  0.696489308522686  1.0000
  H   H39       1.0  0.0605166293429633  0.9163631298252071  0.1964896185456055  1.0000
  H   H40       1.0  0.5605182874310585  0.08363054396736658  0.3035090548031434  1.0000
  H   H41       1.0  0.44093946083941654  0.415212603458599  0.3479443503447256  1.0000
  H   H42       1.0  0.940939881678396  0.5847873155639434  0.15205948650432788  1.0000
  H   H43       1.0  0.5590625928100862  0.5847795496864165  0.6520603484687226  1.0000
  H   H44       1.0  0.059062171918220885  0.4152137961971006  0.8479418448442284  1.0000
  C   C1        1.0  0.8529566640839192  0.36907840370317757  0.46730729064950066  1.0000
  C   C2        1.0  0.35295279849390226  0.6309258934748244  0.03269783167946374  1.0000
  C   C3        1.0  0.1470480029411618  0.6309146187020714  0.532698240744139  1.0000
  C   C4        1.0  0.6470453350254175  0.36907792407166806  0.9673016893589615  1.0000
  C   C5        1.0  0.6902758379000956  0.3339185146855144  0.340478048590647  1.0000
  C   C6        1.0  0.19027313191140385  0.6660822468043507  0.15952359033195762  1.0000
  C   C7        1.0  0.3097249090476808  0.6660772135051902  0.6595256724928616  1.0000
  C   C8        1.0  0.8097276149808792  0.3339171404376771  0.8404754604336018  1.0000
  C   C9        1.0  0.7260217684836334  0.44465221291150675  0.5158978443045468  1.0000
  C   C10       1.0  0.226015738280303  0.5553492121458489  0.9841033994404637  1.0000
  C   C11       1.0  0.2739789784751209  0.5553399542342418  0.48410623907395917  1.0000
  C   C12       1.0  0.7739771684849899  0.4446599469673627  0.01589557814311599  1.0000
  C   C13       1.0  0.23091445901194155  0.1653072619128153  0.9030975819012137  1.0000
  C   C14       1.0  0.7309153405345438  0.8346915707095804  0.5969005718204768  1.0000
  C   C15       1.0  0.7690784477312247  0.8346957563776413  0.09689802939157484  1.0000
  C   C16       1.0  0.2690827929957535  0.16530868579195612  0.403099311512939  1.0000
  C   C17       1.0  0.027043035462206398  0.1567689238544858  0.020861004660176305  1.0000
  C   C18       1.0  0.5270360665403897  0.8432353678812701  0.4791388853730111  1.0000
  C   C19       1.0  0.9729603247878698  0.843234024432853  0.9791376838165602  1.0000
  C   C20       1.0  0.47296206697762233  0.15676579988287645  0.5208599842388819  1.0000
  C   C21       1.0  0.86523176510979  0.1295411989730084  0.049326855810647885  1.0000
  C   C22       1.0  0.365219843587127  0.8704623723220236  0.45067133759739153  1.0000
  C   C23       1.0  0.13477420851454977  0.8704599687922112  0.950672013819762  1.0000
  C   C24       1.0  0.6347756765680329  0.1295378981800681  0.5493279302979984  1.0000
  C   C25       1.0  0.7303720945535588  0.0847400647867573  0.9890463846141838  1.0000
  C   C26       1.0  0.2303613967925031  0.9152623007283296  0.5109526350866034  1.0000
  C   C27       1.0  0.26962865236633593  0.9152636827555513  0.010956213589672453  1.0000
  C   C28       1.0  0.7696341233677088  0.0847353059904989  0.4890465968141056  1.0000
  C   C29       1.0  0.9210448741345157  0.09409333147645779  0.872328143123347  1.0000
  C   C30       1.0  0.4210418426785408  0.9059055953295853  0.6276690625170926  1.0000
  C   C31       1.0  0.0789532593957745  0.9059069250250784  0.1276717402100687  1.0000
  C   C32       1.0  0.5789549841660602  0.09409201138942079  0.3723301693867071  1.0000
  C   C33       1.0  0.8385528278718297  0.14197345320031468  0.14360887766891034  1.0000
  C   C34       1.0  0.33854685722608463  0.8580301247743944  0.3563885742833789  1.0000
  C   C35       1.0  0.1614505323964579  0.8580276865627284  0.8563912228190274  1.0000
  C   C36       1.0  0.6614551963455285  0.1419719262510739  0.6436105124799523  1.0000
  C   C37       1.0  0.7589418752968128  0.06595447262458261  0.9004271862762958  1.0000
  C   C38       1.0  0.2589407644688109  0.9340470314729501  0.599571135843881  1.0000
  C   C39       1.0  0.24105495156774023  0.9340448586132695  0.09957432620740295  1.0000
  C   C40       1.0  0.7410573690551271  0.065953239029497  0.4004281320576836  1.0000
  C   C41       1.0  0.05508213303654939  0.13918152095531158  0.932152562080844  1.0000
  C   C42       1.0  0.5550770836046224  0.860819899190375  0.5678460278094164  1.0000
  C   C43       1.0  0.9449199205396894  0.860816983026112  0.06784627154562635  1.0000
  C   C44       1.0  0.4449223566041382  0.1391812545730389  0.4321534572374117  1.0000
  C   C45       1.0  0.5568754278392377  0.40696951546441806  0.38467077010413664  1.0000
  C   C46       1.0  0.056870803424182284  0.5930312094133185  0.11533023859710312  1.0000
  C   C47       1.0  0.4431266258047799  0.5930244182030789  0.6153337475618128  1.0000
  C   C48       1.0  0.943126023409441  0.40696995835064353  0.8846686310116989  1.0000
  C   C49       1.0  0.5714444672672485  0.4630213946798065  0.47500599832181917  1.0000
  C   C50       1.0  0.07144082588985869  0.5369775116713457  0.0249971066525703  1.0000
  C   C51       1.0  0.42855366633414593  0.5369680946814057  0.5249986644876826  1.0000
  C   C52       1.0  0.9285546942551903  0.46302808639727294  0.9750022332321817  1.0000
  N   N1        1.0  0.6227377495056102  0.02651807654521582  0.8370339375458966  1.0000
  N   N2        1.0  0.12273255563435008  0.9734771933440101  0.6629628365389519  1.0000
  N   N3        1.0  0.3772603840251207  0.9734830632171094  0.16296616292969185  1.0000
  N   N4        1.0  0.8772642712034581  0.0265195441151249  0.3370355627908167  1.0000
  N   N5        1.0  0.835179754584935  0.3135686852944417  0.38097763432003257  1.0000
  N   N6        1.0  0.33517482574233537  0.6864339104875157  0.11902389258025178  1.0000
  N   N7        1.0  0.16482491239692368  0.6864270848995275  0.6190242404771877  1.0000
  N   N8        1.0  0.6648259211444552  0.3135672572769863  0.8809749770378088  1.0000
  O   O1        1.0  0.6998812782247512  0.10738335070156073  0.16894675035704404  1.0000
  O   O2        1.0  0.19988117875466568  0.892627325306236  0.3310487064682518  1.0000
  O   O3        1.0  0.30011816197939106  0.8926213501058984  0.8310529878266448  1.0000
  O   O4        1.0  0.800122181490792  0.10737917002514762  0.6689502351453454  1.0000
  O   O5        1.0  0.1463491433224462  0.4123079124510268  0.2564389194287954  1.0000
  O   O6        1.0  0.6463462082631822  0.587691140466063  0.24355900052898946  1.0000
  O   O7        1.0  0.8536685904978111  0.5876896382672071  0.7435627742517921  1.0000
  O   O8        1.0  0.3536466985367922  0.41231086855541565  0.7564419325082806  1.0000
  O   O9        1.0  0.9689015637795748  0.18859716430237938  0.19509441651643292  1.0000
  O   O10       1.0  0.4688921103604215  0.8114037716620074  0.3049042306647677  1.0000
  O   O11       1.0  0.031105716527420696  0.8114004704198833  0.8049035845483554  1.0000
  O   O12       1.0  0.5311112499087328  0.18859913462260644  0.6950963041075297  1.0000
  O   O13       1.0  0.3527894034082236  0.19840658887054727  0.9574222294183623  1.0000
  O   O14       1.0  0.8527840752602955  0.8015949689847587  0.5425753051873056  1.0000
  O   O15       1.0  0.6472100367141138  0.8016000604703066  0.042569942435612525  1.0000
  O   O16       1.0  0.14721536496841028  0.1984079092974866  0.45742646043943563  1.0000
  O   O17       1.0  0.2535519432474089  0.15146266217154652  0.8203767082010811  1.0000
  O   O18       1.0  0.7535518570063999  0.8485352794019005  0.6796219507531231  1.0000
  O   O19       1.0  0.7464435768746469  0.8485350285527459  0.1796188311085203  1.0000
  O   O20       1.0  0.24644758321464613  0.15146496309890983  0.3203785480152276  1.0000
