data_image0
_chemical_formula_structural       Li4H32C28N16Cl4O16
_chemical_formula_sum              "Li4 H32 C28 N16 Cl4 O16"
_cell_length_a       9.086490433410935
_cell_length_b       9.087918690680658
_cell_length_c       12.916808287707704
_cell_angle_alpha    90.00103336729673
_cell_angle_beta     89.99939726343645
_cell_angle_gamma    90.03914832523185

_space_group_name_H-M_alt    "P 1"
_space_group_IT_number       1

loop_
  _space_group_symop_operation_xyz
  'x, y, z'

loop_
  _atom_site_type_symbol
  _atom_site_label
  _atom_site_symmetry_multiplicity
  _atom_site_fract_x
  _atom_site_fract_y
  _atom_site_fract_z
  _atom_site_occupancy
  Li  Li1       1.0  0.28952036810036935  0.598440216634991  0.059457807627268315  1.0000
  Li  Li2       1.0  0.7104832191932785  0.401558515406876  0.5594585594888601  1.0000
  Li  Li3       1.0  0.40139673898301714  0.2893965529172249  0.30922766921312234  1.0000
  Li  Li4       1.0  0.5985986987758665  0.7105931918769955  0.8092300595370575  1.0000
  H   H1        1.0  0.6255252004003468  0.5154978709539222  0.17657321101302875  1.0000
  H   H2        1.0  0.3744722282910615  0.4844983676185636  0.6765643300083042  1.0000
  H   H3        1.0  0.4842995508747522  0.6255033387589962  0.42570098669467177  1.0000
  H   H4        1.0  0.5157084473355412  0.3744850028836951  0.9256989621792686  1.0000
  H   H5        1.0  0.3414694470540311  0.8825838334990833  0.1679149984757871  1.0000
  H   H6        1.0  0.6585314132554174  0.11741328418187182  0.6679171838899837  1.0000
  H   H7        1.0  0.11707384295080911  0.3410255481085613  0.41808798011008014  1.0000
  H   H8        1.0  0.8829221690024482  0.6589790992910592  0.9180953615549117  1.0000
  H   H9        1.0  0.5933404860918543  0.9570502635414114  0.2786152621617434  1.0000
  H   H10       1.0  0.4066554174367454  0.04295960139691599  0.7786199121611049  1.0000
  H   H11       1.0  0.04317010484074049  0.5928966009268352  0.5288401155803513  1.0000
  H   H12       1.0  0.9568317449429813  0.40711564825478064  0.028847503594320808  1.0000
  H   H13       1.0  0.8097438931336284  0.6190671866200006  0.3271521807997786  1.0000
  H   H14       1.0  0.19025018154713544  0.38094062428336883  0.8271557356478639  1.0000
  H   H15       1.0  0.381608722001097  0.8094540324489543  0.576686422099691  1.0000
  H   H16       1.0  0.6183913056026356  0.19054514118859342  0.07668195439196523  1.0000
  H   H17       1.0  0.8015726264921313  0.8133434575784763  0.3461341349963761  1.0000
  H   H18       1.0  0.1984233652957954  0.18666594219977384  0.8461305265809361  1.0000
  H   H19       1.0  0.1873051490081394  0.8010372627805894  0.5961106145847453  1.0000
  H   H20       1.0  0.8126945864534109  0.19895910898223693  0.09610559402113243  1.0000
  H   H21       1.0  0.0200579454976335  0.5320083835469162  0.22587333099588855  1.0000
  H   H22       1.0  0.979938747481462  0.46799792513800054  0.7258768063074399  1.0000
  H   H23       1.0  0.46836785588406116  0.020019928340815302  0.4751513828051231  1.0000
  H   H24       1.0  0.5316306009971542  0.9799806847126717  0.9751398690188611  1.0000
  H   H25       1.0  0.8684247870973749  0.9610621585110619  0.15721973281947754  1.0000
  H   H26       1.0  0.13157403543102927  0.0389434863652625  0.6572162971017051  1.0000
  H   H27       1.0  0.038418500935137004  0.8687343793688171  0.40818358799133864  1.0000
  H   H28       1.0  0.961587560189443  0.13125791270609002  0.9081775192795689  1.0000
  H   H29       1.0  0.10773844434193339  0.8942651014649102  0.030816276455240706  1.0000
  H   H30       1.0  0.8922633713873863  0.10573399404916732  0.5308150413325167  1.0000
  H   H31       1.0  0.1047803575461543  0.10784627719461072  0.28138714600162734  1.0000
  H   H32       1.0  0.8952298047570294  0.8921438571551976  0.7813764836580008  1.0000
  C   C1        1.0  0.5795138006856106  0.6245633796374152  0.18728879189031744  1.0000
  C   C2        1.0  0.4204812667227458  0.37543423402260595  0.6872859334626613  1.0000
  C   C3        1.0  0.37523171066063543  0.579416072139601  0.4366209777661539  1.0000
  C   C4        1.0  0.6247728230569223  0.42057474980982323  0.9366233767921062  1.0000
  C   C5        1.0  0.4377128152124143  0.8167415604655304  0.18537829353626736  1.0000
  C   C6        1.0  0.5622855823755231  0.18325600530543806  0.6853820220129947  1.0000
  C   C7        1.0  0.1829802680181345  0.43740918517696764  0.4352977063880986  1.0000
  C   C8        1.0  0.8170198871356505  0.5625926048958051  0.9353012579053228  1.0000
  C   C9        1.0  0.560136117423383  0.8560009961409348  0.24099012570284378  1.0000
  C   C10       1.0  0.4398636491857815  0.14400130071672385  0.740991938160761  1.0000
  C   C11       1.0  0.1440187272841627  0.559851479092231  0.49091066006779743  1.0000
  C   C12       1.0  0.8559794929833089  0.44014843884612287  0.9909162459908675  1.0000
  C   C13       1.0  0.7947382730667343  0.7250231265263168  0.2885659746341319  1.0000
  C   C14       1.0  0.205255279962131  0.274985892987445  0.7885665299217239  1.0000
  C   C15       1.0  0.2753835549557593  0.7944699363588228  0.538325849433889  1.0000
  C   C16       1.0  0.7246148459113327  0.20552715029641183  0.03832388433468031  1.0000
  C   C17       1.0  0.014110932930137196  0.6382788260458838  0.1877399916641309  1.0000
  C   C18       1.0  0.9858863313831847  0.3617265025608276  0.6877420786199764  1.0000
  C   C19       1.0  0.3618078788750552  0.013987170135194996  0.4373513779814645  1.0000
  C   C20       1.0  0.6381955453595296  0.9860091718231203  0.9373383801230093  1.0000
  C   C21       1.0  0.9353666465678926  0.8631626188736662  0.15025197524179396  1.0000
  C   C22       1.0  0.06463007850657479  0.1368406454911621  0.6502518203304748  1.0000
  C   C23       1.0  0.1365012195450888  0.935446423701542  0.40063147292001855  1.0000
  C   C24       1.0  0.8635093557523136  0.064542374673195  0.9006237354194301  1.0000
  C   C25       1.0  0.05397394203998121  0.8277129983033832  0.08933979922770162  1.0000
  C   C26       1.0  0.9460291971719031  0.1722854013798312  0.5893413319726835  1.0000
  C   C27       1.0  0.1717544126622528  0.0540699031449492  0.3396370168785978  1.0000
  C   C28       1.0  0.8282548776748159  0.9459239290072219  0.8396267548368856  1.0000
  N   N1        1.0  0.4509790618259045  0.6722340204971361  0.15216479140788414  1.0000
  N   N2        1.0  0.5490154324007861  0.3277659911755535  0.6521634783489392  1.0000
  N   N3        1.0  0.3273631790709146  0.4508010631991368  0.401729368475259  1.0000
  N   N4        1.0  0.6726363750986835  0.5491899604941608  0.9017322673402077  1.0000
  N   N5        1.0  0.6493714845175376  0.7324300302423766  0.24234925800446666  1.0000
  N   N6        1.0  0.35062385997083106  0.26757340039336  0.742350195443578  1.0000
  N   N7        1.0  0.26762943636725106  0.6492420115613414  0.491892436202953  1.0000
  N   N8        1.0  0.7323709684061938  0.35075243050803107  0.9918947063851961  1.0000
  N   N9        1.0  0.9109158726317259  0.7415760644997677  0.21230145469740347  1.0000
  N   N10       1.0  0.08908102370185131  0.25842989534679367  0.712302657655542  1.0000
  N   N11       1.0  0.25842394260159546  0.9109001740798349  0.4623032239672825  1.0000
  N   N12       1.0  0.7415791077783213  0.0890968091962776  0.9622928256720019  1.0000
  N   N13       1.0  0.1024813812101399  0.6872807711930521  0.11356607922878233  1.0000
  N   N14       1.0  0.8975191943385283  0.31271935074469337  0.613568198163513  1.0000
  N   N15       1.0  0.3124686552361595  0.10243627137836601  0.3633725435160501  1.0000
  N   N16       1.0  0.6875347768043982  0.8975581689334861  0.8633634819252978  1.0000
  Cl  Cl1       1.0  0.2532831054621525  0.270573076434836  0.08304373771894552  1.0000
  Cl  Cl2       1.0  0.7467091257936289  0.7294339604725125  0.58303753172315  1.0000
  Cl  Cl3       1.0  0.7294504698843197  0.25349406949185055  0.3330378418612058  1.0000
  Cl  Cl4       1.0  0.2705556184000386  0.7465017927721648  0.8330369131950236  1.0000
  O   O1        1.0  0.2698563954624191  0.39229981971141825  0.007977914793379203  1.0000
  O   O2        1.0  0.730147963896556  0.6076997899282829  0.5079749360720883  1.0000
  O   O3        1.0  0.6076987232385206  0.26923400739463693  0.25791689161295756  1.0000
  O   O4        1.0  0.39230298901745897  0.7307632233378387  0.7579109946689755  1.0000
  O   O5        1.0  0.3639536014226579  0.15942453138887913  0.062163629494023105  1.0000
  O   O6        1.0  0.6360389408317532  0.8405764669897025  0.5621511301012704  1.0000
  O   O7        1.0  0.840357544167425  0.3644800851787052  0.311935398440319  1.0000
  O   O8        1.0  0.15964005864623937  0.635522934234132  0.8119323355858372  1.0000
  O   O9        1.0  0.1066761208542317  0.20823468074527804  0.07344244107812872  1.0000
  O   O10       1.0  0.8933162553750265  0.7917754104929388  0.5734367163370352  1.0000
  O   O11       1.0  0.7921750448047505  0.10712871491364241  0.3237766571116155  1.0000
  O   O12       1.0  0.2078344848562423  0.8928702117329338  0.8237904299044987  1.0000
  O   O13       1.0  0.27249693477662623  0.3328449582596776  0.18680111669616653  1.0000
  O   O14       1.0  0.7274893432008369  0.667174647060847  0.6867950389123721  1.0000
  O   O15       1.0  0.6670681260999843  0.2729890135393375  0.4367263487685023  1.0000
  O   O16       1.0  0.3329408056067464  0.7269941099852915  0.9367208422105764  1.0000
