data_image0
_chemical_formula_structural       Ag2H44C48S2N10O6
_chemical_formula_sum              "Ag2 H44 C48 S2 N10 O6"
_cell_length_a       8.133244582607482
_cell_length_b       11.454377571442146
_cell_length_c       13.072368073012633
_cell_angle_alpha    76.41870557760414
_cell_angle_beta     82.5153127335172
_cell_angle_gamma    71.44730884111999

_space_group_name_H-M_alt    "P 1"
_space_group_IT_number       1

loop_
  _space_group_symop_operation_xyz
  'x, y, z'

loop_
  _atom_site_type_symbol
  _atom_site_label
  _atom_site_symmetry_multiplicity
  _atom_site_fract_x
  _atom_site_fract_y
  _atom_site_fract_z
  _atom_site_occupancy
  Ag  Ag1       1.0  0.7581790709768869  0.07362835405908903  0.4563672374863045  1.0000
  Ag  Ag2       1.0  0.24182130578198993  0.926371287447694  0.5436338067391518  1.0000
  H   H1        1.0  0.4891039483385243  0.12098133850983572  0.8900265741249527  1.0000
  H   H2        1.0  0.5108968976077293  0.8790201888832385  0.10997328918185897  1.0000
  H   H3        1.0  0.6683479709738761  0.26134230809574893  0.8477514079840772  1.0000
  H   H4        1.0  0.3316516457351497  0.7386592019975425  0.15225085414363088  1.0000
  H   H5        1.0  0.23105822302221674  0.5701354993509469  0.9137077902401671  1.0000
  H   H6        1.0  0.7689400592990057  0.4298632000408348  0.08629437865148758  1.0000
  H   H7        1.0  0.04287785292133613  0.4317706113340309  0.9508387471400326  1.0000
  H   H8        1.0  0.9571184161306191  0.568229979511223  0.04916244243808879  1.0000
  H   H9        1.0  0.8570151944628462  0.5482303636087025  0.8209380966691812  1.0000
  H   H10       1.0  0.14298269184532592  0.4517692968541668  0.17906161714914498  1.0000
  H   H11       1.0  0.03209718887460164  0.6998013840992031  0.7814364993528004  1.0000
  H   H12       1.0  0.9678996185420273  0.3002039462841922  0.2185591073085931  1.0000
  H   H13       1.0  0.5629627943019315  0.009055955466848798  0.7761707709013947  1.0000
  H   H14       1.0  0.43702820298613426  0.9909484277633995  0.22382779484608756  1.0000
  H   H15       1.0  0.3860791923830292  0.8558415549021066  0.815602596325263  1.0000
  H   H16       1.0  0.6139117517158537  0.1441599478984799  0.18440343544477136  1.0000
  H   H17       1.0  0.6438208658118751  0.8613417950598149  0.6095704024885791  1.0000
  H   H18       1.0  0.356184273553218  0.13865223512024022  0.39042678642501016  1.0000
  H   H19       1.0  0.6563139001693727  0.6405716580511865  0.6216062126783157  1.0000
  H   H20       1.0  0.34370081697657895  0.3594232372922194  0.37839614080878176  1.0000
  H   H21       1.0  0.8208431218689117  0.6869237091232137  0.28998569233711174  1.0000
  H   H22       1.0  0.17915763491489398  0.31307499809030764  0.7100147429372115  1.0000
  H   H23       1.0  0.804870728020447  0.9060292991079423  0.2924289598825921  1.0000
  H   H24       1.0  0.19512391578122396  0.0939722355086161  0.70757217344309  1.0000
  H   H25       1.0  0.6762989813037947  0.3312359828119967  0.3037396290416083  1.0000
  H   H26       1.0  0.3237079656335099  0.6687627372614033  0.6962572381954999  1.0000
  H   H27       1.0  0.6767023807505129  0.5488800195065622  0.295625604643952  1.0000
  H   H28       1.0  0.32331278959469495  0.4511167885009684  0.7043725039000533  1.0000
  H   H29       1.0  0.7978669862955954  0.43643358491423356  0.6238423622055579  1.0000
  H   H30       1.0  0.2021411167046097  0.56356230550157  0.37615574220262715  1.0000
  H   H31       1.0  0.7907211345846149  0.22305167564316264  0.6193379657043961  1.0000
  H   H32       1.0  0.20928372191205838  0.7769460956207865  0.3806607922050346  1.0000
  H   H33       1.0  0.8926249822498918  0.1740032321449902  0.9447541725115727  1.0000
  H   H34       1.0  0.10737539450899199  0.8259964093617855  0.05524687171387647  1.0000
  H   H35       1.0  0.8969447612214552  0.33163226850288663  0.9143233332249281  1.0000
  H   H36       1.0  0.1030539822930834  0.6683683301641069  0.08567612273586174  1.0000
  H   H37       1.0  0.9291431839405887  0.24077959353763131  0.04615667374455509  1.0000
  H   H38       1.0  0.07085479552706178  0.7592228804103345  0.9538432341123694  1.0000
  H   H39       1.0  0.1101025984914017  0.019586300476959195  0.9263933728055136  1.0000
  H   H40       1.0  0.8898932825415643  0.9804152380504693  0.07360689371149921  1.0000
  H   H41       1.0  0.2621063151276672  0.006871337775571402  0.018939133989178503  1.0000
  H   H42       1.0  0.7378969121216911  0.9931273839541394  0.9810588016616959  1.0000
  H   H43       1.0  0.3172203750275814  0.03470827249020661  0.8806228586424112  1.0000
  H   H44       1.0  0.6827751019982813  0.9652942404972222  0.11937342078904585  1.0000
  C   C1        1.0  0.2469349695105053  0.2653478334079296  0.9190810740563861  1.0000
  C   C2        1.0  0.7530646471985137  0.7346536766853619  0.08092118807132208  1.0000
  C   C3        1.0  0.42836752559018976  0.21933804587675354  0.8933828733993322  1.0000
  C   C4        1.0  0.5716296046651622  0.780663476478175  0.10661882432736283  1.0000
  C   C5        1.0  0.5316206793058101  0.29844823230488526  0.8713966316508602  1.0000
  C   C6        1.0  0.46838055865646305  0.7015523407115652  0.12860492072316992  1.0000
  C   C7        1.0  0.46232850879175674  0.4266245629891827  0.8763305377294017  1.0000
  C   C8        1.0  0.5376693935045368  0.5733750706958533  0.12367224011338605  1.0000
  C   C9        1.0  0.28360576628654155  0.47221102107594964  0.906284035444763  1.0000
  C   C10       1.0  0.716392993216118  0.5277895508132178  0.0937184845404815  1.0000
  C   C11       1.0  0.17898146811735674  0.3946248783116035  0.9264813124283932  1.0000
  C   C12       1.0  0.8210155769725703  0.6053738171693085  0.07352172327193068  1.0000
  C   C13       1.0  0.6110866681482322  0.693740067126278  0.8219886051982428  1.0000
  C   C14       1.0  0.3889141006266641  0.3062586200038666  0.178014128094425  1.0000
  C   C15       1.0  0.793856915562124  0.6490650114555693  0.8116276154466461  1.0000
  C   C16       1.0  0.2061366653361248  0.35094216630368896  0.1883724747465578  1.0000
  C   C17       1.0  0.8908466718232405  0.7330331126132638  0.789894647938368  1.0000
  C   C18       1.0  0.10914672675308174  0.26696843148133814  0.210105820183756  1.0000
  C   C19       1.0  0.8070091523249446  0.8624260639713912  0.778624674117708  1.0000
  C   C20       1.0  0.19298020772174598  0.1375792831135314  0.22137153735899767  1.0000
  C   C21       1.0  0.6255898930681884  0.9078200177890566  0.7879885880991607  1.0000
  C   C22       1.0  0.3744042615609616  0.09217966441348582  0.21200989611459417  1.0000
  C   C23       1.0  0.5277978248474683  0.8239302430647938  0.809620686388712  1.0000
  C   C24       1.0  0.4721969161107111  0.1760740983424114  0.19038140698168599  1.0000
  C   C25       1.0  0.6827435589147158  0.8195110208143818  0.5403248318622075  1.0000
  C   C26       1.0  0.31726131357007864  0.18048672367174853  0.4596769900716779  1.0000
  C   C27       1.0  0.6916429328686748  0.6947578797100818  0.5466147255302899  1.0000
  C   C28       1.0  0.3083682503012568  0.30523046941508625  0.45338616733003073  1.0000
  C   C29       1.0  0.7386664107714297  0.6428381139394689  0.4563739288217192  1.0000
  C   C30       1.0  0.2613405521539888  0.357160579356112  0.5436260024398507  1.0000
  C   C31       1.0  0.7802007889924811  0.721035056455456  0.3630853439505016  1.0000
  C   C32       1.0  0.21979988662294406  0.27896081718959215  0.6369171953035746  1.0000
  C   C33       1.0  0.7708984101223706  0.8442608948177794  0.36343082271273625  1.0000
  C   C34       1.0  0.22909948417986212  0.1557387522561697  0.6365704231178242  1.0000
  C   C35       1.0  0.7035932201954794  0.3578543435525532  0.3732363002108555  1.0000
  C   C36       1.0  0.29641249750458337  0.6421443592210708  0.6267629658471491  1.0000
  C   C37       1.0  0.7058114367159547  0.4797508180871973  0.36887796206244156  1.0000
  C   C38       1.0  0.29419666628425045  0.5202450723286064  0.6311201423457433  1.0000
  C   C39       1.0  0.739767982231811  0.5128701567407745  0.45891561591698593  1.0000
  C   C40       1.0  0.2602401247654242  0.48712572698057255  0.5410832544973161  1.0000
  C   C41       1.0  0.7702630718793204  0.41824762034433877  0.5506721559710995  1.0000
  C   C42       1.0  0.2297462843402941  0.5817482472045015  0.44932814565287765  1.0000
  C   C43       1.0  0.766042992107444  0.29809126277048403  0.549126462651138  1.0000
  C   C44       1.0  0.23395983912887186  0.7019084200303143  0.4508690179264078  1.0000
  C   C45       1.0  0.9557584534653715  0.23795311153743634  0.9618381922681819  1.0000
  C   C46       1.0  0.0442402940461975  0.7620474804351005  0.03816202969872511  1.0000
  C   C47       1.0  0.21199591514201901  0.05599988188478732  0.9410423416304354  1.0000
  C   C48       1.0  0.7880028283725197  0.9440007167822062  0.05895711433035429  1.0000
  S   S1        1.0  0.9318235611242472  0.969782207212255  0.7419844225557382  1.0000
  S   S2        1.0  0.0681763064769569  0.030215615352794607  0.2580101425272119  1.0000
  N   N1        1.0  0.5744607448477906  0.5000538590745125  0.8506158077934671  1.0000
  N   N2        1.0  0.42553840267385123  0.49994576513248035  0.14938763525287868  1.0000
  N   N3        1.0  0.499705358103377  0.6182296808854916  0.8440608632358035  1.0000
  N   N4        1.0  0.500292168165018  0.3817708803983495  0.15594328956422734  1.0000
  N   N5        1.0  0.14091821094234552  0.19089420625055453  0.934279686462922  1.0000
  N   N6        1.0  0.8590805405662538  0.8091063790275257  0.06572130151009502  1.0000
  N   N7        1.0  0.7212675747847757  0.8943706020582597  0.450326383573099  1.0000
  N   N8        1.0  0.27873394204888774  0.10562623656873883  0.5496728337989722  1.0000
  N   N9        1.0  0.7326659632726804  0.26756166594896064  0.4619592836008621  1.0000
  N   N10       1.0  0.26733726797370855  0.7324370490862934  0.5380394180561366  1.0000
  O   O1        1.0  0.9321353521041119  0.003579286472287899  0.6251117909342554  1.0000
  O   O2        1.0  0.06786413547216343  0.9964194703860091  0.3748833830998207  1.0000
  O   O3        1.0  0.8415969818972897  0.07800587903805223  0.7907334689688383  1.0000
  O   O4        1.0  0.15839330853010136  0.9220032532083806  0.20925884865835087  1.0000
  O   O5        1.0  0.10661092427854169  0.9001459356997616  0.7780974890036632  1.0000
  O   O6        1.0  0.8933772145249818  0.09985938069646494  0.2219026533061665  1.0000
