data_image0
_chemical_formula_structural       Mn2H30C40N10O14
_chemical_formula_sum              "Mn2 H30 C40 N10 O14"
_cell_length_a       7.357658812143427
_cell_length_b       10.632171774641936
_cell_length_c       13.698392100467395
_cell_angle_alpha    80.18395316083044
_cell_angle_beta     74.42939177729704
_cell_angle_gamma    69.7673923995923

_space_group_name_H-M_alt    "P 1"
_space_group_IT_number       1

loop_
  _space_group_symop_operation_xyz
  'x, y, z'

loop_
  _atom_site_type_symbol
  _atom_site_label
  _atom_site_symmetry_multiplicity
  _atom_site_fract_x
  _atom_site_fract_y
  _atom_site_fract_z
  _atom_site_occupancy
  Mn  Mn1       1.0  0.6007794767297125  0.6517241558777228  0.4200025031082219  1.0000
  Mn  Mn2       1.0  0.3274306421997578  0.1516992586561656  0.920059270795072  1.0000
  H   H1        1.0  0.047857903231879065  0.5689752624873491  0.24425800879845377  1.0000
  H   H2        1.0  0.13777728561189662  0.06917581093906482  0.7444181043764572  1.0000
  H   H3        1.0  0.6727523349795989  0.42470281566016865  0.3146270526558724  1.0000
  H   H4        1.0  0.5877033377356612  0.9247726426752578  0.8146877706466922  1.0000
  H   H5        1.0  0.45477692115088064  0.44882266032531976  0.3832111945056623  1.0000
  H   H6        1.0  0.7132355691312634  0.9489191713013909  0.8831586486913707  1.0000
  H   H7        1.0  0.575875380234791  0.12039937909148077  0.2379512571151992  1.0000
  H   H8        1.0  0.06573242328637  0.6204983346782668  0.7382047087730754  1.0000
  H   H9        1.0  0.5424565956137212  0.9838493107262424  0.09914848268392254  1.0000
  H   H10       1.0  0.3743538178293092  0.4840249457291534  0.5993450501786343  1.0000
  H   H11       1.0  0.5033757147000343  0.6563606939385878  0.6639590441833007  1.0000
  H   H12       1.0  0.17643471489051177  0.1562779644203971  0.16397392723325047  1.0000
  H   H13       1.0  0.967986842418313  0.31161245061672105  0.7538936558336999  1.0000
  H   H14       1.0  0.9668019865337241  0.8113813103378078  0.25377691699449656  1.0000
  H   H15       1.0  0.16341624016988718  0.3212451443766398  0.5748390910225396  1.0000
  H   H16       1.0  0.9410695418474899  0.8209076581365481  0.07471552052175662  1.0000
  H   H17       1.0  0.7390492770802409  0.27296887205953624  0.8670154958800681  1.0000
  H   H18       1.0  0.12067947359683007  0.7728850718304443  0.36711996058581053  1.0000
  H   H19       1.0  0.22181903857858712  0.6885283734439227  0.9957447654140594  1.0000
  H   H20       1.0  0.09449086713085106  0.18842881938294906  0.4956356060564744  1.0000
  H   H21       1.0  0.4272868125792893  0.6979008729967476  0.8216851857982164  1.0000
  H   H22       1.0  0.05401960288437371  0.1976979776983114  0.3215319447417713  1.0000
  H   H23       1.0  0.6204672931367621  0.9359017123294608  0.5364455354598548  1.0000
  H   H24       1.0  0.9072670360793114  0.4360019146191192  0.03669823720424148  1.0000
  H   H25       1.0  0.5894874254102616  0.17524385011464716  0.4111409038141076  1.0000
  H   H26       1.0  0.8243245864395373  0.6753940334467359  0.9114416172827263  1.0000
  H   H27       1.0  0.5201399612293258  0.7906083699623352  0.02244763358252295  1.0000
  H   H28       1.0  0.6665041742036736  0.2907440404570281  0.5226510899342643  1.0000
  H   H29       1.0  0.5328392560020346  0.581297460766713  0.17640107938305497  1.0000
  H   H30       1.0  0.709020687665671  0.0814711541633173  0.6766441842808248  1.0000
  C   C1        1.0  0.040165198279062356  0.49717283943978446  0.4164760799309519  1.0000
  C   C2        1.0  0.04642764530823484  0.9971181536419634  0.9164328312572962  1.0000
  C   C3        1.0  0.9321763571580558  0.4883111876186775  0.5261963061988126  1.0000
  C   C4        1.0  0.05353644357920445  0.988178802424905  0.026143829123306248  1.0000
  C   C5        1.0  0.6488853089936835  0.5796457582993143  0.6486556348034043  1.0000
  C   C6        1.0  0.12289893319188387  0.0795803398539405  0.1486535755894067  1.0000
  C   C7        1.0  0.721417128157725  0.4862704082537447  0.7261852347132276  1.0000
  C   C8        1.0  0.06630041100151367  0.986123233975263  0.22617256670747574  1.0000
  C   C9        1.0  0.9069828222520608  0.38882743990114216  0.6977179418268307  1.0000
  C   C10       1.0  0.0067504983198601745  0.8886152756719384  0.19763856078159847  1.0000
  C   C11       1.0  0.01595333297252209  0.3925815168273203  0.5979282539771873  1.0000
  C   C12       1.0  0.9939041706893048  0.8923454427830536  0.09784003179734661  1.0000
  C   C13       1.0  0.601507114107761  0.4860589389608592  0.8313572031873377  1.0000
  C   C14       1.0  0.08115077927213568  0.9859506918479397  0.33134422184231477  1.0000
  C   C15       1.0  0.6285358280982649  0.3656752326949402  0.8950067892574224  1.0000
  C   C16       1.0  0.11052807718368712  0.8656141038875235  0.3950920137204079  1.0000
  C   C17       1.0  0.5107260429836128  0.360472500419533  0.9929046348505467  1.0000
  C   C18       1.0  0.1354908882152086  0.8604789045350573  0.4930148228974928  1.0000
  C   C19       1.0  0.5455131097462242  0.22872974641706637  0.05728915160906206  1.0000
  C   C20       1.0  0.1682385401304385  0.7287261679776408  0.5573858793942108  1.0000
  C   C21       1.0  0.36231502516575625  0.4774785500966913  0.030086487995497197  1.0000
  C   C22       1.0  0.1297692800113878  0.9775145137855291  0.5301929795823311  1.0000
  C   C23       1.0  0.21835842372674097  0.4681095949757363  0.12922760601504987  1.0000
  C   C24       1.0  0.18363137176631  0.9683756065442212  0.6293579949341109  1.0000
  C   C25       1.0  0.33827121082227735  0.5983131893657827  0.9677257702141445  1.0000
  C   C26       1.0  0.0959665663300696  0.09824318791925181  0.46768036399264196  1.0000
  C   C27       1.0  0.454389460557543  0.6029911536234138  0.8693741450293614  1.0000
  C   C28       1.0  0.0737259487329424  0.10285395342416588  0.36928883594644196  1.0000
  C   C29       1.0  0.6030699976592685  0.9592651677571523  0.45865433936637595  1.0000
  C   C30       1.0  0.9789950843783474  0.459335158977062  0.9588911107689951  1.0000
  C   C31       1.0  0.5885905446426422  0.0781792808928259  0.39743367679442804  1.0000
  C   C32       1.0  0.9358434627002622  0.5782915714281032  0.8977102801284573  1.0000
  C   C33       1.0  0.5728476386725703  0.9260020084348285  0.3122751244654366  1.0000
  C   C34       1.0  0.1887250828367184  0.42612330487838784  0.812496154256543  1.0000
  C   C35       1.0  0.560173272118696  0.8516982208205234  0.2373271949816526  1.0000
  C   C36       1.0  0.3505681444630466  0.3518751796465125  0.7375255769986351  1.0000
  C   C37       1.0  0.5354475576322597  0.7825653384166671  0.09988502021161587  1.0000
  C   C38       1.0  0.581764566114202  0.282715661846261  0.6000813161590984  1.0000
  C   C39       1.0  0.5429238163132621  0.6804428306939273  0.17720167865056163  1.0000
  C   C40       1.0  0.5990739986972143  0.18060985231537796  0.6774089919973819  1.0000
  N   N1        1.0  0.7476496888456553  0.5772716737879974  0.5510295147658654  1.0000
  N   N2        1.0  0.12404747061203379  0.0772521762146354  0.051043487619232095  1.0000
  N   N3        1.0  0.592715338781069  0.86467194362411  0.40509419752840614  1.0000
  N   N4        1.0  0.13736465731749758  0.3647303382973064  0.9052943974465962  1.0000
  N   N5        1.0  0.5700752585733397  0.0552106030597983  0.305312284863703  1.0000
  N   N6        1.0  0.06933983950982972  0.5553403216132722  0.8055738470114449  1.0000
  N   N7        1.0  0.5473516878657205  0.8896801246922906  0.13908079218988684  1.0000
  N   N8        1.0  0.42368102881334097  0.38986464175239627  0.6392892417910546  1.0000
  N   N9        1.0  0.5591220047157176  0.7239479299777329  0.26259173756093185  1.0000
  N   N10       1.0  0.4540094440291043  0.2241095706642895  0.7627809268194738  1.0000
  O   O1        1.0  0.9279196768796889  0.5644559337673201  0.3541481038506333  1.0000
  O   O2        1.0  0.15418522471040316  0.06410513416734892  0.8541063433404616  1.0000
  O   O3        1.0  0.22406924798342223  0.44184416847575386  0.3918554658802123  1.0000
  O   O4        1.0  0.9421423239993838  0.9421065132799028  0.8917414294906791  1.0000
  O   O5        1.0  0.6162639546844842  0.21626662982688322  0.13332975823321647  1.0000
  O   O6        1.0  0.034121026689376534  0.7161389160337353  0.6334838758297892  1.0000
  O   O7        1.0  0.5075882946676059  0.13407100479282258  0.026231468477441  1.0000
  O   O8        1.0  0.33199013582714043  0.634199348552862  0.5262875644421214  1.0000
  O   O9        1.0  0.17900622003115516  0.36339884776542414  0.1652110149984694  1.0000
  O   O10       1.0  0.2925896274765658  0.8639997884741889  0.6652211691529856  1.0000
  O   O11       1.0  0.13388365681291245  0.5836635351199035  0.17234762405325907  1.0000
  O   O12       1.0  0.10814503235567226  0.08379861383531309  0.6727031259427179  1.0000
  O   O13       1.0  0.5915975873016773  0.4482807474738946  0.38180565427326474  1.0000
  O   O14       1.0  0.5783539053910401  0.9482939251647692  0.8818501862217119  1.0000
