data_image0
_chemical_formula_structural       Ag16H32C24S8I8N24
_chemical_formula_sum              "Ag16 H32 C24 S8 I8 N24"
_cell_length_a       7.789857351011965
_cell_length_b       10.159388872023968
_cell_length_c       19.76307309907569
_cell_angle_alpha    90.00025062721289
_cell_angle_beta     90.0001953734159
_cell_angle_gamma    89.99997927992166

_space_group_name_H-M_alt    "P 1"
_space_group_IT_number       1

loop_
  _space_group_symop_operation_xyz
  'x, y, z'

loop_
  _atom_site_type_symbol
  _atom_site_label
  _atom_site_symmetry_multiplicity
  _atom_site_fract_x
  _atom_site_fract_y
  _atom_site_fract_z
  _atom_site_occupancy
  Ag  Ag1       1.0  0.9212007247882638  0.5698472240821887  0.7066180938399353  1.0000
  Ag  Ag2       1.0  0.07880697727388508  0.930156235704949  0.20661723541631719  1.0000
  Ag  Ag3       1.0  0.4211932519969395  0.4301542249027862  0.79338193514846  1.0000
  Ag  Ag4       1.0  0.5788077154195221  0.06984593245664432  0.2933829858699965  1.0000
  Ag  Ag5       1.0  0.078810028555381  0.4301570452703132  0.29338253729874697  1.0000
  Ag  Ag6       1.0  0.9211947900199106  0.0698460650199308  0.7933818777314483  1.0000
  Ag  Ag7       1.0  0.5788059478564449  0.5698451228889282  0.20661717799426768  1.0000
  Ag  Ag8       1.0  0.4211914844376778  0.9301553839617684  0.7066171392632794  1.0000
  Ag  Ag9       1.0  0.6059753929632449  0.1950676980862269  0.674705925129551  1.0000
  Ag  Ag10      1.0  0.3940168684671974  0.3049265175542573  0.17470623315048064  1.0000
  Ag  Ag11      1.0  0.1059821356646253  0.8049259645227882  0.8252931646897321  1.0000
  Ag  Ag12      1.0  0.8940214351809885  0.695070640939818  0.32529492728188086  1.0000
  Ag  Ag13      1.0  0.39402123945422574  0.8049277124654994  0.3252941999953903  1.0000
  Ag  Ag14      1.0  0.6059823313857251  0.6950747988598068  0.8252928799944284  1.0000
  Ag  Ag15      1.0  0.8940196316317781  0.19507436758191685  0.17470645445003186  1.0000
  Ag  Ag16      1.0  0.10598546700970958  0.30492378530799874  0.6747072218257484  1.0000
  H   H1        1.0  0.7723370998902866  0.9904229883783628  0.535506407172768  1.0000
  H   H2        1.0  0.22765760157240325  0.5095730946368064  0.03550582922446209  1.0000
  H   H3        1.0  0.27234154071673794  0.009574564969007299  0.9644924052658435  1.0000
  H   H4        1.0  0.7276621575258774  0.49042509466355727  0.46449307862490474  1.0000
  H   H5        1.0  0.22766081624941847  0.0095743907977095  0.4644942239494298  1.0000
  H   H6        1.0  0.7723377471212203  0.49042723746880057  0.9644937899108893  1.0000
  H   H7        1.0  0.7276589428569623  0.9904257671337008  0.035506707878859296  1.0000
  H   H8        1.0  0.2723421772120886  0.5095732688184356  0.5355065405144328  1.0000
  H   H9        1.0  0.9511862106656608  0.7969229666952344  0.49627557383171694  1.0000
  H   H10       1.0  0.0488098201566487  0.7030741242504844  0.9962765419561205  1.0000
  H   H11       1.0  0.45118923162083047  0.20307712874067355  0.0037231351928567985  1.0000
  H   H12       1.0  0.5488131372650713  0.2969274288327385  0.5037234813022164  1.0000
  H   H13       1.0  0.048812989191993894  0.20307638110082854  0.5037245512993704  1.0000
  H   H14       1.0  0.9511868122618169  0.2969262078592863  0.0037240891684788982  1.0000
  H   H15       1.0  0.5488112519569273  0.7969241876775615  0.9962769899413001  1.0000
  H   H16       1.0  0.4511873463105402  0.7030738875833222  0.49627613783775343  1.0000
  H   H17       1.0  0.9833835101521374  0.6762644102851213  0.5615532650642974  1.0000
  H   H18       1.0  0.016611411600862904  0.823731896641938  0.06155461429545988  1.0000
  H   H19       1.0  0.4833863000130166  0.3237340683737173  0.93844482540139  1.0000
  H   H20       1.0  0.5166146104996372  0.17626832028301462  0.4384455215225314  1.0000
  H   H21       1.0  0.016615689705751904  0.32373395319977055  0.4384468600656886  1.0000
  H   H22       1.0  0.9833852208175956  0.17626843546783277  0.9384460168291394  1.0000
  H   H23       1.0  0.5166141835606907  0.6762662637289978  0.06155428774331277  1.0000
  H   H24       1.0  0.48338458935542405  0.8237329961332237  0.5615540976165646  1.0000
  H   H25       1.0  0.15086622418090204  0.789039920307502  0.5404700649772847  1.0000
  H   H26       1.0  0.8491298029841091  0.7109562053794249  0.040470283259430986  1.0000
  H   H27       1.0  0.6508683014418465  0.21095963562050454  0.9595290865333791  1.0000
  H   H28       1.0  0.34913407110181544  0.28904391858934997  0.45952929751062027  1.0000
  H   H29       1.0  0.849134259395406  0.21095844317503062  0.4595295541594026  1.0000
  H   H30       1.0  0.15086682943458374  0.2890431424191746  0.959530347864067  1.0000
  H   H31       1.0  0.349132182133765  0.789041680795556  0.04047053260659079  1.0000
  H   H32       1.0  0.6508676961943535  0.710957397826533  0.5404703216302379  1.0000
  C   C1        1.0  0.9885303259596938  0.8751724768702616  0.6624446818234941  1.0000
  C   C2        1.0  0.0114693002065778  0.6248256816468043  0.16244558128438766  1.0000
  C   C3        1.0  0.4885323556176999  0.12482600035429671  0.8375544277026774  1.0000
  C   C4        1.0  0.5114689853684026  0.3751735524048883  0.33755454746391667  1.0000
  C   C5        1.0  0.011472725057025502  0.1248288395454438  0.3375549373182451  1.0000
  C   C6        1.0  0.9885311833756845  0.375174650464608  0.837555555837042  1.0000
  C   C7        1.0  0.5114694116810697  0.875173347441411  0.16244569743017215  1.0000
  C   C8        1.0  0.4885289307663285  0.6248267797003565  0.6624450716731969  1.0000
  C   C9        1.0  0.8323230039424417  0.9701916567109806  0.5840423997684424  1.0000
  C   C10       1.0  0.16767467544160303  0.5298048435323964  0.08404279640782868  1.0000
  C   C11       1.0  0.3323244573943711  0.0298058798749636  0.9159580130820043  1.0000
  C   C12       1.0  0.6676724117692813  0.4701943468454601  0.4159555230165067  1.0000
  C   C13       1.0  0.16767362846815095  0.029805722456572394  0.41595620737614053  1.0000
  C   C14       1.0  0.8323232406888579  0.47019548856849985  0.915955810740925  1.0000
  C   C15       1.0  0.6676734587553385  0.9701944522455079  0.08404514801438268  1.0000
  C   C16       1.0  0.33232165319117973  0.5298050009361004  0.5840410601517829  1.0000
  C   C17       1.0  0.0115145300731427  0.7775087552799321  0.545335596448872  1.0000
  C   C18       1.0  0.98848282196591  0.7224883965482861  0.04533704388013149  1.0000
  C   C19       1.0  0.5115165607884578  0.22249083960006288  0.9546628575734528  1.0000
  C   C20       1.0  0.4884844868811555  0.27751168846850055  0.45466323437826606  1.0000
  C   C21       1.0  0.9884859535027034  0.22249157682495013  0.45466402269001077  1.0000
  C   C22       1.0  0.0115150941731059  0.27751193556131426  0.9546635872453488  1.0000
  C   C23       1.0  0.4884839227892925  0.7775104768181719  0.045337267560704185  1.0000
  C   C24       1.0  0.5115147129741331  0.7224886436365666  0.5453363847597357  1.0000
  S   S1        1.0  0.12655195467911537  0.7654348602201394  0.7003358477360562  1.0000
  S   S2        1.0  0.8734518431037371  0.7345646083310058  0.20033766995894806  1.0000
  S   S3        1.0  0.6265513851681349  0.23456470250501124  0.7996632703606392  1.0000
  S   S4        1.0  0.3734483516465517  0.2654345245352516  0.2996634622100486  1.0000
  S   S5        1.0  0.8734523800600726  0.2345674405087337  0.2996642774018382  1.0000
  S   S6        1.0  0.12655249164661342  0.26543572378638897  0.7996649851476716  1.0000
  S   S7        1.0  0.3734490984098501  0.7654356296020525  0.20033685477242355  1.0000
  S   S8        1.0  0.6265482807673949  0.7345667918813419  0.7003361569272781  1.0000
  I   I1        1.0  0.8113318228208826  0.3958638909351891  0.6036844403471376  1.0000
  I   I2        1.0  0.18865983793701696  0.10413069846905641  0.10367693534777797  1.0000
  I   I3        1.0  0.311340543833694  0.604134635846151  0.8963199916172254  1.0000
  I   I4        1.0  0.6886687625800503  0.8958684860454227  0.39632242490997516  1.0000
  I   I5        1.0  0.18866866079058298  0.6041305353374397  0.3963232746920794  1.0000
  I   I6        1.0  0.8113419293512862  0.8958676650046017  0.8963206598130709  1.0000
  I   I7        1.0  0.688658656021367  0.3958666805700873  0.10367962752187047  1.0000
  I   I8        1.0  0.311331720994346  0.10412889312376451  0.6036766882314379  1.0000
  N   N1        1.0  0.8057337594019032  0.03444959593552  0.6409044603164273  1.0000
  N   N2        1.0  0.19426335104402886  0.46554826638347885  0.14090434532906926  1.0000
  N   N3        1.0  0.3057368616664959  0.9655479480742104  0.8590938920200626  1.0000
  N   N4        1.0  0.6942631438740108  0.534451900879226  0.35909552861791366  1.0000
  N   N5        1.0  0.19426415673757452  0.9655487675517236  0.35909617080686457  1.0000
  N   N6        1.0  0.8057358488112669  0.534452065721588  0.8590952738089324  1.0000
  N   N7        1.0  0.6942636219074387  0.0344513997173266  0.14090522112354617  1.0000
  N   N8        1.0  0.3057373397065746  0.46554646260765503  0.6409051025071404  1.0000
  N   N9        1.0  0.9036354121599501  0.9757140887901059  0.6902182500167695  1.0000
  N   N10       1.0  0.09636316516861848  0.5242833241600664  0.19021853637067915  1.0000
  N   N11       1.0  0.40363853768488417  0.024284412165691494  0.8097807428493763  1.0000
  N   N12       1.0  0.5963625684162396  0.4757158861583904  0.30978120304258977  1.0000
  N   N13       1.0  0.09636507141613039  0.024285259003605102  0.30978136912101917  1.0000
  N   N14       1.0  0.903638602130151  0.4757160236356412  0.8097815887621703  1.0000
  N   N15       1.0  0.5963632296134236  0.9757169042523656  0.19021938228566165  1.0000
  N   N16       1.0  0.4036379151596067  0.5242844459464991  0.690218416096293  1.0000
  N   N17       1.0  0.9460453090778388  0.8704297806287827  0.5947547697076628  1.0000
  N   N18       1.0  0.053949893458884894  0.6295687803209233  0.09475472611526917  1.0000
  N   N19       1.0  0.4460504764238422  0.12956969278488367  0.9052447874339433  1.0000
  N   N20       1.0  0.55395400446843  0.37043241047318526  0.40524444902582946  1.0000
  N   N21       1.0  0.053956458220930904  0.12956956716692503  0.40524535542518686  1.0000
  N   N22       1.0  0.9460467389572075  0.37043253609785154  0.9052453990162446  1.0000
  N   N23       1.0  0.553953858317719  0.8704316236349849  0.09475584369704387  1.0000
  N   N24       1.0  0.4460477628253657  0.6295698902516946  0.594754664121943  1.0000
