data_image0
_chemical_formula_structural       Zn4H48C64N8O16
_chemical_formula_sum              "Zn4 H48 C64 N8 O16"
_cell_length_a       11.048411669755511
_cell_length_b       12.386398019237758
_cell_length_c       21.309987074787017
_cell_angle_alpha    92.10123552129114
_cell_angle_beta     105.27444786550586
_cell_angle_gamma    116.44214854741995

_space_group_name_H-M_alt    "P 1"
_space_group_IT_number       1

loop_
  _space_group_symop_operation_xyz
  'x, y, z'

loop_
  _atom_site_type_symbol
  _atom_site_label
  _atom_site_symmetry_multiplicity
  _atom_site_fract_x
  _atom_site_fract_y
  _atom_site_fract_z
  _atom_site_occupancy
  Zn  Zn1       1.0  0.35606674905293517  0.8672466767476408  0.7265794952956524  1.0000
  Zn  Zn2       1.0  0.26281319489618926  0.6328224470428764  0.7736243680542428  1.0000
  Zn  Zn3       1.0  0.6439385232683036  0.13275236686571648  0.27342126047794574  1.0000
  Zn  Zn4       1.0  0.7371890427999829  0.3671765965704807  0.22637522549434413  1.0000
  H   H1        1.0  0.12911843312005536  0.727824253015072  0.5211487230174896  1.0000
  H   H2        1.0  0.38033866005009276  0.7721981373092888  0.9787338193265214  1.0000
  H   H3        1.0  0.870882939546604  0.2721793723106599  0.47885074355595947  1.0000
  H   H4        1.0  0.6196635137578639  0.2277990736191242  0.021266538552147617  1.0000
  H   H5        1.0  0.03233813393993055  0.39004942105923845  0.5933750552922773  1.0000
  H   H6        1.0  0.5490558640597172  0.11024882839390668  0.906922571855702  1.0000
  H   H7        1.0  0.9676640506017548  0.6099542042664936  0.4066242869561592  1.0000
  H   H8        1.0  0.4509416833172395  0.8897492988769784  0.09307649028292529  1.0000
  H   H9        1.0  0.9976550470296102  0.9268300134221548  0.7215104582546701  1.0000
  H   H10       1.0  0.8498366323676618  0.5728569955567906  0.7784400428716367  1.0000
  H   H11       1.0  0.0023539344705341453  0.0731736119035773  0.2784938085521773  1.0000
  H   H12       1.0  0.15016564893824122  0.4271457134264622  0.22156074645020135  1.0000
  H   H13       1.0  0.7687873111824997  0.9255132292872899  0.7196989671200454  1.0000
  H   H14       1.0  0.6243120696868585  0.5744358536391658  0.7803567258615516  1.0000
  H   H15       1.0  0.23122006591417932  0.0744922287233862  0.28030099466499075  1.0000
  H   H16       1.0  0.3756875707999042  0.42556593900161477  0.21963996435022887  1.0000
  H   H17       1.0  0.3286179749353834  0.0746645011084652  0.8014949764053795  1.0000
  H   H18       1.0  0.951530786635942  0.42482736696772605  0.6979653251001707  1.0000
  H   H19       1.0  0.671380204317586  0.9253308771350035  0.1985078323367588  1.0000
  H   H20       1.0  0.04846444215865375  0.5751680112757427  0.3020335969835557  1.0000
  H   H21       1.0  0.315691559560939  0.268611134717645  0.8236007702327512  1.0000
  H   H22       1.0  0.7224369016192111  0.2310090213048781  0.6757936441599026  1.0000
  H   H23       1.0  0.6843089063302941  0.7313860762107679  0.1764025607293291  1.0000
  H   H24       1.0  0.27755770789690354  0.7689881896235349  0.32420570282712186  1.0000
  H   H25       1.0  0.36793493028043406  0.4219225613257507  0.7495420417271887  1.0000
  H   H26       1.0  0.6961016663143411  0.0780943709879338  0.7501511974265753  1.0000
  H   H27       1.0  0.6320603749999024  0.5780737332601902  0.250460287533258  1.0000
  H   H28       1.0  0.3038939157292262  0.9219037562829513  0.24984870797875658  1.0000
  H   H29       1.0  0.4342405351262427  0.38757621272242904  0.6508399614656994  1.0000
  H   H30       1.0  0.8964221426951082  0.1128677351840537  0.8492773163457129  1.0000
  H   H31       1.0  0.5657504533623268  0.6124200818635117  0.34916085960306725  1.0000
  H   H32       1.0  0.10357178365430998  0.8871294757443593  0.1507232198746706  1.0000
  H   H33       1.0  0.5515604362102521  0.0289252665282689  0.5713726930015496  1.0000
  H   H34       1.0  0.45305651389978835  0.4716442202971223  0.929311336548224  1.0000
  H   H35       1.0  0.44843806248377394  0.9710792751399352  0.42862629409020053  1.0000
  H   H36       1.0  0.5469390681437786  0.5283539069737628  0.07068856885710059  1.0000
  H   H37       1.0  0.3700606145763884  0.9137235670192538  0.551096804979835  1.0000
  H   H38       1.0  0.40643310088186974  0.5865535665128192  0.9491533011853902  1.0000
  H   H39       1.0  0.6299391343402263  0.0862800583064711  0.4489029102436248  1.0000
  H   H40       1.0  0.5935637952724945  0.4134454771005379  0.05084656802156931  1.0000
  H   H41       1.0  0.49909879864295437  0.9128035591755504  0.6209747295662069  1.0000
  H   H42       1.0  0.46614142902478745  0.5875615432340098  0.8795765594464982  1.0000
  H   H43       1.0  0.5009019111354859  0.0871982334652301  0.37902396613728223  1.0000
  H   H44       1.0  0.5338541530187725  0.4124365840368753  0.1204233459588337  1.0000
  H   H45       1.0  0.47411406926696703  0.20000640638848205  0.5834495475064398  1.0000
  H   H46       1.0  0.19178641082065442  0.3003743138873034  0.9169956276730744  1.0000
  H   H47       1.0  0.5258802103314223  0.7999935535673472  0.41655197203554906  1.0000
  H   H48       1.0  0.8082075794169725  0.6996247297260609  0.08300414421723445  1.0000
  C   C1        1.0  0.18211160449386204  0.6341364821503248  0.6308383910191466  1.0000
  C   C2        1.0  0.41769943869058307  0.8660416863945812  0.8693626247749504  1.0000
  C   C3        1.0  0.8178915633089971  0.3658744739151985  0.36916049401737167  1.0000
  C   C4        1.0  0.5823095621561336  0.1339637716160951  0.1306370883600678  1.0000
  C   C5        1.0  0.08955830818611328  0.5648472459932208  0.5629078722169538  1.0000
  C   C6        1.0  0.462026348554552  0.9352640295510923  0.9371774120024908  1.0000
  C   C7        1.0  0.9104435667163314  0.4351572956749763  0.4370916824831284  1.0000
  C   C8        1.0  0.5379758252534116  0.0647331813773206  0.062822945876178  1.0000
  C   C9        1.0  0.07234666000309166  0.6280107327129087  0.5108819491504661  1.0000
  C   C10       1.0  0.4336561229826331  0.8720070758990843  0.9890694018648105  1.0000
  C   C11       1.0  0.9276550223028082  0.3719919762703512  0.4891173049713373  1.0000
  C   C12       1.0  0.5663437758526939  0.1279910513718008  0.010932011732201399  1.0000
  C   C13       1.0  0.016859140300972773  0.4365794591943342  0.551929972391136  1.0000
  C   C14       1.0  0.5284538638427279  0.0635428525038364  0.9482216947763504  1.0000
  C   C15       1.0  0.9831431932275194  0.5634223334464536  0.44806847466233524  1.0000
  C   C16       1.0  0.4715486515485808  0.9364543584245765  0.051778068485639  1.0000
  C   C17       1.0  0.07250596795264383  0.7498228867838107  0.7499340180568481  1.0000
  C   C18       1.0  0.9275043383920262  0.2501880692817053  0.2500691969214017  1.0000
  C   C19       1.0  0.9366549322271069  0.7498522097429756  0.7499599124512313  1.0000
  C   C20       1.0  0.06335138817541974  0.2501523319252286  0.25004221534888416  1.0000
  C   C21       1.0  0.9143614052231326  0.8496483195381329  0.733680713911063  1.0000
  C   C22       1.0  0.831283349061813  0.6500579326327625  0.7662530687914709  1.0000
  C   C23       1.0  0.08564751145689802  0.1503571384725433  0.2663217236573487  1.0000
  C   C24       1.0  0.1687218701049388  0.3499456926929696  0.23374743568197684  1.0000
  C   C25       1.0  0.7877607415815575  0.8490334537382083  0.7329753650282524  1.0000
  C   C26       1.0  0.7061790661053139  0.6508734774344518  0.767081102241491  1.0000
  C   C27       1.0  0.21224431693276088  0.1509692552450446  0.26702445670187547  1.0000
  C   C28       1.0  0.29382395058986777  0.3491283152063289  0.23291615557861428  1.0000
  C   C29       1.0  0.547352598056136  0.7501555191018027  0.7501866205235003  1.0000
  C   C30       1.0  0.4526499474154661  0.24984993890887344  0.24980757343642063  1.0000
  C   C31       1.0  0.683031148158598  0.7499914937989942  0.7500676497192416  1.0000
  C   C32       1.0  0.3169742838831695  0.2500121315267378  0.2499311952291663  1.0000
  C   C33       1.0  0.4175821310484551  0.2110419188005679  0.6716213879432543  1.0000
  C   C34       1.0  0.03539816383896957  0.2890978034046014  0.8284044685742272  1.0000
  C   C35       1.0  0.5824148618701342  0.7889562084703172  0.3283799283370995  1.0000
  C   C36       1.0  0.9645962647462268  0.7109003238662835  0.1715961557727894  1.0000
  C   C37       1.0  0.3898119289033345  0.12380336626649317  0.7140344705836057  1.0000
  C   C38       1.0  0.05202912928304221  0.3760788637035403  0.785813455040973  1.0000
  C   C39       1.0  0.6101844330711401  0.8761938446619197  0.28596569266176175  1.0000
  C   C40       1.0  0.9479703514831993  0.6239183472248725  0.2141851459960051  1.0000
  C   C41       1.0  0.35267748875828886  0.14309237534018138  0.7696708609294943  1.0000
  C   C42       1.0  0.9393843036958384  0.3565955900254068  0.7299544169379215  1.0000
  C   C43       1.0  0.64732393799477  0.8569030029032801  0.23033145051260814  1.0000
  C   C44       1.0  0.06061499613949187  0.6434025372454854  0.27004546145904834  1.0000
  C   C45       1.0  0.3457865805371441  0.2513481588535527  0.7810392266576898  1.0000
  C   C46       1.0  0.8127465263105619  0.248368213128721  0.7185298007888008  1.0000
  C   C47       1.0  0.6542083714942207  0.7486453867049646  0.2189621192811586  1.0000
  C   C48       1.0  0.1872513626497394  0.751629914142164  0.28146866673314713  1.0000
  C   C49       1.0  0.37479028916862916  0.3384419292767689  0.7388905787161375  1.0000
  C   C50       1.0  0.7972095135959592  0.1615594252148611  0.7608655548927742  1.0000
  C   C51       1.0  0.6252064589308332  0.6615552816516441  0.2611127792542973  1.0000
  C   C52       1.0  0.20278421922500903  0.8384396183984961  0.23913208718081336  1.0000
  C   C53       1.0  0.41156520885842696  0.319900655661705  0.6832036690737908  1.0000
  C   C54       1.0  0.9087890051361851  0.1803435295854783  0.816778295019162  1.0000
  C   C55       1.0  0.5884288461993136  0.6800965552667079  0.31679793205495327  1.0000
  C   C56       1.0  0.09120287939410326  0.8196527650004555  0.18321967729120556  1.0000
  C   C57       1.0  0.4405724375313156  0.0512510345601598  0.6349196021072174  1.0000
  C   C58       1.0  0.2552123969368621  0.4488245436718472  0.8652870322526666  1.0000
  C   C59       1.0  0.559422140040688  0.9487452600257811  0.3650801270448411  1.0000
  C   C60       1.0  0.7447812400517931  0.5511717509140936  0.13471175631604376  1.0000
  C   C61       1.0  0.467363798194874  0.9726590495647826  0.5920839229735078  1.0000
  C   C62       1.0  0.4037808117258093  0.527615334939874  0.9083463750310727  1.0000
  C   C63       1.0  0.5326358868335247  0.027342743075997995  0.4079165565800266  1.0000
  C   C64       1.0  0.5962148022618621  0.47238370867348317  0.09165314820921817  1.0000
  N   N1        1.0  0.4484767849969274  0.1614283882411058  0.6222790752626608  1.0000
  N   N2        1.0  0.16571754519213028  0.33878830673186394  0.8779670327613756  1.0000
  N   N3        1.0  0.5515189576990734  0.8385706553722514  0.3777215128859908  1.0000
  N   N4        1.0  0.8342748415739294  0.661208904196549  0.12203102767562504  1.0000
  N   N5        1.0  0.40588451010761867  0.026556521233473497  0.6898141698512105  1.0000
  N   N6        1.0  0.1898496197878001  0.47330005114729795  0.8101656953358753  1.0000
  N   N7        1.0  0.5941172370184018  0.9734443550648348  0.3101869135090282  1.0000
  N   N8        1.0  0.8101453313116521  0.526697159781115  0.1898330570344626  1.0000
  O   O1        1.0  0.2320189395484037  0.749984163059203  0.6391465214036599  1.0000
  O   O2        1.0  0.34389825182019945  0.7501106183205904  0.8610199362506705  1.0000
  O   O3        1.0  0.7679827747016006  0.250019462266529  0.36085235055310244  1.0000
  O   O4        1.0  0.6561069768913085  0.24988475992287815  0.13897962374968387  1.0000
  O   O5        1.0  0.201791811826858  0.5716932406150548  0.6748599113316016  1.0000
  O   O6        1.0  0.4556988244087066  0.9285765621772342  0.8254844342035668  1.0000
  O   O7        1.0  0.7982088776731046  0.4283103847106773  0.3251407444752061  1.0000
  O   O8        1.0  0.5443129438446164  0.0714188160662346  0.17451792053847734  1.0000
  O   O9        1.0  0.1718392261729206  0.8496464868531888  0.7441778135970623  1.0000
  O   O10       1.0  0.0779248610963349  0.6499525532482693  0.7556605811737852  1.0000
  O   O11       1.0  0.8281662716208656  0.1503516404176963  0.2558254541582841  1.0000
  O   O12       1.0  0.922083147876357  0.35005015573498344  0.2443431272147549  1.0000
  O   O13       1.0  0.5204127595814184  0.8297655205414144  0.722198494737647  1.0000
  O   O14       1.0  0.4694796754767764  0.6707599418010659  0.7783029821961093  1.0000
  O   O15       1.0  0.47959011673981417  0.17023352307194267  0.2777961202358269  1.0000
  O   O16       1.0  0.5305197192589616  0.3292445998671383  0.22169315613723475  1.0000
