data_image0
_chemical_formula_structural       Cu12H40C52Br12N12
_chemical_formula_sum              "Cu12 H40 C52 Br12 N12"
_cell_length_a       7.156627093
_cell_length_b       12.175379669729752
_cell_length_c       17.5191
_cell_angle_alpha    90.0
_cell_angle_beta     90.0
_cell_angle_gamma    103.96387234087467

_space_group_name_H-M_alt    "P 1"
_space_group_IT_number       1

loop_
  _space_group_symop_operation_xyz
  'x, y, z'

loop_
  _atom_site_type_symbol
  _atom_site_label
  _atom_site_symmetry_multiplicity
  _atom_site_fract_x
  _atom_site_fract_y
  _atom_site_fract_z
  _atom_site_occupancy
  Cu  Cu1       1.0  0.09608067344511541  0.749514172133587  0.1172126422019417  1.0000
  Cu  Cu2       1.0  0.4039370234725581  0.2504922786745922  0.617213213007517  1.0000
  Cu  Cu3       1.0  0.9039403723848379  0.25049143233398036  0.882786216186908  1.0000
  Cu  Cu4       1.0  0.5960505170014372  0.7494997843431006  0.3827884994092159  1.0000
  Cu  Cu5       1.0  0.8385241421848023  0.7270539848467692  0.276764217339931  1.0000
  Cu  Cu6       1.0  0.661460780529623  0.2729499269395602  0.7767579384785748  1.0000
  Cu  Cu7       1.0  0.1614521898441055  0.2729516196207982  0.7232386366879595  1.0000
  Cu  Cu8       1.0  0.3385361786390463  0.727048060462451  0.22323635346564435  1.0000
  Cu  Cu9       1.0  0.7185984643668277  0.9422200061789993  0.1094816514547006  1.0000
  Cu  Cu10      1.0  0.7813812390704837  0.057774595860550386  0.609480509843543  1.0000
  Cu  Cu11      1.0  0.28140023206130843  0.05778221292609939  0.8905183485452994  1.0000
  Cu  Cu12      1.0  0.21859442055075826  0.9422191598383804  0.39051720693414893  1.0000
  H   H1        1.0  0.7955766780798826  0.5513045850575722  0.10692044682660652  1.0000
  H   H2        1.0  0.7044414250347232  0.4487018657506141  0.6069141679652503  1.0000
  H   H3        1.0  0.20445765340781458  0.4486959413662959  0.8930829780068592  1.0000
  H   H4        1.0  0.29553492199159587  0.5512969679920161  0.3930869736459073  1.0000
  H   H5        1.0  0.6185262862877821  0.4193753170402558  0.0060242820692835  1.0000
  H   H6        1.0  0.8814872849547868  0.5806269020648429  0.5060162907911945  1.0000
  H   H7        1.0  0.3814884829119549  0.5806252093836121  0.9939780011530247  1.0000
  H   H8        1.0  0.11850095042299809  0.41936685363408793  0.4939831384032304  1.0000
  H   H9        1.0  0.6615704207654645  0.478779118588008  0.8687563858874017  1.0000
  H   H10       1.0  0.8384347666394163  0.5212231005170905  0.36874953622047  1.0000
  H   H11       1.0  0.33841742216818455  0.5212341029451081  0.131246468140489  1.0000
  H   H12       1.0  0.16157584063630986  0.4787638844569101  0.6312527470018452  1.0000
  H   H13       1.0  0.8889925158342463  0.6656536657841413  0.838316466028509  1.0000
  H   H14       1.0  0.6110133664744168  0.33435024600218805  0.33831532441735135  1.0000
  H   H15       1.0  0.11100825030784021  0.3343604020895867  0.16168467558264873  1.0000
  H   H16       1.0  0.38899443869002676  0.6656401243342742  0.661688671221697  1.0000
  H   H17       1.0  0.2123261410007657  0.6280507521827658  0.8810840739535735  1.0000
  H   H18       1.0  0.2876926132700035  0.3719514669223258  0.3810897820093473  1.0000
  H   H19       1.0  0.7876893306014736  0.3719480815598644  0.1189067931571799  1.0000
  H   H20       1.0  0.7123148219464283  0.6280482131609161  0.6189176384631594  1.0000
  H   H21       1.0  0.49634813369446107  0.6405418933451088  0.7987613518959336  1.0000
  H   H22       1.0  0.00367478999903881  0.3594704818473886  0.298765918340557  1.0000
  H   H23       1.0  0.5036641733471967  0.35946625014430816  0.2012255195757788  1.0000
  H   H24       1.0  0.9963490354460729  0.6405418933451088  0.7012312276315598  1.0000
  H   H25       1.0  0.709010680579908  0.8355277690119962  0.7675953673419329  1.0000
  H   H26       1.0  0.7910018183121604  0.16448545252112007  0.2675982213698163  1.0000
  H   H27       1.0  0.2909939375278441  0.16448206715865146  0.2323932165465123  1.0000
  H   H28       1.0  0.20900243734628532  0.8355303080338459  0.7323994954078688  1.0000
  H   H29       1.0  0.608647079783566  0.004404356569466499  0.8165733399546795  1.0000
  H   H30       1.0  0.891360184833971  0.9956063259417929  0.3165721983435219  1.0000
  H   H31       1.0  0.3913648798062041  0.9956029405793243  0.1834300848787862  1.0000
  H   H32       1.0  0.10861579224433629  0.0044018175476168  0.6834300848787862  1.0000
  H   H33       1.0  0.7536527399046449  0.8466258335191909  0.9381098344093033  1.0000
  H   H34       1.0  0.7463409515929059  0.1533619977954217  0.4381018431312143  1.0000
  H   H35       1.0  0.24634702137529269  0.1533687685203589  0.0618975860632105  1.0000
  H   H36       1.0  0.2536420420116413  0.8466326042441279  0.5618975860632107  1.0000
  H   H37       1.0  0.33393659262534914  0.9779609704235595  0.0193594419804697  1.0000
  H   H38       1.0  0.1660646915675343  0.0220429413627699  0.5193600127860449  1.0000
  H   H39       1.0  0.6660621188001983  0.022034477956602  0.9806434120474209  1.0000
  H   H40       1.0  0.8339263309241147  0.9779541996986296  0.4806388456027975  1.0000
  C   C1        1.0  0.8141728339771033  0.57128584067798  0.046275208201336716  1.0000
  C   C2        1.0  0.6858459715400045  0.4287189174489682  0.5462712125622886  1.0000
  C   C3        1.0  0.1858531136729056  0.4287146857458808  0.9537282166321362  1.0000
  C   C4        1.0  0.31413876682272246  0.5712765309311933  0.4537293582432866  1.0000
  C   C5        1.0  0.7153786175592458  0.4995838636285015  0.990353385733286  1.0000
  C   C6        1.0  0.78464368497292  0.5004192018172162  0.49034653606634754  1.0000
  C   C7        1.0  0.2846448829300812  0.5004175091359784  0.0096483266834468  1.0000
  C   C8        1.0  0.21534419545426434  0.4995770929035643  0.5096528931280702  1.0000
  C   C9        1.0  0.7401816439041935  0.532165438350809  0.9139624752413056  1.0000
  C   C10       1.0  0.7598319198396766  0.46784016611675827  0.4139579087966823  1.0000
  C   C11       1.0  0.2598264637199108  0.4678460905010765  0.0860409495921601  1.0000
  C   C12       1.0  0.2401762252779562  0.5321544359227914  0.5860432328144682  1.0000
  C   C13       1.0  0.8661855729243013  0.6352658059404064  0.8968599985159074  1.0000
  C   C14       1.0  0.6338189120780768  0.3647381058459302  0.3968542904601264  1.0000
  C   C15       1.0  0.13381451331140679  0.36473979852716093  0.1031451387342983  1.0000
  C   C16       1.0  0.3661742251197566  0.6352505718093012  0.6031474219566065  1.0000
  C   C17       1.0  0.9670964379103635  0.7004661943721544  0.9559652036919672  1.0000
  C   C18       1.0  0.5329192330409853  0.29953433205171354  0.4559640620808167  1.0000
  C   C19       1.0  0.032920423499447814  0.2995360247329444  0.044035367113608  1.0000
  C   C20       1.0  0.4670721518999628  0.7004568846253674  0.5440365087247656  1.0000
  C   C21       1.0  0.2563625895896919  0.8098904190499637  0.8922421813905999  1.0000
  C   C22       1.0  0.2436400994081751  0.19011010737389708  0.39224446461290813  1.0000
  C   C23       1.0  0.7436434483204548  0.19010926103327816  0.1077572478038249  1.0000
  C   C24       1.0  0.7563467311646191  0.8098870336875024  0.6077578186094001  1.0000
  C   C25       1.0  0.3025809520742797  0.7102143455956664  0.8658738177189491  1.0000
  C   C26       1.0  0.1974280135538038  0.2897912588719009  0.3658789549691478  1.0000
  C   C27       1.0  0.6974201915145315  0.2897870271688134  0.1341199034196947  1.0000
  C   C28       1.0  0.8025734774869022  0.7102109602331979  0.6341233282531604  1.0000
  C   C29       1.0  0.46234490858532235  0.7180328402130269  0.8195826269614273  1.0000
  C   C30       1.0  0.03766719910721861  0.281973610595152  0.3195860517949002  1.0000
  C   C31       1.0  0.5376544827466034  0.2819710715733024  0.1804088109549014  1.0000
  C   C32       1.0  0.9623433631762593  0.7180336865536461  0.6804139482051  1.0000
  C   C33       1.0  0.5780994213239836  0.8248393333632933  0.8011895588243692  1.0000
  C   C34       1.0  0.9219169220350382  0.1751730418292041  0.3011912712411018  1.0000
  C   C35       1.0  0.4219034595243016  0.17516627110427407  0.198802449897542  1.0000
  C   C36       1.0  0.07808664621832412  0.8248376406820624  0.698806445536583  1.0000
  C   C37       1.0  0.5231550531839487  0.9192333950285771  0.8284164140851973  1.0000
  C   C38       1.0  0.9768515240285112  0.08077220943899019  0.3284175556963547  1.0000
  C   C39       1.0  0.4768520270818897  0.0807688240765216  0.1715818734980701  1.0000
  C   C40       1.0  0.02313284438620405  0.919232548687958  0.6715847275259605  1.0000
  C   C41       1.0  0.05188190257135979  0.9038536933413326  0.9707753252164792  1.0000
  C   C42       1.0  0.44811555215198223  0.0961442940606787  0.47077589602205455  1.0000
  C   C43       1.0  0.9481272849019644  0.09614344772006689  0.029224103977945504  1.0000
  C   C44       1.0  0.5518639519362125  0.9038486152976333  0.5292201083388974  1.0000
  C   C45       1.0  0.8608634040560189  0.9124372798762224  0.9665827582467159  1.0000
  C   C46       1.0  0.6391281877327515  0.0875522441196281  0.466577050190935  1.0000
  C   C47       1.0  0.13914264135284068  0.08755901484455819  0.0334195249755993  1.0000
  C   C48       1.0  0.36084852924157923  0.9124372798762224  0.5334172417532841  1.0000
  C   C49       1.0  0.19372428719606208  0.9921346367319612  0.00456359059541  1.0000
  C   C50       1.0  0.3062696705122149  0.007865043351287699  0.5045630197898279  1.0000
  C   C51       1.0  0.8062775662939501  0.0078616579888191  0.995438121821323  1.0000
  C   C52       1.0  0.6937080888178  0.9921270196664123  0.4954312721543914  1.0000
  Br  Br1       1.0  0.030913548533959615  0.5903445850261518  0.2304867259162862  1.0000
  Br  Br2       1.0  0.4690664211140856  0.4096618657820272  0.7304821594716628  1.0000
  Br  Br3       1.0  0.9690753517527851  0.4096644048038769  0.7695161281116045  1.0000
  Br  Br4       1.0  0.5309127280235088  0.5903335825981343  0.2695161281116043  1.0000
  Br  Br5       1.0  0.9616835297828884  0.886444466855167  0.18695823415586696  1.0000
  Br  Br6       1.0  0.5383090968628608  0.1135509815249947  0.6869565217391269  1.0000
  Br  Br7       1.0  0.0383186636603128  0.11355605956869397  0.8130423366497155  1.0000
  Br  Br8       1.0  0.4616641305951177  0.886436849789618  0.3130429074552907  1.0000
  Br  Br9       1.0  0.44813519813669694  0.778976981683236  0.0901644490869984  1.0000
  Br  Br10      1.0  0.05190596552554181  0.2210015398845897  0.5901507497531286  1.0000
  Br  Br11      1.0  0.551906497329142  0.2210108496313765  0.9098486794412965  1.0000
  Br  Br12      1.0  0.948088214027969  0.7789896767924915  0.4098492502468716  1.0000
  N   N1        1.0  0.9428955057283517  0.6696847861416372  0.030210456016575904  1.0000
  N   N2        1.0  0.5571264493519195  0.3303174329634615  0.5302076019886854  1.0000
  N   N3        1.0  0.057131839227935216  0.3303157402822308  0.9697901147889995  1.0000
  N   N4        1.0  0.4428537496400581  0.6696771690760812  0.46979125640015706  1.0000
  N   N5        1.0  0.09971867578082788  0.8054479771527453  0.9404141765273338  1.0000
  N   N6        1.0  0.40029204210414093  0.19455508829297224  0.4404124641106009  1.0000
  N   N7        1.0  0.9002953910164209  0.1945542419523534  0.059586965083823905  1.0000
  N   N8        1.0  0.5996965407255388  0.8054395137465774  0.5595858234726665  1.0000
  N   N9        1.0  0.3635563913850248  0.9131211230945411  0.8712051418166453  1.0000
  N   N10       1.0  0.1364525742430658  0.08688448137302629  0.3712062834278029  1.0000
  N   N11       1.0  0.6364590727185089  0.08688109601055767  0.1287959997945123  1.0000
  N   N12       1.0  0.8635307518159648  0.9131177377320725  0.6287948581833547  1.0000
