data_image0
_chemical_formula_structural       Ag4H8C28O12F20
_chemical_formula_sum              "Ag4 H8 C28 O12 F20"
_cell_length_a       3.5319635470200934
_cell_length_b       13.646981487407764
_cell_length_c       18.389352062897917
_cell_angle_alpha    110.84299290992698
_cell_angle_beta     89.99963194563806
_cell_angle_gamma    90.00023873242208

_space_group_name_H-M_alt    "P 1"
_space_group_IT_number       1

loop_
  _space_group_symop_operation_xyz
  'x, y, z'

loop_
  _atom_site_type_symbol
  _atom_site_label
  _atom_site_symmetry_multiplicity
  _atom_site_fract_x
  _atom_site_fract_y
  _atom_site_fract_z
  _atom_site_occupancy
  Ag  Ag1       1.0  0.3637089677251239  0.1606491289953738  0.9796146687786089  1.0000
  Ag  Ag2       1.0  0.8637117519053205  0.3393514154473608  0.020384452215296302  1.0000
  Ag  Ag3       1.0  0.6362870322337029  0.8393515479311446  0.02038565043773128  1.0000
  Ag  Ag4       1.0  0.1362842480597592  0.6606484787850563  0.9796151155827744  1.0000
  H   H1        1.0  0.7375511134431463  0.9467401401878349  0.9026461038158686  1.0000
  H   H2        1.0  0.23755056970730948  0.5532607285900327  0.0973542165164147  1.0000
  H   H3        1.0  0.26244771781387755  0.0532613221896554  0.09735387996073537  1.0000
  H   H4        1.0  0.7624482615349918  0.4467391642651324  0.9026458947083497  1.0000
  H   H5        1.0  0.8785877111352249  0.028078683934005297  0.865728474999564  1.0000
  H   H6        1.0  0.3785841649068827  0.4719210819965839  0.134271508665357  1.0000
  H   H7        1.0  0.12140828882985488  0.9719212102984116  0.1342710927985067  1.0000
  H   H8        1.0  0.6214118350491162  0.5280788108577923  0.8657286025609492  1.0000
  C   C1        1.0  0.5920842439531668  0.2017733118886227  0.26731528036556534  1.0000
  C   C2        1.0  0.0920805857110381  0.29822707932466846  0.7326846797848816  1.0000
  C   C3        1.0  0.4079145872982081  0.7982265823445829  0.7326842874309631  1.0000
  C   C4        1.0  0.9079295706520442  0.7017735934716927  0.2673172697084709  1.0000
  C   C5        1.0  0.5083104383312218  0.2808051503114655  0.23794865139627316  1.0000
  C   C6        1.0  0.008315855866726502  0.21919441137718823  0.7620506485376451  1.0000
  C   C7        1.0  0.49168556163951394  0.7191963120652362  0.7620513323818726  1.0000
  C   C8        1.0  0.9916858066646979  0.7808062655509146  0.2379496706756114  1.0000
  C   C9        1.0  0.3897133974065241  0.3775432918889123  0.2917119870392212  1.0000
  C   C10       1.0  0.8897152202403333  0.12245569756879598  0.7082872330916812  1.0000
  C   C11       1.0  0.6102882651249004  0.6224573850391906  0.7082883321740424  1.0000
  C   C12       1.0  0.11029210486368869  0.8775449793608915  0.2917130861184987  1.0000
  C   C13       1.0  0.5506875897854115  0.2644064214081112  0.15279296872975576  1.0000
  C   C14       1.0  0.05068759719017629  0.23559316121355783  0.8472073719264939  1.0000
  C   C15       1.0  0.44930841016433476  0.7355942541403662  0.8472078939148274  1.0000
  C   C16       1.0  0.9493027401813166  0.764405946189058  0.1527930747410906  1.0000
  C   C17       1.0  0.348131941722265  0.3940009538373417  0.37064489997069217  1.0000
  C   C18       1.0  0.848124809600911  0.10599644560583948  0.629353406027569  1.0000
  C   C19       1.0  0.6518782146896454  0.6059981590829651  0.6293533729731563  1.0000
  C   C20       1.0  0.15187685294301903  0.8940026659340531  0.3706454103491409  1.0000
  C   C21       1.0  0.4356600547001221  0.31351013475104855  0.3980078053317867  1.0000
  C   C22       1.0  0.9356607910852617  0.18648653093210754  0.6019896539498147  1.0000
  C   C23       1.0  0.5643387765756672  0.6864889795441304  0.6019899241899864  1.0000
  C   C24       1.0  0.0643352088560079  0.813511792399943  0.398010584724659  1.0000
  C   C25       1.0  0.5626631551569332  0.21716325973572742  0.3461998732347523  1.0000
  C   C26       1.0  0.0626618826366254  0.2828347641922164  0.6537989515475358  1.0000
  C   C27       1.0  0.4373328448172273  0.7828366358747232  0.6537991511350754  1.0000
  C   C28       1.0  0.9373454424197759  0.7171627709367456  0.34620270941544357  1.0000
  O   O1        1.0  0.4170878179341812  0.17992735074972893  0.10406973460667496  1.0000
  O   O2        1.0  0.9170893828633454  0.320071651255283  0.8959305425776092  1.0000
  O   O3        1.0  0.5829081819980076  0.8200709712042878  0.8959310474960274  1.0000
  O   O4        1.0  0.08291227967716  0.6799290270508607  0.10406923320741154  1.0000
  O   O5        1.0  0.8193817955110987  0.020267353721841602  0.9151705372938679  1.0000
  O   O6        1.0  0.3193800249261045  0.4797331631827931  0.08482971881912248  1.0000
  O   O7        1.0  0.18061703574310428  0.9797333245835063  0.08482923849269497  1.0000
  O   O8        1.0  0.6806159750270665  0.5202659455994335  0.9151701844171426  1.0000
  O   O9        1.0  0.7150474222610583  0.33748281316479734  0.1381281207229392  1.0000
  O   O10       1.0  0.215045766652409  0.1625176481686594  0.8618711621250198  1.0000
  O   O11       1.0  0.2849514089840638  0.6625178637625097  0.8618721984918662  1.0000
  O   O12       1.0  0.7849502333189236  0.8374814633696488  0.13812765425477372  1.0000
  F   F1        1.0  0.29907929363243096  0.45758233669099724  0.268309870480465  1.0000
  F   F2        1.0  0.7990903751810803  0.0424166089912319  0.73168673117987  1.0000
  F   F3        1.0  0.7009082124919103  0.5424175602951209  0.7316886104657455  1.0000
  F   F4        1.0  0.2009254437999957  0.9575840706969033  0.2683125011692055  1.0000
  F   F5        1.0  0.7166127471767183  0.10715651236316148  0.21951617106194013  1.0000
  F   F6        1.0  0.2166203382222491  0.39284081218135475  0.7804828215448578  1.0000
  F   F7        1.0  0.2833860840684039  0.8928441645641529  0.7804841481528655  1.0000
  F   F8        1.0  0.7833813242938348  0.6071606460628161  0.21951879251491843  1.0000
  F   F9        1.0  0.6589371578545595  0.14064079363467394  0.3726953183663325  1.0000
  F   F10       1.0  0.15893516726504936  0.35935963081855243  0.6273061992834384  1.0000
  F   F11       1.0  0.34107016724038175  0.859359881916973  0.6273055442720832  1.0000
  F   F12       1.0  0.8410608326727951  0.640640259279749  0.3726949987993392  1.0000
  F   F13       1.0  0.3954404902660755  0.3286295212627834  0.47374765463906227  1.0000
  F   F14       1.0  0.8954378491749964  0.1713694713953586  0.5262515592590375  1.0000
  F   F15       1.0  0.6045555097052568  0.6713695902755247  0.5262511617407313  1.0000
  F   F16       1.0  0.104566644621741  0.8286304187053163  0.47374963881912163  1.0000
  F   F17       1.0  0.22006993621752  0.4861171186472788  0.42065516454653806  1.0000
  F   F18       1.0  0.7200743189511841  0.013876276444030103  0.5793471317738009  1.0000
  F   F19       1.0  0.7799260637538125  0.5138819928910294  0.5793436518332555  1.0000
  F   F20       1.0  0.2799245122854614  0.98612204826685  0.42065256347088814  1.0000
