data_image0
_chemical_formula_structural       Gd4H64C36N4O28
_chemical_formula_sum              "Gd4 H64 C36 N4 O28"
_cell_length_a       8.203903318366002
_cell_length_b       9.369266218132445
_cell_length_c       16.990377303002912
_cell_angle_alpha    89.99996469214166
_cell_angle_beta     89.999945229059
_cell_angle_gamma    93.8835595121553

_space_group_name_H-M_alt    "P 1"
_space_group_IT_number       1

loop_
  _space_group_symop_operation_xyz
  'x, y, z'

loop_
  _atom_site_type_symbol
  _atom_site_label
  _atom_site_symmetry_multiplicity
  _atom_site_fract_x
  _atom_site_fract_y
  _atom_site_fract_z
  _atom_site_occupancy
  Gd  Gd1       1.0  0.7027049815016256  0.4108218651773328  0.24286017743341415  1.0000
  Gd  Gd2       1.0  0.7972945881743669  0.5891789832920294  0.7428602045408044  1.0000
  Gd  Gd3       1.0  0.29729467186560027  0.5891776358870756  0.7571395794879836  1.0000
  Gd  Gd4       1.0  0.20270523075681982  0.4108226573242035  0.2571395523801883  1.0000
  H   H1        1.0  0.11343026849912263  0.39700029912562945  0.0332140008280462  1.0000
  H   H2        1.0  0.3865698488718081  0.6029970620980123  0.5332139818694304  1.0000
  H   H3        1.0  0.8865704382337471  0.6029970623563159  0.9667857560934721  1.0000
  H   H4        1.0  0.6134297217134447  0.3970013691904839  0.4667857750521734  1.0000
  H   H5        1.0  0.9344826848197413  0.326214328428648  0.9817607391123246  1.0000
  H   H6        1.0  0.5655162252279524  0.6737840846014008  0.4817612746465091  1.0000
  H   H7        1.0  0.0655168857655113  0.6737841028598484  0.01823901780927171  1.0000
  H   H8        1.0  0.4344834281392736  0.3262154164630076  0.5182384822748887  1.0000
  H   H9        1.0  0.0455289005157198  0.21645663482768635  0.048123663203036016  1.0000
  H   H10       1.0  0.4544701326553948  0.783542847512308  0.5481235513433165  1.0000
  H   H11       1.0  0.9544706700689218  0.7835417964604402  0.951876682287008  1.0000
  H   H12       1.0  0.5455295207118311  0.21645665355210036  0.45187620557808134  1.0000
  H   H13       1.0  0.4064834913745017  0.648481702157014  0.0165415117220959  1.0000
  H   H14       1.0  0.09351568989307421  0.3515188890747325  0.5165411255541417  1.0000
  H   H15       1.0  0.5935162447740937  0.35151886868294474  0.9834588337675502  1.0000
  H   H16       1.0  0.9064840462561322  0.6484816817655882  0.48345863136705713  1.0000
  H   H17       1.0  0.5964025249590819  0.5962128981751249  0.05880598830090381  1.0000
  H   H18       1.0  0.9035950702771912  0.4037892480893462  0.5588060292468386  1.0000
  H   H19       1.0  0.403594773330937  0.4037876727264802  0.9411937686208561  1.0000
  H   H20       1.0  0.09640466587201499  0.5962113227509747  0.441193727674353  1.0000
  H   H21       1.0  0.5109927488114182  0.7544683532484415  0.09109366907886603  1.0000
  H   H22       1.0  0.9890084364403435  0.2455337529346124  0.5910937243077826  1.0000
  H   H23       1.0  0.489006904555808  0.24553114781596727  0.9089060878425317  1.0000
  H   H24       1.0  0.010993820350030593  0.7544678876203362  0.40890603261264163  1.0000
  H   H25       1.0  0.3265877602999582  0.11288650624953078  0.04123677630584411  1.0000
  H   H26       1.0  0.17341258882461114  0.8871140543649786  0.5412373479885917  1.0000
  H   H27       1.0  0.6734106741376706  0.8871129948455163  0.958762980615838  1.0000
  H   H28       1.0  0.826588449036777  0.11288758622097823  0.4587618203636695  1.0000
  H   H29       1.0  0.42352293584848866  0.97970053786689  0.09553145711560523  1.0000
  H   H30       1.0  0.07647616484335631  0.0203010253083562  0.5955317801278569  1.0000
  H   H31       1.0  0.5764754985891472  0.020298963228164296  0.9044682998060767  1.0000
  H   H32       1.0  0.9235236540884344  0.9797006153082394  0.4044673882246884  1.0000
  H   H33       1.0  0.5453662143740629  0.11626899004893686  0.047119466685629205  1.0000
  H   H34       1.0  0.954633594544248  0.8837299613008229  0.547119320655554  1.0000
  H   H35       1.0  0.45463343899255904  0.8837305110151092  0.9528808788042156  1.0000
  H   H36       1.0  0.045367194971213096  0.1162684699573973  0.4528798476973181  1.0000
  H   H37       1.0  0.009141456609228299  0.6593594679810338  0.17288892444386056  1.0000
  H   H38       1.0  0.4908622770378273  0.3406409294854811  0.6728895350166513  1.0000
  H   H39       1.0  0.9908568950458232  0.34063896333773874  0.8271114210464676  1.0000
  H   H40       1.0  0.5091387608217346  0.6593607110993817  0.3271113990409519  1.0000
  H   H41       1.0  0.16780954007622745  0.8350376517241999  0.13891080129168645  1.0000
  H   H42       1.0  0.3321943466225222  0.1649638576016699  0.6389109565951685  1.0000
  H   H43       1.0  0.8321912494380115  0.1649607795332955  0.8610895441980804  1.0000
  H   H44       1.0  0.6678066084562816  0.8350367132080122  0.3610888003257459  1.0000
  H   H45       1.0  0.12023341425430802  0.0125774630055773  0.16770430930316854  1.0000
  H   H46       1.0  0.3797678922552877  0.98742294094329  0.6677053398096577  1.0000
  H   H47       1.0  0.8797661563309446  0.9874209682829191  0.8322954476184281  1.0000
  H   H48       1.0  0.6202330628223008  0.012577629865660397  0.3322955942481515  1.0000
  H   H49       1.0  0.0674288289485432  0.9469807157879728  0.07191111622124423  1.0000
  H   H50       1.0  0.43257267566928453  0.053019806804862  0.5719112631123269  1.0000
  H   H51       1.0  0.9325707416360985  0.05301771550016101  0.9280892292687996  1.0000
  H   H52       1.0  0.5674281966269349  0.9469796942285454  0.4280890823772412  1.0000
  H   H53       1.0  0.6836894693225589  0.8982025278456475  0.19544973328569887  1.0000
  H   H54       1.0  0.8163126362607187  0.10179837928192367  0.6954499174428579  1.0000
  H   H55       1.0  0.3163102668260365  0.10179804299431083  0.8045506122039472  1.0000
  H   H56       1.0  0.1836871826698498  0.8982032613339401  0.3045504280465822  1.0000
  H   H57       1.0  0.7608714992163641  0.9947202895611652  0.11098129816931393  1.0000
  H   H58       1.0  0.7391319999827318  0.005280722152640699  0.6109821395006281  1.0000
  H   H59       1.0  0.2391294558618284  0.005280281248147399  0.889019047320048  1.0000
  H   H60       1.0  0.2608690378768301  0.994720918432222  0.38901879455697513  1.0000
  H   H61       1.0  0.830145048590694  0.04796710604787081  0.20614589843497555  1.0000
  H   H62       1.0  0.6698558987247479  0.9520348576387933  0.7061458611043323  1.0000
  H   H63       1.0  0.16985460477592804  0.9520323950161685  0.7938544470548694  1.0000
  H   H64       1.0  0.3301440029878009  0.0479678527529828  0.2938544843849087  1.0000
  C   C1        1.0  0.9011415514389399  0.36681592392561413  0.10487556343598213  1.0000
  C   C2        1.0  0.5988570018870548  0.6331840256971121  0.6048762560763878  1.0000
  C   C3        1.0  0.0988592380765141  0.633182507332606  0.89512360491689  1.0000
  C   C4        1.0  0.4011427342615406  0.36681654514284645  0.3951240894132584  1.0000
  C   C5        1.0  0.003594253102512797  0.3234162391583979  0.036767815082384914  1.0000
  C   C6        1.0  0.49640593970031677  0.6765821874393084  0.5367683087612678  1.0000
  C   C7        1.0  0.9964053174827329  0.6765821921300984  0.9632319418392118  1.0000
  C   C8        1.0  0.5035949325965063  0.3234173135944616  0.46323144815984574  1.0000
  C   C9        1.0  0.3870273603243248  0.5647356183331951  0.1337390455483529  1.0000
  C   C10       1.0  0.1129739336480569  0.4352637579082669  0.6337380332975827  1.0000
  C   C11       1.0  0.6129710741133111  0.4352638827618519  0.866260711373322  1.0000
  C   C12       1.0  0.8870258025017607  0.5647368129324235  0.3662611350551686  1.0000
  C   C13       1.0  0.48092113420217697  0.6447794358174973  0.07001941286065262  1.0000
  C   C14       1.0  0.0190767175395621  0.35522108921050244  0.5700190599216344  1.0000
  C   C15       1.0  0.5190773002348479  0.35522006527718736  0.9299809326294695  1.0000
  C   C16       1.0  0.9809230186090332  0.6447794816294491  0.4299812855680117  1.0000
  C   C17       1.0  0.43009073545464105  0.1836592773235495  0.15317716197770184  1.0000
  C   C18       1.0  0.06991068388052918  0.8163422143938774  0.653177805699855  1.0000
  C   C19       1.0  0.5699089179125849  0.816340223740859  0.8468225949436957  1.0000
  C   C20       1.0  0.9300891350512616  0.18365942622271803  0.34682136265269053  1.0000
  C   C21       1.0  0.43079928964224473  0.09343529931211242  0.07913291213463224  1.0000
  C   C22       1.0  0.0692009811109173  0.9065652143669711  0.5791329369129131  1.0000
  C   C23       1.0  0.5692003637249884  0.906564201752296  0.9208668447867654  1.0000
  C   C24       1.0  0.9307987550389001  0.09343535647371232  0.4208662314398311  1.0000
  C   C25       1.0  0.8992205719843227  0.7188124658999229  0.18144943620743706  1.0000
  C   C26       1.0  0.6007727817012806  0.2811852494553548  0.6814478934736459  1.0000
  C   C27       1.0  0.10077664352310481  0.28118703522540045  0.8185509092829693  1.0000
  C   C28       1.0  0.39922947508848233  0.7188163910992315  0.31855245201523275  1.0000
  C   C29       1.0  0.0785104204368423  0.9165837267528474  0.13426464877484534  1.0000
  C   C30       1.0  0.42148998464445236  0.0834199279704748  0.6342659675924696  1.0000
  C   C31       1.0  0.9214892329303909  0.0834157743115611  0.8657351081465522  1.0000
  C   C32       1.0  0.5785086981378953  0.9165827824515772  0.36573496646550313  1.0000
  C   C33       1.0  0.7916278041142137  0.9550916939152644  0.16970748039089767  1.0000
  C   C34       1.0  0.7083743547058604  0.0449092450949991  0.6697077339181164  1.0000
  C   C35       1.0  0.20837184925240854  0.0449078071487818  0.8302928650989403  1.0000
  C   C36       1.0  0.2916266831543126  0.9550923954902257  0.3302926115710464  1.0000
  N   N1        1.0  0.921974604387458  0.8579686259319316  0.16397598717414755  1.0000
  N   N2        1.0  0.5780289507786732  0.1420344596977969  0.6639768566095656  1.0000
  N   N3        1.0  0.078025048979768  0.14203087513247684  0.8360237697472501  1.0000
  N   N4        1.0  0.4219720870814995  0.8579671808874283  0.3360234888795973  1.0000
  O   O1        1.0  0.9591501269186368  0.3604321264341054  0.17564031272271313  1.0000
  O   O2        1.0  0.5408495817728465  0.6395688052894855  0.6756404414983594  1.0000
  O   O3        1.0  0.0408495264485964  0.6395673746303033  0.8243594441986846  1.0000
  O   O4        1.0  0.4591501543763599  0.3604317655508353  0.32435931542283214  1.0000
  O   O5        1.0  0.7586865623499506  0.40725604919567354  0.09510770759323613  1.0000
  O   O6        1.0  0.7413157507474964  0.5927449822089202  0.5951083479923724  1.0000
  O   O7        1.0  0.24131439272945704  0.592744521614364  0.9048914607592311  1.0000
  O   O8        1.0  0.2586852871126695  0.4072566583763049  0.40489199749678323  1.0000
  O   O9        1.0  0.46273884809740196  0.5018852938562616  0.18874546871559525  1.0000
  O   O10       1.0  0.037261361532777884  0.49811722361534533  0.6887456472915476  1.0000
  O   O11       1.0  0.5372608052704351  0.49811420720850924  0.8112536996373552  1.0000
  O   O12       1.0  0.9627396763286101  0.5018844169706115  0.3112535210607135  1.0000
  O   O13       1.0  0.2318346388350889  0.5597169108642532  0.13518166362036516  1.0000
  O   O14       1.0  0.2681642970754936  0.440283533426978  0.6351817548948803  1.0000
  O   O15       1.0  0.7681650973141174  0.44028365997606034  0.8648180933008264  1.0000
  O   O16       1.0  0.7318355218556932  0.5597181071892551  0.3648180020261196  1.0000
  O   O17       1.0  0.5653684069707765  0.20590937641015472  0.18904154523153954  1.0000
  O   O18       1.0  0.9346300550747982  0.7940915387452065  0.689043204679763  1.0000
  O   O19       1.0  0.4346312463970605  0.7940901246546161  0.8109576231214108  1.0000
  O   O20       1.0  0.06536976385577731  0.2059101018706642  0.310957140809677  1.0000
  O   O21       1.0  0.29432892565252894  0.22849493240517652  0.17523555409312766  1.0000
  O   O22       1.0  0.20566870849356178  0.7715054623081556  0.6752361501730706  1.0000
  O   O23       1.0  0.7056708104966773  0.7715056384351442  0.8247642028280711  1.0000
  O   O24       1.0  0.794329725944067  0.2284940387868915  0.3247636067486043  1.0000
  O   O25       1.0  0.7666139778532967  0.6597715276750192  0.20545482969301085  1.0000
  O   O26       1.0  0.7333969706707961  0.3402336459482385  0.7054579139697881  1.0000
  O   O27       1.0  0.23338697722489601  0.3402290431343006  0.794545515796351  1.0000
  O   O28       1.0  0.26660536889973235  0.6597690643815284  0.2945436086557792  1.0000
