data_image0
_chemical_formula_structural       Zn4H40C36N4O20
_chemical_formula_sum              "Zn4 H40 C36 N4 O20"
_cell_length_a       7.178076682173111
_cell_length_b       7.463992097360066
_cell_length_c       23.0138846633975
_cell_angle_alpha    89.99957964237171
_cell_angle_beta     89.9995005004997
_cell_angle_gamma    89.01767393759661

_space_group_name_H-M_alt    "P 1"
_space_group_IT_number       1

loop_
  _space_group_symop_operation_xyz
  'x, y, z'

loop_
  _atom_site_type_symbol
  _atom_site_label
  _atom_site_symmetry_multiplicity
  _atom_site_fract_x
  _atom_site_fract_y
  _atom_site_fract_z
  _atom_site_occupancy
  Zn  Zn1       1.0  0.4270173525805916  0.4083492942577605  0.7833387001223431  1.0000
  Zn  Zn2       1.0  0.07296944482706638  0.09164246814461308  0.2833348443306748  1.0000
  Zn  Zn3       1.0  0.5729776999126415  0.591644972055647  0.21665822287856432  1.0000
  Zn  Zn4       1.0  0.9270242070764991  0.9083531540172343  0.7166638167517976  1.0000
  H   H1        1.0  0.5399031757182654  0.14670671814388914  0.7264788155117544  1.0000
  H   H2        1.0  0.9601040013580117  0.3532952765515701  0.22647725828346682  1.0000
  H   H3        1.0  0.4600877040914779  0.8532862563243809  0.2735168039352588  1.0000
  H   H4        1.0  0.0398854778559894  0.6466990537599672  0.7735205337654069  1.0000
  H   H5        1.0  0.31683075041127035  0.1473983546796944  0.7258182074639381  1.0000
  H   H6        1.0  0.18317857936081341  0.352590516903305  0.22581521927805437  1.0000
  H   H7        1.0  0.6831615444244007  0.8525905841544412  0.2741800191074263  1.0000
  H   H8        1.0  0.8168109361385661  0.6473971141094307  0.7741795311360918  1.0000
  H   H9        1.0  0.43236889750986757  0.4604351743563696  0.6491053217644593  1.0000
  H   H10       1.0  0.0676188072612192  0.039571873212992194  0.149102464261027  1.0000
  H   H11       1.0  0.5676205599767241  0.5395631755716718  0.3508911667191228  1.0000
  H   H12       1.0  0.9323790028773898  0.960427720569349  0.8508940242100212  1.0000
  H   H13       1.0  0.43155936576926024  0.6799537111686573  0.6151412360882633  1.0000
  H   H14       1.0  0.06844603097101748  0.8200511262345173  0.11513906088531205  1.0000
  H   H15       1.0  0.5684356722451084  0.32004323489426406  0.3848543833488165  1.0000
  H   H16       1.0  0.9315434627218477  0.17994052432751317  0.8848600347273962  1.0000
  H   H17       1.0  0.3534373909940598  0.6136910141602954  0.996599395541843  1.0000
  H   H18       1.0  0.14655024035311473  0.886326263528694  0.49659556174799513  1.0000
  H   H19       1.0  0.6465269722632667  0.3863103035140084  0.0033992655734778007  1.0000
  H   H20       1.0  0.8534640575537579  0.11371601390499816  0.5034065754177776  1.0000
  H   H21       1.0  0.3722423287341456  0.40109353727623187  0.9123339528686503  1.0000
  H   H22       1.0  0.12772405661226569  0.09891008599195315  0.41232819660558573  1.0000
  H   H23       1.0  0.6277179053006209  0.5988984493250908  0.08766557730308483  1.0000
  H   H24       1.0  0.8722624909849229  0.9011110736534602  0.5876704644581993  1.0000
  H   H25       1.0  0.4512605366809907  0.8152953020768405  0.7959979674777173  1.0000
  H   H26       1.0  0.0487440692254495  0.6846877651186103  0.29600048887990493  1.0000
  H   H27       1.0  0.5487680278696773  0.18468518148991106  0.20400112809510065  1.0000
  H   H28       1.0  0.9512663313335564  0.3153023054309187  0.7040081661531448  1.0000
  H   H29       1.0  0.4356129556442525  0.044334737245066  0.8741829453037087  1.0000
  H   H30       1.0  0.06440331478582098  0.4556598546174725  0.37418960652048855  1.0000
  H   H31       1.0  0.5644169804896748  0.9556497499309059  0.12581528122227334  1.0000
  H   H32       1.0  0.9356250900897435  0.5443501058474777  0.6258242627101185  1.0000
  H   H33       1.0  0.329819703977563  0.10710755854655928  0.9777218173389318  1.0000
  H   H34       1.0  0.17019635921209902  0.3929019556493498  0.47772876887244575  1.0000
  H   H35       1.0  0.6701836939617182  0.8928892915243336  0.02227206400589671  1.0000
  H   H36       1.0  0.8298347598783523  0.607121371538227  0.5222803206165096  1.0000
  H   H37       1.0  0.322853546821804  0.9300754245089705  0.029253055669983007  1.0000
  H   H38       1.0  0.17715840613834635  0.5699367681972304  0.5292552845793993  1.0000
  H   H39       1.0  0.6771442488075292  0.06992684899702788  0.9707443018387213  1.0000
  H   H40       1.0  0.8228685547353222  0.43008258738535676  0.47075467396009446  1.0000
  C   C1        1.0  0.6030535003732139  0.6511620643572513  0.6915340521223856  1.0000
  C   C2        1.0  0.8969323905774613  0.8488368517541501  0.19152876285012618  1.0000
  C   C3        1.0  0.3969373939153868  0.34882823036150507  0.3084628708884623  1.0000
  C   C4        1.0  0.10306261838183418  0.15116545372505644  0.808471201784052  1.0000
  C   C5        1.0  0.43011107759721756  0.6063259561725046  0.6561934933830005  1.0000
  C   C6        1.0  0.06989316219112848  0.8936792441523025  0.15619288988135346  1.0000
  C   C7        1.0  0.56989092699488  0.39367090987465747  0.3438025605651519  1.0000
  C   C8        1.0  0.9301046406685032  0.10632168947118709  0.8438057711897077  1.0000
  C   C9        1.0  0.25275577791722975  0.6525726438238451  0.6898729130456973  1.0000
  C   C10       1.0  0.24724335321433694  0.8474291232984184  0.18987237215738875  1.0000
  C   C11       1.0  0.7472434400291732  0.347424254217209  0.3101240099467405  1.0000
  C   C12       1.0  0.752755821222479  0.1525758139291185  0.8101258543871311  1.0000
  C   C13       1.0  0.3760438896250662  0.6640342024850623  0.9526945099204059  1.0000
  C   C14       1.0  0.12394781586312577  0.8359733690313857  0.4526943238283822  1.0000
  C   C15       1.0  0.6239316636577001  0.3359589479703117  0.047304151188974713  1.0000
  C   C16       1.0  0.8760679477973949  0.164055493688835  0.5473112895126065  1.0000
  C   C17       1.0  0.38686075106087964  0.5449497919723426  0.906330876671625  1.0000
  C   C18       1.0  0.11312114984636419  0.9550509717099513  0.4063282840656088  1.0000
  C   C19       1.0  0.6131189894146444  0.45504197060451185  0.09366821895398661  1.0000
  C   C20       1.0  0.8868793743489503  0.044961988660588786  0.5936747221915086  1.0000
  C   C21       1.0  0.4300274564384026  0.7755648316231855  0.8409834915305016  1.0000
  C   C22       1.0  0.06997306676610289  0.7244238963911795  0.340985433972243  1.0000
  C   C23       1.0  0.5699871459443314  0.22442117142755785  0.15901603857518157  1.0000
  C   C24       1.0  0.9300358752573884  0.2755782489789667  0.6590219174885379  1.0000
  C   C25       1.0  0.42147957344954523  0.9030062389148481  0.8849533402081211  1.0000
  C   C26       1.0  0.07853081411961679  0.5969906937604533  0.38495814819197716  1.0000
  C   C27       1.0  0.5785336283861254  0.09698112002052989  0.11504488633705286  1.0000
  C   C28       1.0  0.9214906169722497  0.40302068662343515  0.6150522448840052  1.0000
  C   C29       1.0  0.39456383383677  0.8477310627808092  0.9423805086749655  1.0000
  C   C30       1.0  0.10544070031233589  0.6522766101291351  0.4423829501165885  1.0000
  C   C31       1.0  0.6054326336945477  0.1522591679088023  0.05761815240969531  1.0000
  C   C32       1.0  0.8945764783741055  0.34774821695695113  0.5576252703487514  1.0000
  C   C33       1.0  0.398126692831326  0.980680509561999  0.9911795936719873  1.0000
  C   C34       1.0  0.10189870976567052  0.5193364649725536  0.4911819035217136  1.0000
  C   C35       1.0  0.6018766905804185  0.019319020217039896  0.0088164602713903  1.0000
  C   C36       1.0  0.8981351887219302  0.4806881700881219  0.5088263169214999  1.0000
  N   N1        1.0  0.41406500458410983  0.5991672154521835  0.8513322429267804  1.0000
  N   N2        1.0  0.0859157006686573  0.9008255099633825  0.3513307117449573  1.0000
  N   N3        1.0  0.5859245035997847  0.4008217553706784  0.14866728720916467  1.0000
  N   N4        1.0  0.9140792719870204  0.09918349479912077  0.648673598084841  1.0000
  O   O1        1.0  0.6307566069830698  0.5670599419140813  0.739459524080857  1.0000
  O   O2        1.0  0.8692349807854639  0.932924354956121  0.2394602065101951  1.0000
  O   O3        1.0  0.369241290186892  0.43292357350563276  0.26053348824544303  1.0000
  O   O4        1.0  0.13076147221224227  0.06706855543647088  0.7605410616933032  1.0000
  O   O5        1.0  0.7094982682522826  0.7695704269120183  0.6716088509863598  1.0000
  O   O6        1.0  0.7904965333664576  0.7304302072205001  0.17160323848946046  1.0000
  O   O7        1.0  0.2904981847880066  0.23042248351676153  0.3283893755750641  1.0000
  O   O8        1.0  0.2094928950954866  0.26957350214969006  0.8283954225897292  1.0000
  O   O9        1.0  0.22438276288254844  0.5689859332673347  0.7376385558994658  1.0000
  O   O10       1.0  0.2756038622932238  0.9310188448001993  0.23763688566365465  1.0000
  O   O11       1.0  0.7756150254860612  0.43101768009531577  0.26235967064836535  1.0000
  O   O12       1.0  0.7243883817964658  0.0689794730977624  0.7623617754177235  1.0000
  O   O13       1.0  0.1432667921849315  0.7706876454078253  0.6689768479175415  1.0000
  O   O14       1.0  0.3567314873885294  0.7293226742270561  0.16897279894477182  1.0000
  O   O15       1.0  0.8567281733195387  0.22932269930440435  0.3310205095860398  1.0000
  O   O16       1.0  0.6432621573151635  0.2706742878431496  0.831022385973853  1.0000
  O   O17       1.0  0.42761363876122976  0.21950209672763066  0.7144670061338588  1.0000
  O   O18       1.0  0.07238761276116888  0.2804938403290436  0.21446403865125777  1.0000
  O   O19       1.0  0.5723772482605655  0.7804895378426194  0.28553122043641116  1.0000
  O   O20       1.0  0.9276018954592331  0.7194951305248408  0.7855328843629013  1.0000
