data_image0
_chemical_formula_structural       Cd2H40C36N8O12
_chemical_formula_sum              "Cd2 H40 C36 N8 O12"
_cell_length_a       8.963614877437845
_cell_length_b       9.794731436434095
_cell_length_c       10.950239712687699
_cell_angle_alpha    99.26648818486291
_cell_angle_beta     89.01476304072001
_cell_angle_gamma    102.31074191469087

_space_group_name_H-M_alt    "P 1"
_space_group_IT_number       1

loop_
  _space_group_symop_operation_xyz
  'x, y, z'

loop_
  _atom_site_type_symbol
  _atom_site_label
  _atom_site_symmetry_multiplicity
  _atom_site_fract_x
  _atom_site_fract_y
  _atom_site_fract_z
  _atom_site_occupancy
  Cd  Cd1       1.0  0.6530379052095087  0.6857204860472024  0.060890219118498116  1.0000
  Cd  Cd2       1.0  0.3469606658115225  0.3142782912204325  0.9391095337130295  1.0000
  H   H1        1.0  0.14967728877214634  0.0607192987585847  0.6176808727928461  1.0000
  H   H2        1.0  0.8503246841727545  0.9392848348569415  0.38231692141769713  1.0000
  H   H3        1.0  0.15996177243203388  0.8891502580632817  0.5431801293706258  1.0000
  H   H4        1.0  0.8400410826847988  0.1108528243844873  0.45681841409133744  1.0000
  H   H5        1.0  0.16164045079195688  0.2755814767076857  0.5304390021895955  1.0000
  H   H6        1.0  0.8383637133169799  0.7244226525302012  0.46956242938242104  1.0000
  H   H7        1.0  0.1737659301914007  0.3766049707831556  0.6803437014402718  1.0000
  H   H8        1.0  0.8262355560544065  0.6233970166116476  0.3196565135487432  1.0000
  H   H9        1.0  0.4042021096283221  0.8758807179269611  0.050742179538446  1.0000
  H   H10       1.0  0.595795152400605  0.12411701255055618  0.9492546851830284  1.0000
  H   H11       1.0  0.2646470856019648  0.029865449818359507  0.1920499026948619  1.0000
  H   H12       1.0  0.7353524035183482  0.9701323052392253  0.8079478636058328  1.0000
  H   H13       1.0  0.4021952131624502  0.8443990576886903  0.49381893393167076  1.0000
  H   H14       1.0  0.5978076419543824  0.15560402475907859  0.5061796095302924  1.0000
  H   H15       1.0  0.5424146042431275  0.7040141681790572  0.34001656334157804  1.0000
  H   H16       1.0  0.4575860477338836  0.29598890899378455  0.65997925468632  1.0000
  H   H17       1.0  0.8468562856221242  0.4430493333127502  0.003635175595789521  1.0000
  H   H18       1.0  0.15314628880994255  0.5569473758520117  0.996366065390383  1.0000
  H   H19       1.0  0.9766756530313857  0.31633310000233916  0.8294991081969983  1.0000
  H   H20       1.0  0.023326696014819962  0.6836625505309115  0.1705019752872872  1.0000
  H   H21       1.0  0.803695663731169  0.5550856178427209  0.58647782491704  1.0000
  H   H22       1.0  0.1963053597671163  0.4449142426364929  0.4135229869956021  1.0000
  H   H23       1.0  0.6985928010705466  0.6845589341114859  0.7721558652887738  1.0000
  H   H24       1.0  0.30140616542332305  0.3154366457676687  0.22784705757264592  1.0000
  H   H25       1.0  0.03649271499750029  0.11392642700847941  0.10556801694661291  1.0000
  H   H26       1.0  0.9635033795946981  0.8860712477424358  0.8944325006586454  1.0000
  H   H27       1.0  0.9848689692847757  0.11523689805077449  0.2619597201735999  1.0000
  H   H28       1.0  0.01513006448377739  0.8847640061324425  0.7380394357343008  1.0000
  H   H29       1.0  0.8241219204039749  0.21652353806980773  0.0598439666837791  1.0000
  H   H30       1.0  0.17587662666547735  0.7834752198926933  0.9401576100025935  1.0000
  H   H31       1.0  0.9135362217179975  0.31606165179035617  0.1983608977728508  1.0000
  H   H32       1.0  0.08646255073733038  0.6839381648036493  0.8016408364154161  1.0000
  H   H33       1.0  0.6025844173801645  0.11772419154462452  0.16064450752968182  1.0000
  H   H34       1.0  0.39741411771350943  0.8822745567653032  0.8393579810841062  1.0000
  H   H35       1.0  0.6992780016695406  0.12839601514511403  0.301034523669415  1.0000
  H   H36       1.0  0.30071900644192334  0.8716059037844062  0.6989657120159977  1.0000
  H   H37       1.0  0.7196723331158524  0.3854436448349929  0.3496227250098586  1.0000
  H   H38       1.0  0.2803275948004186  0.6145562178330409  0.6503762682220471  1.0000
  H   H39       1.0  0.5267037719892472  0.2956078030578837  0.320822350397485  1.0000
  H   H40       1.0  0.4732943676315885  0.7043941426405239  0.6791769681864039  1.0000
  C   C1        1.0  0.4008323794479125  0.8729454971802043  0.14984256163328524  1.0000
  C   C2        1.0  0.5991664648621223  0.12705437732922317  0.850153700990454  1.0000
  C   C3        1.0  0.32261333090383454  0.9579999819902552  0.2291589372587168  1.0000
  C   C4        1.0  0.6773852640687609  0.0419988145825201  0.770838991717973  1.0000
  C   C5        1.0  0.32234652715469986  0.9497332033342616  0.3554922798906972  1.0000
  C   C6        1.0  0.6776561145520502  0.05026883013457001  0.6445051941419493  1.0000
  C   C7        1.0  0.3995535641436518  0.8551777749148001  0.3966117414019408  1.0000
  C   C8        1.0  0.6004506478684208  0.1448263929333677  0.6033860424604001  1.0000
  C   C9        1.0  0.477369679491396  0.7760484055843689  0.31136244700729077  1.0000
  C   C10       1.0  0.5226300589663567  0.22395042740987495  0.6886336529404532  1.0000
  C   C11       1.0  0.2524277955312471  0.0492416396177617  0.4460200993945734  1.0000
  C   C12       1.0  0.7475737266419173  0.9507603767347488  0.5539773798121814  1.0000
  C   C13       1.0  0.8440735284388269  0.4674895959331948  0.9102820900468132  1.0000
  C   C14       1.0  0.15592859522151056  0.5325049959685513  0.089718835935571  1.0000
  C   C15       1.0  0.9146645829593043  0.3965261146710972  0.8132322546974464  1.0000
  C   C16       1.0  0.08534045592580942  0.6034716873578104  0.186769133442418  1.0000
  C   C17       1.0  0.901053795173681  0.4279061051761132  0.6942862165356943  1.0000
  C   C18       1.0  0.09894476387156455  0.5720926624389547  0.3057144482232559  1.0000
  C   C19       1.0  0.8181563935309767  0.5296543573865548  0.6779896024559235  1.0000
  C   C20       1.0  0.18184190420104326  0.4703433226392875  0.3220136405833927  1.0000
  C   C21       1.0  0.7577581016641234  0.6001895022136025  0.7808701996671134  1.0000
  C   C22       1.0  0.24224267249672948  0.3998092803289667  0.21913227859847242  1.0000
  C   C23       1.0  0.9691521513454333  0.35131776516663377  0.5846607704996316  1.0000
  C   C24       1.0  0.03085001563800916  0.6486821317340414  0.4153382123840715  1.0000
  C   C25       1.0  0.8489198361767762  0.9496746777738706  0.13253802388560842  1.0000
  C   C26       1.0  0.15107912573706977  0.0503261684939247  0.8674666035868128  1.0000
  C   C27       1.0  0.9381617732552245  0.1009199630871862  0.1675647313530249  1.0000
  C   C28       1.0  0.06183811873368934  0.8990798706231331  0.8324369976611408  1.0000
  C   C29       1.0  0.8442005696040766  0.21237354238942174  0.1578863080667929  1.0000
  C   C30       1.0  0.15579486820205796  0.7876262421607619  0.8421136177889326  1.0000
  C   C31       1.0  0.6908599236722212  0.1862848743050733  0.22427704671811452  1.0000
  C   C32       1.0  0.309137765176878  0.8137149541303187  0.775721956861986  1.0000
  C   C33       1.0  0.6389388334200348  0.322391896173869  0.277347834517407  1.0000
  C   C34       1.0  0.3610599629868574  0.6776079397252701  0.7226520758160149  1.0000
  C   C35       1.0  0.6206486500788202  0.40996083631009844  0.17846820230037963  1.0000
  C   C36       1.0  0.379351265861665  0.5900390167053686  0.8215317028589483  1.0000
  N   N1        1.0  0.4784894437326912  0.7848512136367274  0.19022915313559707  1.0000
  N   N2        1.0  0.5215105081351511  0.2151486683364467  0.8097680162414636  1.0000
  N   N3        1.0  0.18257800504179036  0.9966640392818178  0.5425713510843337  1.0000
  N   N4        1.0  0.8174259576328496  0.003339050629698199  0.4574280991309507  1.0000
  N   N5        1.0  0.769309632696725  0.5689870976197752  0.8953655838614267  1.0000
  N   N6        1.0  0.2306913714300194  0.4310074771656503  0.10463534729505851  1.0000
  N   N7        1.0  0.1104689077701124  0.3336949915806997  0.6002149813437825  1.0000
  N   N8        1.0  0.8895334726234125  0.666305954298913  0.3997850709692301  1.0000
  O   O1        1.0  0.26860060749588405  0.1755224438786271  0.42946089341688065  1.0000
  O   O2        1.0  0.731402247620956  0.8244806385691418  0.5705376500450826  1.0000
  O   O3        1.0  0.8912958345803688  0.3065952476243509  0.48642790153116533  1.0000
  O   O4        1.0  0.10870431872177015  0.693405673675187  0.5135712492026272  1.0000
  O   O5        1.0  0.8558614818943369  0.8595911538715697  0.2034007676344132  1.0000
  O   O6        1.0  0.14413541843505578  0.1404106781848142  0.7966076753977874  1.0000
  O   O7        1.0  0.7686310238149687  0.9166748931373053  0.03212604006807141  1.0000
  O   O8        1.0  0.2313735642984085  0.0833207916285872  0.9678750330680049  1.0000
  O   O9        1.0  0.5482830707224764  0.3492626855553667  0.0800025831866478  1.0000
  O   O10       1.0  0.45171755730297036  0.6507403723123275  0.9199950586960954  1.0000
  O   O11       1.0  0.6823774266926321  0.5431406408848788  0.19976404624763694  1.0000
  O   O12       1.0  0.3176202382048955  0.4568591682453798  0.8002367811873013  1.0000
