data_image0
_chemical_formula_structural       Zn2H20C34Br4N6O8
_chemical_formula_sum              "Zn2 H20 C34 Br4 N6 O8"
_cell_length_a       11.003496964450243
_cell_length_b       15.977600659468095
_cell_length_c       17.343926990951356
_cell_angle_alpha    95.95355349118229
_cell_angle_beta     90.39610644217353
_cell_angle_gamma    94.18257930154478

_space_group_name_H-M_alt    "P 1"
_space_group_IT_number       1

loop_
  _space_group_symop_operation_xyz
  'x, y, z'

loop_
  _atom_site_type_symbol
  _atom_site_label
  _atom_site_symmetry_multiplicity
  _atom_site_fract_x
  _atom_site_fract_y
  _atom_site_fract_z
  _atom_site_occupancy
  Zn  Zn1       1.0  0.4859430941130256  0.41138536899360634  0.49751705000066704  1.0000
  Zn  Zn2       1.0  0.514149007933625  0.5886131330855661  0.5024668202915096  1.0000
  H   H1        1.0  0.3892442071664989  0.7100718001483628  0.4355739893310969  1.0000
  H   H2        1.0  0.3804600623532863  0.8672936527511652  0.4323792705111843  1.0000
  H   H3        1.0  0.6793341071499128  0.9016230181587657  0.597922282928522  1.0000
  H   H4        1.0  0.3206305085603987  0.09839543336907042  0.4020365447563138  1.0000
  H   H5        1.0  0.6192495080287443  0.13266644023138247  0.5677803295424441  1.0000
  H   H6        1.0  0.6106326517601274  0.2898817059999175  0.5644961297303797  1.0000
  H   H7        1.0  0.4449095901236433  0.6101369688825143  0.2577944657745945  1.0000
  H   H8        1.0  0.4430167976232866  0.6040568277087103  0.1124034164361447  1.0000
  H   H9        1.0  0.5829360001257413  0.3589224987654874  0.10073714862696902  1.0000
  H   H10       1.0  0.41725085761201813  0.6412171342529192  0.899314962485292  1.0000
  H   H11       1.0  0.5567804690254974  0.39596040179694103  0.887554217204148  1.0000
  H   H12       1.0  0.5548703301394156  0.38993363627227495  0.7421640648382352  1.0000
  H   H13       1.0  0.8803315078281033  0.6242593310895117  0.5127975424186033  1.0000
  H   H14       1.0  0.1197495479412893  0.37555305269816586  0.4869192551398598  1.0000
  H   H15       1.0  0.16666385032102943  0.6886666365736573  0.4693252061718454  1.0000
  H   H16       1.0  0.1840823418716369  0.6813898567121583  0.5692564823333371  1.0000
  H   H17       1.0  0.04541701256471949  0.7155913151370541  0.5328255781779276  1.0000
  H   H18       1.0  0.9545741748621167  0.2842439597280162  0.4666359351057991  1.0000
  H   H19       1.0  0.8155112618857531  0.3184804987152461  0.4308177033200097  1.0000
  H   H20       1.0  0.8339576633167808  0.31104342465724943  0.5306592625489588  1.0000
  C   C1        1.0  0.5040824901063772  0.4986859401135249  0.34864349168069003  1.0000
  C   C2        1.0  0.2648813791106974  0.5121751620853486  0.5024274434456758  1.0000
  C   C3        1.0  0.4959825276947001  0.5014768001259283  0.6513631320758578  1.0000
  C   C4        1.0  0.7351778192907332  0.48769538084369657  0.49744578265885053  1.0000
  C   C5        1.0  0.45131003650947576  0.7556549419329385  0.47015900155929563  1.0000
  C   C6        1.0  0.44662550011108954  0.841736359048042  0.4686216632625246  1.0000
  C   C7        1.0  0.5304835665987468  0.8955258359164945  0.5153372146587217  1.0000
  C   C8        1.0  0.613945624515864  0.8608384584770333  0.561465122096763  1.0000
  C   C9        1.0  0.6108296717149102  0.7730324040252013  0.5595199190725779  1.0000
  C   C10       1.0  0.38601141346404677  0.13917495734928312  0.4385266537587072  1.0000
  C   C11       1.0  0.4693474081822018  0.10446621378856949  0.48472541137233094  1.0000
  C   C12       1.0  0.5531922626742372  0.1582379671676435  0.5314657900962558  1.0000
  C   C13       1.0  0.5486000512368037  0.2443272325956229  0.5298902554761256  1.0000
  C   C14       1.0  0.38924808322820326  0.22697082554011416  0.4404066922159089  1.0000
  C   C15       1.0  0.511133013999448  0.48823539528562065  0.2615288994025279  1.0000
  C   C16       1.0  0.4735759143314696  0.5551294581286541  0.22206707421055683  1.0000
  C   C17       1.0  0.4728072233940281  0.5522288975122365  0.1421194181695498  1.0000
  C   C18       1.0  0.5121572984184866  0.4804035800366862  0.09830353652744611  1.0000
  C   C19       1.0  0.5515162974009726  0.41347445860254334  0.135855587918698  1.0000
  C   C20       1.0  0.5508653612081461  0.4172265214287094  0.21652426522960164  1.0000
  C   C21       1.0  0.44862432191089846  0.5866671468173764  0.8641827305666183  1.0000
  C   C22       1.0  0.4878657977753136  0.519681812958979  0.9017020793998187  1.0000
  C   C23       1.0  0.5271046213390348  0.44783126542780854  0.857866209500699  1.0000
  C   C24       1.0  0.5263205995036273  0.444975298412892  0.7779261317316825  1.0000
  C   C25       1.0  0.48893989701621615  0.5119343894079975  0.7384870546384832  1.0000
  C   C26       1.0  0.44926851603040063  0.5829540760904878  0.7835124855847513  1.0000
  C   C27       1.0  0.1282703236037861  0.5099668442908936  0.5019238909607467  1.0000
  C   C28       1.0  0.8717999688581487  0.48987651659606263  0.49787302831459374  1.0000
  C   C29       1.0  0.0617588039627393  0.5826927403238856  0.5098187552705014  1.0000
  C   C30       1.0  0.9383166619963885  0.4171361972988805  0.4899831747782742  1.0000
  C   C31       1.0  0.9348862132671626  0.5697887260287827  0.5072809034826236  1.0000
  C   C32       1.0  0.0652128328584354  0.43004160157070714  0.4924727951029198  1.0000
  C   C33       1.0  0.1174421294451875  0.6720352567087174  0.521171975326297  1.0000
  C   C34       1.0  0.8826093606338148  0.3277890394104118  0.478642710303646  1.0000
  Br  Br1       1.0  0.722527466772739  0.7269542572074457  0.6231532617552633  1.0000
  Br  Br2       1.0  0.2778156763686113  0.2730558533236405  0.3766029713923018  1.0000
  Br  Br3       1.0  0.6128432155618384  0.32306402404095985  0.2591504713699919  1.0000
  Br  Br4       1.0  0.38758431298735735  0.6772549177670725  0.7409756148768025  1.0000
  N   N1        1.0  0.532215066263774  0.7213328159151686  0.5147623481103524  1.0000
  N   N2        1.0  0.5393811008678852  0.9850548339107447  0.520232893148723  1.0000
  N   N3        1.0  0.46040354364888003  0.014936753492598598  0.47984800072085687  1.0000
  N   N4        1.0  0.46781894231313004  0.2786675071074427  0.48520018429210415  1.0000
  N   N5        1.0  0.5167632637713524  0.46912757770230235  0.016523137248626103  1.0000
  N   N6        1.0  0.4832505809985435  0.5309343812033802  0.9834768027198423  1.0000
  O   O1        1.0  0.4939314788636437  0.431866695176474  0.3825709280923705  1.0000
  O   O2        1.0  0.5064656083222232  0.5740046934015907  0.38106142689225214  1.0000
  O   O3        1.0  0.32611090045080715  0.5823154516643071  0.4976420223188144  1.0000
  O   O4        1.0  0.3110135787010222  0.44186357484235117  0.5071807527057076  1.0000
  O   O5        1.0  0.5062652325446919  0.5682949707943763  0.6174325319822033  1.0000
  O   O6        1.0  0.49344788042488125  0.4261613995976815  0.6189398650847053  1.0000
  O   O7        1.0  0.6739398155103372  0.41758820528629303  0.5023928288636486  1.0000
  O   O8        1.0  0.6890542001023761  0.5579930046642404  0.49262085304116005  1.0000
