data_image0
_chemical_formula_structural       Gd4H52C28O28
_chemical_formula_sum              "Gd4 H52 C28 O28"
_cell_length_a       7.589902626149298
_cell_length_b       11.802901523087035
_cell_length_c       12.004439908028914
_cell_angle_alpha    90.00001724596146
_cell_angle_beta     90.00025150249542
_cell_angle_gamma    90.09635214336312

_space_group_name_H-M_alt    "P 1"
_space_group_IT_number       1

loop_
  _space_group_symop_operation_xyz
  'x, y, z'

loop_
  _atom_site_type_symbol
  _atom_site_label
  _atom_site_symmetry_multiplicity
  _atom_site_fract_x
  _atom_site_fract_y
  _atom_site_fract_z
  _atom_site_occupancy
  Gd  Gd1       1.0  0.1871894136625301  0.24317993176123306  0.6950048170827116  1.0000
  Gd  Gd2       1.0  0.312809045303645  0.756822229083809  0.19500339878232603  1.0000
  Gd  Gd3       1.0  0.8128108398069996  0.7568182671962516  0.3049933990773752  1.0000
  Gd  Gd4       1.0  0.6871899075330673  0.24317766835820007  0.8049956504013307  1.0000
  H   H1        1.0  0.8717751345093488  0.2566018818179145  0.5517812633094151  1.0000
  H   H2        1.0  0.6282265360893006  0.7433982033804154  0.0517809935352034  1.0000
  H   H3        1.0  0.1282304143437472  0.7433988428536935  0.4482186189086618  1.0000
  H   H4        1.0  0.37177239986831984  0.2565999995795138  0.9482180556481764  1.0000
  H   H5        1.0  0.6020854188031279  0.5598868992272158  0.7298925336233353  1.0000
  H   H6        1.0  0.8979095720120255  0.4401124180008721  0.22989125730862267  1.0000
  H   H7        1.0  0.3979056036204298  0.4401104805052895  0.27010484949867214  1.0000
  H   H8        1.0  0.1020867373526642  0.5598866402045884  0.7701069588461067  1.0000
  H   H9        1.0  0.4948505531500374  0.5936195108980015  0.5997930252753249  1.0000
  H   H10       1.0  0.0051472209830976  0.4063800786856149  0.09979231226011358  1.0000
  H   H11       1.0  0.5051430958664511  0.40637701358897255  0.4002051908753259  1.0000
  H   H12       1.0  0.9948464449153533  0.5936181402835672  0.9002067369159331  1.0000
  H   H13       1.0  0.6557382060856938  0.4844688202319673  0.6071630059779166  1.0000
  H   H14       1.0  0.8442585780703382  0.5155312981570219  0.1071616029721341  1.0000
  H   H15       1.0  0.34424885536548533  0.5155277242669599  0.39283770923893246  1.0000
  H   H16       1.0  0.1557364137795645  0.4844677640507554  0.8928366131807622  1.0000
  H   H17       1.0  0.4986271663917917  0.16560022176108896  0.358498910109617  1.0000
  H   H18       1.0  0.0013763860528400002  0.8344028250401863  0.8584966562831794  1.0000
  H   H19       1.0  0.5013810343699703  0.8344021893879797  0.6415009721123965  1.0000
  H   H20       1.0  0.9986252271349584  0.16559960612044475  0.14150322592967507  1.0000
  H   H21       1.0  0.6860376939740219  0.09801297411230078  0.420623675089061  1.0000
  H   H22       1.0  0.8139625874284064  0.9019880847631756  0.9206223110961531  1.0000
  H   H23       1.0  0.3139731418144436  0.9019894290320069  0.5793753741114996  1.0000
  H   H24       1.0  0.18603637385649557  0.09801265992025779  0.07937923716299618  1.0000
  H   H25       1.0  0.7016049806946825  0.2406513165283002  0.3780694628314265  1.0000
  H   H26       1.0  0.798396323453133  0.7593497251427409  0.8780671798264735  1.0000
  H   H27       1.0  0.2984045375789819  0.759351090618324  0.6219295863673009  1.0000
  H   H28       1.0  0.20160131187167005  0.2406501763017062  0.1219327023804695  1.0000
  H   H29       1.0  0.800660924599306  0.9108256284054335  0.7169909692782069  1.0000
  H   H30       1.0  0.6993419241618143  0.089177897012604  0.2169973657862201  1.0000
  H   H31       1.0  0.19934329829945338  0.08917425302745131  0.2830089129378948  1.0000
  H   H32       1.0  0.30065441054458825  0.9108237029170139  0.7830075145698955  1.0000
  H   H33       1.0  0.8808100422812402  0.9017112479360706  0.5758857872771229  1.0000
  H   H34       1.0  0.6191892024789211  0.09829308895138669  0.07589279656009039  1.0000
  H   H35       1.0  0.11919154558505342  0.09828864150131268  0.42411326191020027  1.0000
  H   H36       1.0  0.38080451407697774  0.9017102134649445  0.9241120837926358  1.0000
  H   H37       1.0  0.7110859808968469  0.9992498867296644  0.6135399672797914  1.0000
  H   H38       1.0  0.7889214804009086  0.0007595212713696  0.1135432544309438  1.0000
  H   H39       1.0  0.2889169329324304  0.0007508459468326  0.38646158098486433  1.0000
  H   H40       1.0  0.21107620556978904  0.999245463619708  0.8864591268521947  1.0000
  H   H41       1.0  0.9831193245335187  0.287779390283788  0.3613060639412068  1.0000
  H   H42       1.0  0.5168831641500587  0.7122199477029769  0.8613088148470494  1.0000
  H   H43       1.0  0.0168809373726688  0.7122196559146089  0.6386913191938958  1.0000
  H   H44       1.0  0.48311578868953114  0.28777994973916066  0.13869106736172648  1.0000
  H   H45       1.0  0.17239938396729568  0.3445418131885844  0.4297854408087574  1.0000
  H   H46       1.0  0.32760462008453584  0.6554570195240004  0.929787373095557  1.0000
  H   H47       1.0  0.8276035214080223  0.6554580722462261  0.5702119423301539  1.0000
  H   H48       1.0  0.6723943158730918  0.3445411834359219  0.0702116760878226  1.0000
  H   H49       1.0  0.9635352602970784  0.4134122904389982  0.4451325403394434  1.0000
  H   H50       1.0  0.53646781747004  0.5865879207946704  0.9451328090609578  1.0000
  H   H51       1.0  0.0364650100601907  0.58658760300095  0.5548681748962849  1.0000
  H   H52       1.0  0.4635324528785745  0.41341197264489443  0.05486540709940609  1.0000
  C   C1        1.0  0.40881715091834536  0.4388666570213005  0.6771509272345212  1.0000
  C   C2        1.0  0.091179824673489  0.5611312660822917  0.1771521659161479  1.0000
  C   C3        1.0  0.5911712364727392  0.5611307307157105  0.3228456228587007  1.0000
  C   C4        1.0  0.908819111281254  0.43886693687750256  0.8228460502421056  1.0000
  C   C5        1.0  0.5474421683165785  0.5260224141472207  0.6521895353658351  1.0000
  C   C6        1.0  0.9525562705683227  0.4739802559317354  0.15218925423047838  1.0000
  C   C7        1.0  0.45255680983009944  0.4739800250175179  0.34780701474287656  1.0000
  C   C8        1.0  0.047441381632673106  0.5260213399946634  0.8478097949516226  1.0000
  C   C9        1.0  0.550369152418341  0.2149073452217465  0.5279221375263247  1.0000
  C   C10       1.0  0.9496494721505542  0.7850918333028003  0.027917776242809094  1.0000
  C   C11       1.0  0.4496350704833035  0.7850925362112661  0.4720785777148961  1.0000
  C   C12       1.0  0.05034947225238539  0.21490721689842468  0.9720829389909439  1.0000
  C   C13       1.0  0.611376064189514  0.17766509840043906  0.4139777087419318  1.0000
  C   C14       1.0  0.8886254886956878  0.8223359544110452  0.9139773616486621  1.0000
  C   C15       1.0  0.3886347716018363  0.822337304743996  0.5860221734837481  1.0000
  C   C16       1.0  0.1113747901097781  0.1776647862703342  0.08602585266256567  1.0000
  C   C17       1.0  0.9669955970155398  0.047258910150198084  0.6691304461790395  1.0000
  C   C18       1.0  0.5329766004543259  0.9527429979885295  0.16912247687763227  1.0000
  C   C19       1.0  0.03301256999094449  0.9527401120348314  0.330870269067546  1.0000
  C   C20       1.0  0.4670210433157891  0.04725775069721999  0.8308790713796836  1.0000
  C   C21       1.0  0.8332018890341074  0.958336372859776  0.6411157615815383  1.0000
  C   C22       1.0  0.6668070301647191  0.04166795624826139  0.1411220533538113  1.0000
  C   C23       1.0  0.1668010163527498  0.04166351257554619  0.3588849536578491  1.0000
  C   C24       1.0  0.3331906220535855  0.9583336396789192  0.8588819939790112  1.0000
  C   C25       1.0  0.030167739302278597  0.3311498790119458  0.4370800419426003  1.0000
  C   C26       1.0  0.46983498931648177  0.6688481127246603  0.9370798748435758  1.0000
  C   C27       1.0  0.9698338316849302  0.6688483159433503  0.5629190072444387  1.0000
  C   C28       1.0  0.5301639550749185  0.3311509374760533  0.06291750828970069  1.0000
  O   O1        1.0  0.4402463764337838  0.36268156331776413  0.7523797921293321  1.0000
  O   O2        1.0  0.059751128689917686  0.6373172303655392  0.25237930012270476  1.0000
  O   O3        1.0  0.5597512335781616  0.6373157964038255  0.24762175612743675  1.0000
  O   O4        1.0  0.9402491247824968  0.3626809685920734  0.747619749062508  1.0000
  O   O5        1.0  0.26430732281894354  0.43646051520008916  0.6249083884611295  1.0000
  O   O6        1.0  0.23569062529533366  0.5635390821757866  0.12491086291156246  1.0000
  O   O7        1.0  0.7356850255589436  0.5635377077711468  0.37508899466284606  1.0000
  O   O8        1.0  0.7643017484069501  0.436461682518825  0.8750881862630705  1.0000
  O   O9        1.0  0.3870521845571275  0.21614313248515768  0.5476037950599917  1.0000
  O   O10       1.0  0.11293466262537072  0.7838539312023797  0.04760099579522149  1.0000
  O   O11       1.0  0.6129559402487671  0.7838516534945442  0.45239608716077834  1.0000
  O   O12       1.0  0.8870669421257772  0.21614765271733916  0.952399719442617  1.0000
  O   O13       1.0  0.6699766105807682  0.24277578945812905  0.599230091401509  1.0000
  O   O14       1.0  0.8300148316928642  0.7572226479971961  0.09923038714748598  1.0000
  O   O15       1.0  0.3300302811086269  0.7572274729344174  0.4007706238439325  1.0000
  O   O16       1.0  0.16998409582522103  0.2427747077216935  0.9007686620357588  1.0000
  O   O17       1.0  0.12345621629268781  0.043695649008128584  0.6337382000537486  1.0000
  O   O18       1.0  0.3765800009323428  0.9563038350408631  0.1337461820758961  1.0000
  O   O19       1.0  0.8765466806603969  0.9563033891864167  0.3662641812357491  1.0000
  O   O20       1.0  0.6234215869454899  0.0436960543970315  0.8662561992119039  1.0000
  O   O21       1.0  0.9207575552088514  0.13230821133101497  0.73142068099186  1.0000
  O   O22       1.0  0.5792558660889284  0.8676885086160551  0.23142197820754967  1.0000
  O   O23       1.0  0.07924534173846348  0.8676908268632674  0.2685800342473925  1.0000
  O   O24       1.0  0.4207457217802499  0.13231138082145583  0.7685779040048927  1.0000
  O   O25       1.0  0.0011836270779000005  0.2612240601871747  0.53289287446551  1.0000
  O   O26       1.0  0.4988176277642963  0.7387746493939036  0.032895300332405994  1.0000
  O   O27       1.0  0.9988192529787979  0.7387732835245159  0.46710450867298187  1.0000
  O   O28       1.0  0.501178681606163  0.2612244088118203  0.9671045818725614  1.0000
