data_image0
_chemical_formula_structural       Zn4H42C72Br6N20
_chemical_formula_sum              "Zn4 H42 C72 Br6 N20"
_cell_length_a       18.776766170590886
_cell_length_b       19.419924987477845
_cell_length_c       21.303848577686363
_cell_angle_alpha    102.87468932625004
_cell_angle_beta     110.29220622570898
_cell_angle_gamma    113.68109017637512

_space_group_name_H-M_alt    "P 1"
_space_group_IT_number       1

loop_
  _space_group_symop_operation_xyz
  'x, y, z'

loop_
  _atom_site_type_symbol
  _atom_site_label
  _atom_site_symmetry_multiplicity
  _atom_site_fract_x
  _atom_site_fract_y
  _atom_site_fract_z
  _atom_site_occupancy
  Zn  Zn1       1.0  0.8764437485979784  0.8683074431455821  0.4643747928704086  1.0000
  Zn  Zn2       1.0  0.1262843089734886  0.100044360810017  0.5003150737193494  1.0000
  Zn  Zn3       1.0  0.09782633075578671  0.9633437983016789  0.5706244935145077  1.0000
  Zn  Zn4       1.0  0.9084878888035064  0.9920298071889988  0.3834163657515359  1.0000
  H   H1        1.0  0.2995311815655626  0.07974628431419721  0.731455277722297  1.0000
  H   H2        1.0  0.7013763658892316  0.9658006546503941  0.30897217056106985  1.0000
  H   H3        1.0  0.32746593745334013  0.2492464657396242  0.6271339380704288  1.0000
  H   H4        1.0  0.6631992933956993  0.7946232446899016  0.411386166803666  1.0000
  H   H5        1.0  0.8437084759358697  0.08704523574088095  0.4645823801561022  1.0000
  H   H6        1.0  0.1266412777894956  0.07090079792465788  0.7162522384949027  1.0000
  H   H7        1.0  0.8792634145137653  0.7218368234076563  0.3607638093178663  1.0000
  H   H8        1.0  0.1445813207819668  0.007817686373272202  0.3636436911525677  1.0000
  H   H9        1.0  0.9107581490884087  0.029543535661950615  0.24231739773308178  1.0000
  H   H10       1.0  0.9032780452757905  0.8757063189347672  0.24057132629497577  1.0000
  H   H11       1.0  0.1313089181699567  0.8403104018044016  0.469802462513968  1.0000
  H   H12       1.0  0.40771268803405997  0.913763364372393  0.2508791286858523  1.0000
  H   H13       1.0  0.546411113545787  0.9221171133762739  0.26312867993603817  1.0000
  H   H14       1.0  0.536896237449767  0.7905639799581863  0.4014784952195213  1.0000
  H   H15       1.0  0.3986871110967769  0.7823568182005615  0.3889796516907465  1.0000
  H   H16       1.0  0.2469550532644575  0.7320907034246887  0.3186992579221623  1.0000
  H   H17       1.0  0.36854595014487057  0.9782039272502416  0.3284839982619018  1.0000
  H   H18       1.0  0.06516777359669848  0.4766113528252022  0.6627056022977128  1.0000
  H   H19       1.0  0.0747819131505665  0.35323837601539043  0.6613564931157183  1.0000
  H   H20       1.0  0.848646165680009  0.2084018249989868  0.4420077613242057  1.0000
  H   H21       1.0  0.8359948666137601  0.3309215688950645  0.445681683552273  1.0000
  H   H22       1.0  0.8244318305271534  0.450536199662345  0.5411929583170192  1.0000
  H   H23       1.0  0.8243300990996758  0.5756192004876083  0.5331957983918156  1.0000
  H   H24       1.0  0.081170725987235  0.6693592331426288  0.5439973176001728  1.0000
  H   H25       1.0  0.4204645038407193  0.20768094649036326  0.8491875651982069  1.0000
  H   H26       1.0  0.5599990874156688  0.3284030834846021  0.9583703520520357  1.0000
  H   H27       1.0  0.47983193908618926  0.3238246379228115  0.7085776937258073  1.0000
  H   H28       1.0  0.8208907538774355  0.7517592163656416  0.13114476173046077  1.0000
  H   H29       1.0  0.9509070707569123  0.08959793942826619  0.05213605263037371  1.0000
  H   H30       1.0  0.8634188021069775  0.9440765457363935  0.8418164687142988  1.0000
  H   H31       1.0  0.8506511725122294  0.9250146446603438  0.718481448665244  1.0000
  H   H32       1.0  0.1377662451408241  0.13820180019374823  0.9462604103137763  1.0000
  H   H33       1.0  0.196250264440458  0.0937090030670333  0.14328479108353775  1.0000
  H   H34       1.0  0.1244195655684166  0.12544309640833262  0.8234924334451464  1.0000
  H   H35       1.0  0.1057711344040229  0.8046248436561922  0.6049844813171388  1.0000
  H   H36       1.0  0.2662583248823864  0.0015529544977326065  0.3637814819204336  1.0000
  H   H37       1.0  0.7834631776418561  0.49079152903833295  0.15093954855064598  1.0000
  H   H38       1.0  0.8684724519580412  0.6212382827264378  0.2650273730132893  1.0000
  H   H39       1.0  0.740247453977318  0.6219332597293246  0.01817183494206619  1.0000
  H   H40       1.0  0.6165296443950937  0.44614387105353603  0.8188837540140312  1.0000
  H   H41       1.0  0.9486097729871901  0.10566697575023906  0.17064391001522222  1.0000
  H   H42       1.0  0.19136073963890246  0.10331602180382758  0.260243976499673  1.0000
  C   C1        1.0  0.9096328801809935  0.964399530686272  0.6165690711840384  1.0000
  C   C2        1.0  0.0606713706327824  0.2051818630200444  0.5599029191382596  1.0000
  C   C3        1.0  0.2923740936728406  0.11180462277347654  0.6960600797940869  1.0000
  C   C4        1.0  0.7059937299970684  0.9263769120899568  0.3372830283580936  1.0000
  C   C5        1.0  0.3074740718338447  0.19753623301705397  0.6422380615346126  1.0000
  C   C6        1.0  0.6865941733401044  0.8393878307994598  0.3896372818790395  1.0000
  C   C7        1.0  0.9159848139354381  0.11861142541921049  0.4930847293673395  1.0000
  C   C8        1.0  0.05582588443353131  0.035018933271757605  0.6766586740874841  1.0000
  C   C9        1.0  0.9825437040073409  0.01054878742020554  0.6893660323185812  1.0000
  C   C10       1.0  0.9794594876967935  0.20284503610222515  0.5398438513475056  1.0000
  C   C11       1.0  0.3527222176367673  0.19160575582427697  0.7070494864661114  1.0000
  C   C12       1.0  0.642043301831457  0.8720361245198303  0.35043727916599465  1.0000
  C   C13       1.0  0.8885052647050458  0.7700102207302635  0.3410291092797521  1.0000
  C   C14       1.0  0.13792529505298748  0.9736623449621717  0.3972883214173493  1.0000
  C   C15       1.0  0.0377719984736302  0.7876686933405566  0.5706018717137906  1.0000
  C   C16       1.0  0.9780594273053184  0.06390857338998066  0.2887121334935614  1.0000
  C   C17       1.0  0.12210180896977359  0.13447602615799067  0.3633581736518678  1.0000
  C   C18       1.0  0.8931950603685552  0.7264781738123745  0.5023067164582499  1.0000
  C   C19       1.0  0.8992905128829135  0.8479637245653747  0.27916057671165345  1.0000
  C   C20       1.0  0.13036315346455038  0.8874880397190523  0.45084417349202954  1.0000
  C   C21       1.0  0.8813045228226103  0.7680904876584336  0.2724993736045889  1.0000
  C   C22       1.0  0.1523234283325579  0.9079826462281841  0.3979826498611485  1.0000
  C   C23       1.0  0.959016026504891  0.7095006148974293  0.5369301138744474  1.0000
  C   C24       1.0  0.0593717866959551  0.10325716524104682  0.28859765519600694  1.0000
  C   C25       1.0  0.4360295560255025  0.8867543022335692  0.28421682007052584  1.0000
  C   C26       1.0  0.5145135456703755  0.8913619986903003  0.2911495355458982  1.0000
  C   C27       1.0  0.5541148582078961  0.8585862162188959  0.33463707684823146  1.0000
  C   C28       1.0  0.5083479516068223  0.816573880522348  0.3670756354689288  1.0000
  C   C29       1.0  0.4297010781773666  0.8114535018552259  0.35974248555390875  1.0000
  C   C30       1.0  0.3929626480404593  0.8485100885964698  0.3199103886666775  1.0000
  C   C31       1.0  0.2521516342346573  0.7918744399202919  0.3287698722358171  1.0000
  C   C32       1.0  0.192913109659635  0.8052192412243996  0.3470558742774513  1.0000
  C   C33       1.0  0.197814887318728  0.881959472994559  0.3634131420407555  1.0000
  C   C34       1.0  0.2600047551651059  0.941180602364177  0.35177682883439587  1.0000
  C   C35       1.0  0.3182209662229383  0.9282449210270655  0.3321710165076721  1.0000
  C   C36       1.0  0.3187137264969522  0.854620199432105  0.32405300279491894  1.0000
  C   C37       1.0  0.016960885099059894  0.4173606099940058  0.6145358658354707  1.0000
  C   C38       1.0  0.0227578007078364  0.3479101162736313  0.613499491852032  1.0000
  C   C39       1.0  0.9645620942214636  0.27210527096843146  0.550337178105714  1.0000
  C   C40       1.0  0.8948554494910326  0.2665650039785205  0.4915915825178627  1.0000
  C   C41       1.0  0.8879747889005856  0.3356272644653015  0.49332916383502806  1.0000
  C   C42       1.0  0.951634448385569  0.41308436421486044  0.5534693376481881  1.0000
  C   C43       1.0  0.8809520916298581  0.49907530052093557  0.5420484759729474  1.0000
  C   C44       1.0  0.88069912162657  0.569364854278163  0.53731014490193  1.0000
  C   C45       1.0  0.9534729857953367  0.6329062477608857  0.5392836921136988  1.0000
  C   C46       1.0  0.0252795051102339  0.6228392834456429  0.54524825725683  1.0000
  C   C47       1.0  0.024825968336017495  0.5526927741279265  0.5507623149836007  1.0000
  C   C48       1.0  0.9530429309569044  0.48882323291064017  0.5497611327174706  1.0000
  C   C49       1.0  0.848733873556192  0.6960254814545479  0.2070158299892099  1.0000
  C   C50       1.0  0.815099042761176  0.695280596684249  0.13616117738399663  1.0000
  C   C51       1.0  0.769600450955501  0.6230673932348977  0.07265394167028201  1.0000
  C   C52       1.0  0.7553091553558815  0.5478784938581072  0.07764028780722748  1.0000
  C   C53       1.0  0.7935861898083374  0.5490028016225421  0.147743717964296  1.0000
  C   C54       1.0  0.8403394603535048  0.6219417595516816  0.21117164833612623  1.0000
  C   C55       1.0  0.5421406627243073  0.32596924699017654  0.903150242022825  1.0000
  C   C56       1.0  0.46454531740683086  0.25870481094708  0.84181632734073  1.0000
  C   C57       1.0  0.5968846244242911  0.39497455086293337  0.8953784648032438  1.0000
  C   C58       1.0  0.438938537438517  0.25709935534136  0.7706348782364784  1.0000
  C   C59       1.0  0.4967600517874828  0.324520126275381  0.7632078474994727  1.0000
  C   C60       1.0  0.5736109004394692  0.3926291940069787  0.8243799316847883  1.0000
  C   C61       1.0  0.9866211207331405  0.02332669338316151  0.761123255943211  1.0000
  C   C62       1.0  0.0673260352696872  0.08388898745988628  0.8268758556782387  1.0000
  C   C63       1.0  0.0754376522188593  0.09193724486414108  0.8957025807300311  1.0000
  C   C64       1.0  0.0015848062874112994  0.04075433940438702  0.9011919885763929  1.0000
  C   C65       1.0  0.9202424482716224  0.9825559230045826  0.8365453330727489  1.0000
  C   C66       1.0  0.913358566177294  0.9729192668022648  0.7677776569907522  1.0000
  C   C67       1.0  0.0028543208552704986  0.09259480771787307  0.09830477975349786  1.0000
  C   C68       1.0  0.0017158599011252997  0.10073809945256328  0.16408900899622128  1.0000
  C   C69       1.0  0.07268370122390172  0.0888867381579885  0.09028533618379697  1.0000
  C   C70       1.0  0.06870817012823952  0.10368127745509531  0.22344398613368807  1.0000
  C   C71       1.0  0.1392978381632943  0.10180860967039959  0.21537940569321276  1.0000
  C   C72       1.0  0.14211921353540188  0.09591619569320639  0.15008436575886455  1.0000
  Br  Br1       1.0  0.7865476401339464  0.9132654982226213  0.5833024419955278  1.0000
  Br  Br2       1.0  0.24746889155589716  0.1973733529210762  0.41178880667531803  1.0000
  Br  Br3       1.0  0.7690934768140777  0.6553154600267347  0.44113926514518176  1.0000
  Br  Br4       1.0  0.17788587706417758  0.29706481184381767  0.6166953612452486  1.0000
  Br  Br5       1.0  0.10381005788463683  0.7135454372360214  0.3492834456220065  1.0000
  Br  Br6       1.0  0.1239762629485028  0.5439446090638428  0.554585494813061  1.0000
  N   N1        1.0  0.9373924001497899  0.9607098953540782  0.5662033718953622  1.0000
  N   N2        1.0  0.046361180902948704  0.12960824423284117  0.5271109979079682  1.0000
  N   N3        1.0  0.21786232574182662  0.0738786216418319  0.6301813492152704  1.0000
  N   N4        1.0  0.7820117763233797  0.9262199245800316  0.36674107435799624  1.0000
  N   N5        1.0  0.2274680116632766  0.1278061493683822  0.5970741828590319  1.0000
  N   N6        1.0  0.7698724016949254  0.8721744593176549  0.39961857097549797  1.0000
  N   N7        1.0  0.9564076116336436  0.07573984150178595  0.4853656064874483  1.0000
  N   N8        1.0  0.0283948964002789  0.004530626733604504  0.6037887250846623  1.0000
  N   N9        1.0  0.9073878644654129  0.8442366079232142  0.3836505783320375  1.0000
  N   N10       1.0  0.11126569842545561  0.9912835777068234  0.4465752856899811  1.0000
  N   N11       1.0  0.0198591551229654  0.8449678503653432  0.5571702609687746  1.0000
  N   N12       1.0  0.9916620393570456  0.07076674800605084  0.35664565526925424  1.0000
  N   N13       1.0  0.08212488038515181  0.11540678267125057  0.4037429560197764  1.0000
  N   N14       1.0  0.929251073587693  0.8065959359407628  0.5141072490115588  1.0000
  N   N15       1.0  0.9141916714955656  0.8921130592327132  0.3455977129540598  1.0000
  N   N16       1.0  0.1069504206574905  0.9383523504090192  0.4794479292440953  1.0000
  N   N17       1.0  0.6966676697375433  0.46940824905046713  0.017480170746253437  1.0000
  N   N18       1.0  0.6687896374362978  0.47088598347959726  0.954489453375487  1.0000
  N   N19       1.0  0.0012111785017978962  0.045092272555223224  0.9677049343314718  1.0000
  N   N20       1.0  0.0770831816692237  0.07988518895040639  0.024396169398883682  1.0000
