data_image0
_chemical_formula_structural       Sr2H20C8N16O12
_chemical_formula_sum              "Sr2 H20 C8 N16 O12"
_cell_length_a       7.590088496367565
_cell_length_b       7.645866036386704
_cell_length_c       11.346012260916833
_cell_angle_alpha    74.0468139892423
_cell_angle_beta     87.1124696280586
_cell_angle_gamma    63.12220374848726

_space_group_name_H-M_alt    "P 1"
_space_group_IT_number       1

loop_
  _space_group_symop_operation_xyz
  'x, y, z'

loop_
  _atom_site_type_symbol
  _atom_site_label
  _atom_site_symmetry_multiplicity
  _atom_site_fract_x
  _atom_site_fract_y
  _atom_site_fract_z
  _atom_site_occupancy
  Sr  Sr1       1.0  0.3029334722788237  0.7748983119005074  0.5404390825129114  1.0000
  Sr  Sr2       1.0  0.6970669517337597  0.22510206796264498  0.4595610924032273  1.0000
  H   H1        1.0  0.47072190803367425  0.2850614159678813  0.04515138059324643  1.0000
  H   H2        1.0  0.5292765197676986  0.7149404916820785  0.9548485808368314  1.0000
  H   H3        1.0  0.11891201957477887  0.6159320302304679  0.995103277440272  1.0000
  H   H4        1.0  0.8810877573341643  0.3840668137874488  0.004896331651060797  1.0000
  H   H5        1.0  0.2798163303079448  0.37265499899404375  0.5633985845231424  1.0000
  H   H6        1.0  0.7201834103431609  0.6273469035319933  0.4366004465425491  1.0000
  H   H7        1.0  0.24673606767604644  0.46005682389497327  0.41851811254146304  1.0000
  H   H8        1.0  0.7532643504647467  0.5399435498660948  0.5814811823614648  1.0000
  H   H9        1.0  0.9129971338385519  0.7323916711767777  0.5890932452800258  1.0000
  H   H10       1.0  0.08700261268434421  0.26761023745135043  0.4109066657988762  1.0000
  H   H11       1.0  0.8992640875127408  0.7959398633355261  0.44391477390756523  1.0000
  H   H12       1.0  0.10073501777831952  0.20406051554945037  0.5560854513597421  1.0000
  H   H13       1.0  0.975264659405319  0.9391524315703634  0.7425805227223565  1.0000
  H   H14       1.0  0.024733768396053808  0.06084947607959631  0.2574194387077214  1.0000
  H   H15       1.0  0.1773588677661593  0.7301294229035804  0.7997625500502111  1.0000
  H   H16       1.0  0.8226408787567436  0.269872485724548  0.20023736102869097  1.0000
  H   H17       1.0  0.40164165157502657  0.0013525880809837014  0.6890861507330472  1.0000
  H   H18       1.0  0.5983580949478693  0.9986493205471445  0.3109137603458549  1.0000
  H   H19       1.0  0.5972999393372761  0.7906352422681238  0.7260247730339345  1.0000
  H   H20       1.0  0.40269980718562687  0.20936666636000478  0.27397513804496754  1.0000
  C   C1        1.0  0.6169779886794232  0.2524062358691381  0.7691679519005419  1.0000
  C   C2        1.0  0.3830211224834272  0.7475941491179298  0.23083315337996885  1.0000
  C   C3        1.0  0.4908373856267048  0.30642282512588537  0.947877639413811  1.0000
  C   C4        1.0  0.5091637158755661  0.6935760259722911  0.05212279933955702  1.0000
  C   C5        1.0  0.9303826246771295  0.6642959486008666  0.2583204148800107  1.0000
  C   C6        1.0  0.0696184768251413  0.3357029024973102  0.7416800238733572  1.0000
  C   C7        1.0  0.08369966013305691  0.5991624273976512  0.09007892601985654  1.0000
  C   C8        1.0  0.9162987980543632  0.4008364156420896  0.9099207334226449  1.0000
  N   N1        1.0  0.45826252811985313  0.4382179828169868  0.746137292955048  1.0000
  N   N2        1.0  0.5417385733824175  0.5617808682811899  0.25386314579832  1.0000
  N   N3        1.0  0.38334325718783185  0.4671709758722359  0.8575467175374385  1.0000
  N   N4        1.0  0.6166578384426487  0.5328278691238566  0.1424528412027257  1.0000
  N   N5        1.0  0.6403976388722371  0.16529414936722028  0.8995836101732738  1.0000
  N   N6        1.0  0.35960346263004084  0.8347047017309563  0.1004168285801015  1.0000
  N   N7        1.0  0.7891573751588012  0.9781966572028297  0.9559265085110769  1.0000
  N   N8        1.0  0.21084241349373664  0.021802199019262496  0.04407486060667051  1.0000
  N   N9        1.0  0.7740675334585846  0.9295118581427102  0.07047183364080217  1.0000
  N   N10       1.0  0.22593289055399876  0.0704885217204421  0.9295283412753365  1.0000
  N   N11       1.0  0.922813895766069  0.7437881090045478  0.1299792384150464  1.0000
  N   N12       1.0  0.07718456242134408  0.2562107340351929  0.8700204210274549  1.0000
  N   N13       1.0  0.09140501087850343  0.48140936178185006  0.2906128834303985  1.0000
  N   N14       1.0  0.9085940944125496  0.5185910171031265  0.7093873418369089  1.0000
  N   N15       1.0  0.1842613914535605  0.44347423778299333  0.18482355555105565  1.0000
  N   N16       1.0  0.8157383854553897  0.5565246062349232  0.8151760535402774  1.0000
  O   O1        1.0  0.7291571107007259  0.16221202623287206  0.6966381714324115  1.0000
  O   O2        1.0  0.2708453457809271  0.8377837673353525  0.30336279499542235  1.0000
  O   O3        1.0  0.8055454506846759  0.7551384238221316  0.32635596882059303  1.0000
  O   O4        1.0  0.1944562920494448  0.2448619570191894  0.6736441557443698  1.0000
  O   O5        1.0  0.32735794693335407  0.4432673512781308  0.49116331318267475  1.0000
  O   O6        1.0  0.6726417995895491  0.5567345573499978  0.5088365978962273  1.0000
  O   O7        1.0  0.9317711292518924  0.8290895964882451  0.5162189394163194  1.0000
  O   O8        1.0  0.06822861727101068  0.1709123121398832  0.48378097166258277  1.0000
  O   O9        1.0  0.11498599335514108  0.8558303602468553  0.7305941728625882  1.0000
  O   O10       1.0  0.8850137472959644  0.14417154227918158  0.26940485820310306  1.0000
  O   O11       1.0  0.501301811451448  0.8932873531877449  0.6559813799898111  1.0000
  O   O12       1.0  0.49869729383960515  0.106713025697232  0.3440188452774962  1.0000
