data_image0
_chemical_formula_structural       Hf12H96C112O64
_chemical_formula_sum              "Hf12 H96 C112 O64"
_cell_length_a       17.514946763638697
_cell_length_b       19.607881412249913
_cell_length_c       27.58295478521304
_cell_angle_alpha    90.07004683233501
_cell_angle_beta     89.96171255975257
_cell_angle_gamma    89.95200654179747

_space_group_name_H-M_alt    "P 1"
_space_group_IT_number       1

loop_
  _space_group_symop_operation_xyz
  'x, y, z'

loop_
  _atom_site_type_symbol
  _atom_site_label
  _atom_site_symmetry_multiplicity
  _atom_site_fract_x
  _atom_site_fract_y
  _atom_site_fract_z
  _atom_site_occupancy
  Hf  Hf1       1.0  0.9020821006403849  0.08805230262796468  0.0046346197421911  1.0000
  Hf  Hf2       1.0  0.10388964146929422  0.08352478523458728  0.004458563257571801  1.0000
  Hf  Hf3       1.0  0.8967440772011487  0.9080470107940287  0.0038863436343632004  1.0000
  Hf  Hf4       1.0  0.09828860722206659  0.9039208588651064  0.003768041987307  1.0000
  Hf  Hf5       1.0  0.00011971873796310026  0.9960000557336599  0.9150225136351224  1.0000
  Hf  Hf6       1.0  0.00017364532895669998  0.9956082329665747  0.0934651229729297  1.0000
  Hf  Hf7       1.0  0.4040503586016157  0.40345630450174497  0.5048746661190648  1.0000
  Hf  Hf8       1.0  0.605589917223618  0.40927002975104887  0.5041699353684024  1.0000
  Hf  Hf9       1.0  0.3965422062616283  0.5835468373618724  0.5046411419807627  1.0000
  Hf  Hf10      1.0  0.5975395483116231  0.5885756276570787  0.5047034418515324  1.0000
  Hf  Hf11      1.0  0.5004153858552413  0.49599100068984825  0.5939069128246643  1.0000
  Hf  Hf12      1.0  0.5004949809720641  0.4955574776674184  0.41517581894024164  1.0000
  H   H1        1.0  0.9990573222514739  0.13815099923282761  0.07497350496298341  1.0000
  H   H2        1.0  0.15937120747236827  0.9925300449485802  0.9333657785631715  1.0000
  H   H3        1.0  0.0017664931100042996  0.8532103066331803  0.0742472643397747  1.0000
  H   H4        1.0  0.8416386930440325  0.9964048830496991  0.9332178763864646  1.0000
  H   H5        1.0  0.2513644515350961  0.0791210908862965  0.9782993927015085  1.0000
  H   H6        1.0  0.2279975510719581  0.9866022964073903  0.0064579001438574  1.0000
  H   H7        1.0  0.0927875801718159  0.7743927828746278  0.9781874793115648  1.0000
  H   H8        1.0  0.988738320232187  0.7921729258648184  0.0030355589418036  1.0000
  H   H9        1.0  0.7525866836905024  0.9167526030367554  0.0325692669218967  1.0000
  H   H10       1.0  0.772135680808148  0.0077951966903882  0.0055561530037593  1.0000
  H   H11       1.0  0.9102823199759695  0.2172140106824827  0.9774271283951634  1.0000
  H   H12       1.0  0.012707097233608498  0.19895582512622667  0.0028197463730136995  1.0000
  H   H13       1.0  0.9086580787410982  0.7707434191789061  0.0309928965571302  1.0000
  H   H14       1.0  0.7496669269786693  0.07852680254053009  0.9757302160257453  1.0000
  H   H15       1.0  0.09303022827855052  0.21894951788510753  0.0315206451245658  1.0000
  H   H16       1.0  0.24098758733833137  0.9173578715078463  0.03852885122324781  1.0000
  H   H17       1.0  0.5004006245041667  0.3530604667577606  0.43422353050574003  1.0000
  H   H18       1.0  0.6602102114478043  0.5007896992484573  0.5749448325919816  1.0000
  H   H19       1.0  0.5016901441823194  0.6384445242166307  0.4340285663687027  1.0000
  H   H20       1.0  0.3401878539416856  0.4931191930917649  0.5750370358179424  1.0000
  H   H21       1.0  0.7535792807038958  0.4152876296179783  0.5292241600207817  1.0000
  H   H22       1.0  0.7282432233639539  0.5075806633824912  0.5018817361130345  1.0000
  H   H23       1.0  0.5908627985308428  0.7179789190042314  0.5298484496431115  1.0000
  H   H24       1.0  0.48713201558144453  0.7000626873331584  0.504569162781273  1.0000
  H   H25       1.0  0.2514650149441877  0.5783269775551715  0.47799844825323135  1.0000
  H   H26       1.0  0.273531934435951  0.48350856135820675  0.5027579764837284  1.0000
  H   H27       1.0  0.4118274319382706  0.2738838910214341  0.5300688194506834  1.0000
  H   H28       1.0  0.5149661037428501  0.29310803802879787  0.505670665245681  1.0000
  H   H29       1.0  0.407591846860555  0.7198081748776985  0.4757045719155641  1.0000
  H   H30       1.0  0.26085846764477333  0.4132384777816824  0.4714096155208126  1.0000
  H   H31       1.0  0.5962038806823885  0.27312402719416445  0.4781473169283714  1.0000
  H   H32       1.0  0.7404636679150229  0.5774274622344109  0.4702384726400979  1.0000
  H   H33       1.0  0.31251252946555036  0.735802426268357  0.18048130902295872  1.0000
  H   H34       1.0  0.2511372057234809  0.8013699861235323  0.1144705907537187  1.0000
  H   H35       1.0  0.0845502952021775  0.8787821451915718  0.21462325666038137  1.0000
  H   H36       1.0  0.1409463939819133  0.8090249355482513  0.2803811052025438  1.0000
  H   H37       1.0  0.22558701271299236  0.7911161409609379  0.333194007469622  1.0000
  H   H38       1.0  0.28148168697377685  0.7208963791299964  0.3986144908692424  1.0000
  H   H39       1.0  0.37656450720815104  0.5840978894944938  0.2929509792041571  1.0000
  H   H40       1.0  0.3158580553156227  0.6505584599711085  0.2269581780977958  1.0000
  H   H41       1.0  0.8174325502148321  0.8377071146207412  0.2809152438279625  1.0000
  H   H42       1.0  0.8785241888658958  0.9043766920756083  0.2151296474802393  1.0000
  H   H43       1.0  0.7779520599656704  0.7721252191292434  0.10877460638661061  1.0000
  H   H44       1.0  0.7211430636070233  0.7018020556593143  0.17392825052131403  1.0000
  H   H45       1.0  0.6369659309578709  0.6847106298472098  0.22807661339896165  1.0000
  H   H46       1.0  0.5810053899591451  0.6149627030095884  0.2940363428792026  1.0000
  H   H47       1.0  0.7537016531797535  0.6859731273317068  0.3921645907003324  1.0000
  H   H48       1.0  0.8148029275593699  0.7508939523698998  0.325744057956392  1.0000
  H   H49       1.0  0.18850202594400398  0.23361520052237236  0.3306577256880914  1.0000
  H   H50       1.0  0.2515137367681036  0.2993343290428569  0.3960083254011764  1.0000
  H   H51       1.0  0.41199227826655255  0.380369464488865  0.2935247333674766  1.0000
  H   H52       1.0  0.3540092900109927  0.31054841750616896  0.228340140807596  1.0000
  H   H53       1.0  0.2685642497033597  0.2927209371857984  0.1771193267881728  1.0000
  H   H54       1.0  0.21334064748679538  0.22225936870948707  0.1114381056681566  1.0000
  H   H55       1.0  0.1225244237625063  0.0830456145610015  0.21656592773591402  1.0000
  H   H56       1.0  0.18306735588667072  0.14941085611485513  0.2827552768258812  1.0000
  H   H57       1.0  0.1433369063047962  0.8067936973302707  0.7282195108397502  1.0000
  H   H58       1.0  0.08242256645442582  0.8735899855424234  0.7941498776120567  1.0000
  H   H59       1.0  0.24282965134771226  0.7923489259734708  0.896534549747912  1.0000
  H   H60       1.0  0.3084282739942523  0.7294908715383671  0.8305966476920618  1.0000
  H   H61       1.0  0.23188330789167824  0.7919880476812081  0.6773441263394416  1.0000
  H   H62       1.0  0.2930325051187808  0.7249801051356711  0.6115073674485672  1.0000
  H   H63       1.0  0.3813292018539656  0.5837897436954407  0.7161023834977912  1.0000
  H   H64       1.0  0.3159262911639047  0.6467773315103358  0.7821668453907692  1.0000
  H   H65       1.0  0.834120094538882  0.16397997757827912  0.7267528246490117  1.0000
  H   H66       1.0  0.8972780780292312  0.10003981253437641  0.7931177192066698  1.0000
  H   H67       1.0  0.774233541451913  0.21794017780052846  0.8986232543475339  1.0000
  H   H68       1.0  0.7131649352987778  0.2845935044117311  0.8330245029353165  1.0000
  H   H69       1.0  0.6298892907515992  0.29292525332107283  0.7761394005183321  1.0000
  H   H70       1.0  0.5709939192627684  0.36114481096232953  0.7102837185672186  1.0000
  H   H71       1.0  0.7610123937049451  0.3157460248423476  0.6172262248445863  1.0000
  H   H72       1.0  0.8248505503650208  0.254041154164824  0.684227647163695  1.0000
  H   H73       1.0  0.8530248309811554  0.8138434207356084  0.7273466852735595  1.0000
  H   H74       1.0  0.9140343947117486  0.8806263764188883  0.7931352371415488  1.0000
  H   H75       1.0  0.7587531040717719  0.7947875111714992  0.8967068052590575  1.0000
  H   H76       1.0  0.6926694773648023  0.7317535431496367  0.8309440964470768  1.0000
  H   H77       1.0  0.6858945076067896  0.6496683247956624  0.7815932286082585  1.0000
  H   H78       1.0  0.6201776840013267  0.5869633172693725  0.7156642508257107  1.0000
  H   H79       1.0  0.7032147344189069  0.7317456651663932  0.6116675573737782  1.0000
  H   H80       1.0  0.7636048134594517  0.7985428995902666  0.6774397105982004  1.0000
  H   H81       1.0  0.6827828046350533  0.24831039827343912  0.1808637920339322  1.0000
  H   H82       1.0  0.7452811823208448  0.1824632218367626  0.1149868922983046  1.0000
  H   H83       1.0  0.9210488389265381  0.11876133189389286  0.2133398270911115  1.0000
  H   H84       1.0  0.863747930557224  0.189239362289662  0.2785254753099906  1.0000
  H   H85       1.0  0.7818983822975837  0.2055952464229023  0.3327003331437553  1.0000
  H   H86       1.0  0.7252729393850075  0.27602992225322953  0.3980085549310459  1.0000
  H   H87       1.0  0.6139074167623092  0.40141437338093766  0.2920384605820132  1.0000
  H   H88       1.0  0.6744761787201836  0.33478435321460864  0.22594307171211633  1.0000
  H   H89       1.0  0.14216344862543204  0.18161072203033507  0.7277109057776485  1.0000
  H   H90       1.0  0.08216128574601807  0.11481770794323862  0.7938577420196395  1.0000
  H   H91       1.0  0.24676893064091843  0.1926221522536693  0.8949031492264298  1.0000
  H   H92       1.0  0.31192824433480837  0.2547395184112702  0.8285776969175843  1.0000
  H   H93       1.0  0.31702604335430346  0.3391068646979106  0.7814061407104802  1.0000
  H   H94       1.0  0.3826483870741555  0.4024461519079949  0.7157762189328521  1.0000
  H   H95       1.0  0.29214446512304454  0.26329896006153314  0.610297088495635  1.0000
  H   H96       1.0  0.23099166080005054  0.196097990832321  0.6755906259978346  1.0000
  C   C1        1.0  0.8775772009984164  0.11502316151686637  0.889183350457472  1.0000
  C   C2        1.0  0.12751252273615418  0.10822571030235652  0.1203483396053002  1.0000
  C   C3        1.0  0.1235629587892859  0.10994251016908403  0.8879531662019886  1.0000
  C   C4        1.0  0.8738304438990241  0.1060720280803125  0.1209154993366965  1.0000
  C   C5        1.0  0.8702645219971927  0.8825709865561823  0.1189502352395237  1.0000
  C   C6        1.0  0.12081634864097168  0.8767732569830996  0.8886624118166254  1.0000
  C   C7        1.0  0.12749676440432717  0.8847000458307187  0.1211136539398296  1.0000
  C   C8        1.0  0.8778649280030988  0.8814562201828834  0.8881213674229544  1.0000
  C   C9        1.0  0.38059041456555326  0.3762661814805455  0.6199524015411625  1.0000
  C   C10       1.0  0.6285143245283108  0.3831733872489308  0.3884993222109472  1.0000
  C   C11       1.0  0.6255323312035941  0.3827083183460331  0.6203143612392594  1.0000
  C   C12       1.0  0.37279571545228407  0.38478871279698984  0.3878421418616398  1.0000
  C   C13       1.0  0.3703379965510009  0.6079960741342489  0.38909859902719296  1.0000
  C   C14       1.0  0.6197236570906028  0.6156949869711285  0.6202200493819561  1.0000
  C   C15       1.0  0.6270007780348338  0.6065226948232619  0.386892502143688  1.0000
  C   C16       1.0  0.3784572416490661  0.6107007181375935  0.6204509342918811  1.0000
  C   C17       1.0  0.1669764251971486  0.80834979340856  0.24445259620547694  1.0000
  C   C18       1.0  0.23151720615099683  0.7672012040544092  0.2356630365068497  1.0000
  C   C19       1.0  0.26165838307501593  0.7660055084794806  0.18828899910761981  1.0000
  C   C20       1.0  0.22828534930216182  0.8035342926066775  0.1512010192017144  1.0000
  C   C21       1.0  0.16465224234321593  0.8448195295591459  0.16061388608464  1.0000
  C   C22       1.0  0.13451520378772125  0.8470724705152435  0.2077031872679669  1.0000
  C   C23       1.0  0.2661791974671245  0.7263047772885115  0.2748563514993592  1.0000
  C   C24       1.0  0.2571429708767496  0.7449541692665989  0.3238807830191491  1.0000
  C   C25       1.0  0.2892467912425545  0.7062248512170796  0.3608003717163513  1.0000
  C   C26       1.0  0.33295262308184453  0.6482794745094793  0.34985768265420353  1.0000
  C   C27       1.0  0.3427895756179423  0.6293516043052704  0.3012068020334696  1.0000
  C   C28       1.0  0.30929676401410683  0.6673623194947423  0.264437256142628  1.0000
  C   C29       1.0  0.7542654145762598  0.74694424426648  0.18344667922013266  1.0000
  C   C30       1.0  0.76497765498398  0.7641861010534327  0.23257413387472073  1.0000
  C   C31       1.0  0.8097810181701774  0.8219181115323482  0.24330793993652117  1.0000
  C   C32       1.0  0.8434935883702509  0.8600264643289319  0.20669638793461334  1.0000
  C   C33       1.0  0.832299899558393  0.8423373146030428  0.157948320273583  1.0000
  C   C34       1.0  0.7867732379795312  0.7857212105201299  0.146690501682059  1.0000
  C   C35       1.0  0.7304714121878604  0.7231476533379463  0.2717230071723478  1.0000
  C   C36       1.0  0.6643585128012007  0.683927385832753  0.26357414386095  1.0000
  C   C37       1.0  0.6321497595163733  0.6452610831556882  0.30046008288088905  1.0000
  C   C38       1.0  0.664071587609939  0.6458440210544154  0.3470742719096123  1.0000
  C   C39       1.0  0.7293793918319552  0.6851433019703491  0.3558148584240329  1.0000
  C   C40       1.0  0.7625983391735575  0.7223831613649524  0.3185421853415491  1.0000
  C   C41       1.0  0.3295655823265875  0.30914784280331986  0.26469173144436553  1.0000
  C   C42       1.0  0.2661195760904107  0.267069560044213  0.2742279819333008  1.0000
  C   C43       1.0  0.23827288944337968  0.2647681658915815  0.3221395349736084  1.0000
  C   C44       1.0  0.2725959143477183  0.3023613241613177  0.3588917702104908  1.0000
  C   C45       1.0  0.3349231239261456  0.3447747108968571  0.34868487093711303  1.0000
  C   C46       1.0  0.36294943839915556  0.3479170757327593  0.3011118858015536  1.0000
  C   C47       1.0  0.23057186515137568  0.22644203191502746  0.23515689909237378  1.0000
  C   C48       1.0  0.23813216212839447  0.24598292761200466  0.1862482359258237  1.0000
  C   C49       1.0  0.20631890063408062  0.20727493533266983  0.1492104156744105  1.0000
  C   C50       1.0  0.16413679976847817  0.1484962129523382  0.1599385267827316  1.0000
  C   C51       1.0  0.15531423812738146  0.12885996395638696  0.2084771266458461  1.0000
  C   C52       1.0  0.18864230109572586  0.1668605993100201  0.2453889478787872  1.0000
  C   C53       1.0  0.2577225038509141  0.759586241035926  0.822304379472776  1.0000
  C   C54       1.0  0.230883985494188  0.7629895622186565  0.7742084284808541  1.0000
  C   C55       1.0  0.1666837258398246  0.8042850477470155  0.7648182684227791  1.0000
  C   C56       1.0  0.13162603151379668  0.8412328084667138  0.8016359140743816  1.0000
  C   C57       1.0  0.15855514795759257  0.8368074674652918  0.8493973693062742  1.0000
  C   C58       1.0  0.22173083108877728  0.7952406221013887  0.8594276127821486  1.0000
  C   C59       1.0  0.26884466674616897  0.7244614630077706  0.7349315301519114  1.0000
  C   C60       1.0  0.2631662364030802  0.7455516782407584  0.6862441947185474  1.0000
  C   C61       1.0  0.2979342502708349  0.7088273106499372  0.6491749065867864  1.0000
  C   C62       1.0  0.3408574017898047  0.6504339405433512  0.6598527495939167  1.0000
  C   C63       1.0  0.34786958934098783  0.6292983610302656  0.7081714917865514  1.0000
  C   C64       1.0  0.31177476132071297  0.665358717526587  0.7450116253849401  1.0000
  C   C65       1.0  0.7525722765083104  0.2434856529574461  0.82377045812067  1.0000
  C   C66       1.0  0.7689612272689317  0.22952522391075553  0.774732221011405  1.0000
  C   C67       1.0  0.8216050711008264  0.17710926166320462  0.7643620331292169  1.0000
  C   C68       1.0  0.8567435826552056  0.1406535328951861  0.8012743865789036  1.0000
  C   C69       1.0  0.8398735363019084  0.15499495100782923  0.8499426532657424  1.0000
  C   C70       1.0  0.7871915493209298  0.20669433654422423  0.8607896829132073  1.0000
  C   C71       1.0  0.7322091216215866  0.2684964056157426  0.7353499135688963  1.0000
  C   C72       1.0  0.660244985346857  0.29930689422296547  0.7419066353457211  1.0000
  C   C73       1.0  0.6263706792907229  0.3368229161798766  0.7050015803607295  1.0000
  C   C74       1.0  0.662411557831156  0.342738551232685  0.6598135440203379  1.0000
  C   C75       1.0  0.7332744360161172  0.31122124485769825  0.6524568903334895  1.0000
  C   C76       1.0  0.7681916874487627  0.27570184123368335  0.6899545981791988  1.0000
  C   C77       1.0  0.7422980667395861  0.7630217738198651  0.8223223829753933  1.0000
  C   C78       1.0  0.7677502059972526  0.7677614931886295  0.7739612295475099  1.0000
  C   C79       1.0  0.8306499088386731  0.810349788418179  0.7641650028758988  1.0000
  C   C80       1.0  0.865788839910074  0.8473039218794228  0.8008854985520272  1.0000
  C   C81       1.0  0.8401925707152457  0.8416171547269614  0.8488608430647915  1.0000
  C   C82       1.0  0.7784047770616028  0.7987320060213463  0.8593179671615658  1.0000
  C   C83       1.0  0.7297220182810307  0.7292759627185601  0.7347477533361015  1.0000
  C   C84       1.0  0.6884946159900026  0.6691865936775869  0.7446165024001559  1.0000
  C   C85       1.0  0.6522596642571583  0.6332448106909041  0.7078056620784068  1.0000
  C   C86       1.0  0.6575097564452504  0.6554029765841777  0.6595920704707084  1.0000
  C   C87       1.0  0.6990033993705678  0.7146875991250711  0.6491627187754787  1.0000
  C   C88       1.0  0.7337109492742824  0.7513800823504653  0.6862156161082282  1.0000
  C   C89       1.0  0.8358925955544619  0.1867009660737864  0.2432256470120819  1.0000
  C   C90       1.0  0.7683087793288479  0.22394085883637868  0.234961166290951  1.0000
  C   C91       1.0  0.7359549960825829  0.2212781485855686  0.1882151422461007  1.0000
  C   C92       1.0  0.769971819378412  0.18377143375337818  0.1512375594976163  1.0000
  C   C93       1.0  0.8364449786079787  0.1461224715131095  0.1603080814632065  1.0000
  C   C94       1.0  0.8689196940226722  0.14768462139713986  0.20673221522633867  1.0000
  C   C95       1.0  0.7328495834962255  0.264684414363444  0.2740751123245602  1.0000
  C   C96       1.0  0.7463245994263801  0.24924448610736505  0.3232184453563391  1.0000
  C   C97       1.0  0.7139212489325644  0.2879680703942995  0.3601126817738277  1.0000
  C   C98       1.0  0.6656026118598816  0.3428235730376059  0.3491062361210099  1.0000
  C   C99       1.0  0.6512452539331904  0.3585205146207002  0.30037318530176554  1.0000
  C   C100      1.0  0.6848030274219497  0.3204242293733016  0.2635584141888785  1.0000
  C   C101      1.0  0.2604676859470629  0.22551629918937977  0.8206979984797016  1.0000
  C   C102      1.0  0.23197815256201437  0.22331979874227406  0.7729584573735054  1.0000
  C   C103      1.0  0.1667847613951494  0.18317444053195692  0.7640136757041915  1.0000
  C   C104      1.0  0.13223924855564212  0.14621662466778668  0.8009626948115595  1.0000
  C   C105      1.0  0.1607882098516882  0.14956727250874738  0.8483842090759312  1.0000
  C   C106      1.0  0.22493764798424826  0.1900089010131154  0.8579576281980295  1.0000
  C   C107      1.0  0.2694724935886441  0.262155573427755  0.7337272914540236  1.0000
  C   C108      1.0  0.3128132951491977  0.32089382691673757  0.7441280008451231  1.0000
  C   C109      1.0  0.34903175454051194  0.3571554796545087  0.707522780381943  1.0000
  C   C110      1.0  0.34196981194794057  0.33660574256452236  0.6590241534813188  1.0000
  C   C111      1.0  0.2980873625517972  0.2788859892329257  0.6480459724696175  1.0000
  C   C112      1.0  0.2630599537401039  0.2419495997952268  0.6848520129660046  1.0000
  O   O1        1.0  0.859231992706128  0.1291536994555145  0.9331999116002336  1.0000
  O   O2        1.0  0.9247618576743474  0.0690761667448712  0.8761457449806684  1.0000
  O   O3        1.0  0.14325438582805114  0.1248185401520772  0.07665631375749632  1.0000
  O   O4        1.0  0.08157416606607629  0.0610095652899147  0.1331868393139501  1.0000
  O   O5        1.0  0.14312073251948476  0.12294457696816612  0.9315398958331045  1.0000
  O   O6        1.0  0.07514235579962757  0.06464032837696719  0.8749121594391056  1.0000
  O   O7        1.0  0.8544981416101933  0.11855004838234609  0.0773870792959741  1.0000
  O   O8        1.0  0.924662327012726  0.06278319452728451  0.1342141844976155  1.0000
  O   O9        1.0  0.9319636243394098  0.19320053446804758  0.0049739870931802006  1.0000
  O   O10       1.0  0.7761572590303913  0.06301342851430292  0.0046461686173203  1.0000
  O   O11       1.0  0.07459946698516967  0.19524426448153778  0.0028475320792865  1.0000
  O   O12       1.0  0.22195982848251816  0.0609780783376266  0.0051740719024522  1.0000
  O   O13       1.0  0.0021146720647777996  0.07146068471855219  0.9666109001101405  1.0000
  O   O14       1.0  0.0007259667633122001  0.0977607485006402  0.054725553627506  1.0000
  O   O15       1.0  0.853111554741446  0.8677441786533961  0.0748547269516919  1.0000
  O   O16       1.0  0.9181680595996936  0.9276548794550616  0.1321185201227166  1.0000
  O   O17       1.0  0.1384194475368332  0.8622955009476669  0.9325639216352072  1.0000
  O   O18       1.0  0.0741510544123685  0.9232383724742729  0.8755428011917488  1.0000
  O   O19       1.0  0.1491948337944535  0.8738936723281512  0.0775311538638022  1.0000
  O   O20       1.0  0.074737210185063  0.9260447949248061  0.1339707830895094  1.0000
  O   O21       1.0  0.8606163437232367  0.8672930235837838  0.9318046190840479  1.0000
  O   O22       1.0  0.9244157500549335  0.9282241110646865  0.8746970587772723  1.0000
  O   O23       1.0  0.9272680610554004  0.795687630981149  0.0029581097674765  1.0000
  O   O24       1.0  0.7791175712191175  0.9353896724308369  0.0046283846780852  1.0000
  O   O25       1.0  0.0705403831537197  0.798517002090975  0.005582847413755601  1.0000
  O   O26       1.0  0.2235235849183184  0.9321965317555366  0.0066756261636627  1.0000
  O   O27       1.0  0.9996880120867715  0.893648754498983  0.0541237626872899  1.0000
  O   O28       1.0  0.9985873550899456  0.9206900253958278  0.9664289492709982  1.0000
  O   O29       1.0  0.9164452910942203  0.9965160829154982  0.041762200333629096  1.0000
  O   O30       1.0  0.11461559439763389  0.9928826502747726  0.9540338985385333  1.0000
  O   O31       1.0  0.8859402759140309  0.9978695824541146  0.954213906716852  1.0000
  O   O32       1.0  0.08491067157612521  0.9953860375195873  0.0420755148649832  1.0000
  O   O33       1.0  0.3654492532577009  0.3604316154798325  0.5759620763245081  1.0000
  O   O34       1.0  0.42574032248722915  0.4237536811961817  0.6333237856950761  1.0000
  O   O35       1.0  0.6447802841154058  0.3674787733486369  0.4322977129698558  1.0000
  O   O36       1.0  0.5816440148860949  0.42969102142036764  0.3755651059463716  1.0000
  O   O37       1.0  0.6464207645196751  0.3707360791660363  0.576797869265512  1.0000
  O   O38       1.0  0.5760203785955936  0.4269891294293373  0.6334718323862276  1.0000
  O   O39       1.0  0.3523608595747021  0.3734937384130887  0.4316003926951666  1.0000
  O   O40       1.0  0.42456709953031446  0.4268472691269737  0.37471119037439854  1.0000
  O   O41       1.0  0.4335827712403599  0.29818445881453204  0.5026593056563016  1.0000
  O   O42       1.0  0.2783060596235813  0.42911608614622293  0.5030304827568344  1.0000
  O   O43       1.0  0.5765563685281093  0.29735498579298536  0.5062984832754296  1.0000
  O   O44       1.0  0.723251772510622  0.4334297141011876  0.5027773128828841  1.0000
  O   O45       1.0  0.5038714933384439  0.4207373922098368  0.5422850133427559  1.0000
  O   O46       1.0  0.5013854945782086  0.39384706656175433  0.4540886408640503  1.0000
  O   O47       1.0  0.3531911676431676  0.6233643876227646  0.4330744280130859  1.0000
  O   O48       1.0  0.41774631248645017  0.5622087051274464  0.3761469636409345  1.0000
  O   O49       1.0  0.6353016408101695  0.6317003098058648  0.5762980767288894  1.0000
  O   O50       1.0  0.5749267142012614  0.5677678901594659  0.6333463681397262  1.0000
  O   O51       1.0  0.6485080041696564  0.6180376152293403  0.4303817123069749  1.0000
  O   O52       1.0  0.574316828086296  0.5649959981759736  0.374322579793386  1.0000
  O   O53       1.0  0.3624784053214469  0.6258552355064353  0.5767926021389798  1.0000
  O   O54       1.0  0.423896205088397  0.562973845747315  0.6338092158578946  1.0000
  O   O55       1.0  0.42582557017027517  0.696361918693725  0.5044935035423208  1.0000
  O   O56       1.0  0.2795367379496199  0.5577618687738238  0.504590916511205  1.0000
  O   O57       1.0  0.5693311454569212  0.6937982719063172  0.5022845319257812  1.0000
  O   O58       1.0  0.722969469820832  0.5620353366645218  0.50196261644642  1.0000
  O   O59       1.0  0.49937733433041837  0.5980325318117324  0.4541662398007418  1.0000
  O   O60       1.0  0.4981758168514361  0.5708379085254978  0.5421727912390608  1.0000
  O   O61       1.0  0.41747838319444236  0.494985582395735  0.4670468836602453  1.0000
  O   O62       1.0  0.6153152500195489  0.5001169990755726  0.554441375619355  1.0000
  O   O63       1.0  0.3849586504084925  0.49301190118179516  0.5543064096932966  1.0000
  O   O64       1.0  0.5852905105437998  0.4968058901183525  0.4663762253004009  1.0000
