data_image0
_chemical_formula_structural       Ca2H36C28N4O16
_chemical_formula_sum              "Ca2 H36 C28 N4 O16"
_cell_length_a       9.732492137515537
_cell_length_b       9.615427753695805
_cell_length_c       10.405456656604365
_cell_angle_alpha    117.52851508009766
_cell_angle_beta     93.46055494168274
_cell_angle_gamma    89.99833967831141

_space_group_name_H-M_alt    "P 1"
_space_group_IT_number       1

loop_
  _space_group_symop_operation_xyz
  'x, y, z'

loop_
  _atom_site_type_symbol
  _atom_site_label
  _atom_site_symmetry_multiplicity
  _atom_site_fract_x
  _atom_site_fract_y
  _atom_site_fract_z
  _atom_site_occupancy
  Ca  Ca1       1.0  0.7500232630124657  0.9208597194450552  0.9999798432836755  1.0000
  Ca  Ca2       1.0  0.24997642613795526  0.07914384130826592  2.5430339292105098e-05  1.0000
  H   H1        1.0  0.7499800638022691  0.2723811522726507  0.303870452277799  1.0000
  H   H2        1.0  0.7499538183570992  0.968445811582406  0.696192987218936  1.0000
  H   H3        1.0  0.25002068361521884  0.7276235263100902  0.6961363647445182  1.0000
  H   H4        1.0  0.25004094850152825  0.03156374853269031  0.303812792343308  1.0000
  H   H5        1.0  0.19879899888201183  0.3887489034693346  0.34838626561704433  1.0000
  H   H6        1.0  0.3011153940184528  0.04045653707886737  0.6514785788001447  1.0000
  H   H7        1.0  0.8012090978585178  0.6112583267887857  0.6516164302589189  1.0000
  H   H8        1.0  0.6988864810192226  0.9595485400390943  0.34851983839786277  1.0000
  H   H9        1.0  0.2163609642542852  0.6459152167038554  0.1022210874728558  1.0000
  H   H10       1.0  0.2836319414962745  0.5435308306928804  0.8977795785615825  1.0000
  H   H11       1.0  0.7836406075399651  0.3540815626659253  0.8977754289084102  1.0000
  H   H12       1.0  0.7163708493277099  0.4564717562879892  0.10222064203096448  1.0000
  H   H13       1.0  0.1760104316822932  0.5392940283936909  0.19848607509972993  1.0000
  H   H14       1.0  0.3240271191376324  0.3406430670426914  0.8014966040669337  1.0000
  H   H15       1.0  0.8239931470284674  0.46070151461376707  0.8015109671692215  1.0000
  H   H16       1.0  0.6759725517308793  0.6593594118954655  0.1985062487489131  1.0000
  H   H17       1.0  0.258512754267322  0.729039376679765  0.29275995383262204  1.0000
  H   H18       1.0  0.2414718587641076  0.4360811716792555  0.7072463462062686  1.0000
  H   H19       1.0  0.7414889271445447  0.2709608747111432  0.7072391234596579  1.0000
  H   H20       1.0  0.7585287607538477  0.563918953067173  0.29275548909792093  1.0000
  H   H21       1.0  0.0387078041172444  0.7316857284460667  0.03518498372733346  1.0000
  H   H22       1.0  0.4609328124250782  0.6965565210870822  0.9648265243210333  1.0000
  H   H23       1.0  0.9612863927445191  0.2683063809331045  0.964809871883979  1.0000
  H   H24       1.0  0.5390627240384164  0.30344491323943873  0.035173656110494354  1.0000
  H   H25       1.0  0.8999741282166128  0.8326362516706853  0.381855492729784  1.0000
  H   H26       1.0  0.6000701496231855  0.4507632484162515  0.6182001503010639  1.0000
  H   H27       1.0  0.1000275568221056  0.16736300853530392  0.618139283151244  1.0000
  H   H28       1.0  0.3999270977670975  0.5492266694299204  0.38179005237891067  1.0000
  H   H29       1.0  0.07226508233454611  0.8521673987032586  0.45876095974691117  1.0000
  H   H30       1.0  0.4278042840504029  0.3933240575596386  0.5412612982051358  1.0000
  H   H31       1.0  0.9277376719256196  0.1478330246472623  0.5412344192313938  1.0000
  H   H32       1.0  0.5721939960713341  0.6066678786706277  0.45873662988957875  1.0000
  H   H33       1.0  0.9808482648476017  0.6678649603990933  0.38631265745724613  1.0000
  H   H34       1.0  0.5192136477373737  0.2815035654466271  0.613706628525712  1.0000
  H   H35       1.0  0.01915235829719821  0.3321341731624089  0.6136848764356913  1.0000
  H   H36       1.0  0.48078478581950174  0.7184920240652631  0.3862900992717471  1.0000
  C   C1        1.0  0.9628815042682393  0.22776763216361223  0.2161417087967905  1.0000
  C   C2        1.0  0.5369049645037052  0.011446895895744495  0.7837679047155675  1.0000
  C   C3        1.0  0.0371224142497582  0.7722383722223825  0.7838620759031301  1.0000
  C   C4        1.0  0.4630861927839263  0.9885474503315519  0.21623066352501036  1.0000
  C   C5        1.0  0.9811210316759542  0.3674596219974831  0.36273974783890844  1.0000
  C   C6        1.0  0.5187979066286985  0.0046745955617665995  0.6372325366205658  1.0000
  C   C7        1.0  0.018885729163528715  0.632540310998266  0.6372652857372714  1.0000
  C   C8        1.0  0.4812027457523982  0.9953256651300323  0.36276647777741283  1.0000
  C   C9        1.0  0.8669720205011585  0.42985723352629895  0.4489047466821035  1.0000
  C   C10       1.0  0.6329907823488199  0.9808969064514201  0.5511245847571046  1.0000
  C   C11       1.0  0.13303688610874076  0.5701460622585658  0.5511048541978312  1.0000
  C   C12       1.0  0.3670058233361146  0.019105691019639385  0.448876198771714  1.0000
  C   C13       1.0  0.1122508058769753  0.4378207811584219  0.4157502847231385  1.0000
  C   C14       1.0  0.38771980604409617  0.022121159396242297  0.5842017755286122  1.0000
  C   C15       1.0  0.8877580056965257  0.5621780967355081  0.5842515135324576  1.0000
  C   C16       1.0  0.6122788503748638  0.9778803829729913  0.41579577267961554  1.0000
  C   C17       1.0  0.1822537836565701  0.6564263459231513  0.20472579964773271  1.0000
  C   C18       1.0  0.3177387780885752  0.4515322125041409  0.7952593175801042  1.0000
  C   C19       1.0  0.8177456496947926  0.3435681071575587  0.7952695105389721  1.0000
  C   C20       1.0  0.6822608343073641  0.5484680121734229  0.2047405742256459  1.0000
  C   C21       1.0  0.9830816709584839  0.7637705468012471  0.13410144206600447  1.0000
  C   C22       1.0  0.5167009790488919  0.629760312977247  0.8659644404098331  1.0000
  C   C23       1.0  0.0169175797214578  0.2362191258675352  0.8658935879129074  1.0000
  C   C24       1.0  0.48330074988117394  0.3702421473591357  0.13403853819460923  1.0000
  C   C25       1.0  0.9970129158047953  0.7731885060352541  0.37286607076969613  1.0000
  C   C26       1.0  0.5030283454300033  0.4003015391442801  0.6272099464626777  1.0000
  C   C27       1.0  0.0029887071345058047  0.22680949109506807  0.6271300455124873  1.0000
  C   C28       1.0  0.4969700479362089  0.5996928779221946  0.37278624113179154  1.0000
  N   N1        1.0  0.04970330109498631  0.7304079170380362  0.23197963720232204  1.0000
  N   N2        1.0  0.45026069800118773  0.49837417032266274  0.7680523080857213  1.0000
  N   N3        1.0  0.9502972014778239  0.26958769918720554  0.7680162760816671  1.0000
  N   N4        1.0  0.5497399324711482  0.5016259997388846  0.23194858691639555  1.0000
  O   O1        1.0  0.8384383398290041  0.17164856198493086  0.1703961852180029  1.0000
  O   O2        1.0  0.6612988638297281  0.0008216622666167931  0.8294624170928913  1.0000
  O   O3        1.0  0.16156855253685623  0.8283549336621974  0.8296095286650599  1.0000
  O   O4        1.0  0.3386904838678788  0.9991807737350202  0.17054262768616024  1.0000
  O   O5        1.0  0.7386455669181871  0.36314720992719884  0.4041436370826901  1.0000
  O   O6        1.0  0.7613072586227929  0.9590160231165045  0.5959614849137083  1.0000
  O   O7        1.0  0.26136138392025293  0.6368585399805227  0.5958650378104693  1.0000
  O   O8        1.0  0.23869247071829852  0.04098871008224591  0.4040443289122351  1.0000
  O   O9        1.0  0.867991997164502  0.8259841390391858  0.1486901195397722  1.0000
  O   O10       1.0  0.6317328844303276  0.677568836667291  0.8514877159651276  1.0000
  O   O11       1.0  0.13200313376547973  0.17400656201806444  0.8513089602731939  1.0000
  O   O12       1.0  0.3682625936344195  0.3224333622685337  0.14852146738799385  1.0000
  O   O13       1.0  0.0659412800012262  0.17198750868383436  0.14302109857982973  1.0000
  O   O14       1.0  0.4338238564365754  0.028896484532026503  0.8568719015284003  1.0000
  O   O15       1.0  0.9340608580892038  0.8280246937368929  0.8569786792319292  1.0000
  O   O16       1.0  0.5661589443321587  0.9710923910811146  0.14311688042840845  1.0000
