data_image0
_chemical_formula_structural       Al2H14C32Cl4O10
_chemical_formula_sum              "Al2 H14 C32 Cl4 O10"
_cell_length_a       6.634856910759105
_cell_length_b       17.98084895813795
_cell_length_c       17.95469377004138
_cell_angle_alpha    89.10475762615104
_cell_angle_beta     77.34584503716287
_cell_angle_gamma    77.31545774687609

_space_group_name_H-M_alt    "P 1"
_space_group_IT_number       1

loop_
  _space_group_symop_operation_xyz
  'x, y, z'

loop_
  _atom_site_type_symbol
  _atom_site_label
  _atom_site_symmetry_multiplicity
  _atom_site_fract_x
  _atom_site_fract_y
  _atom_site_fract_z
  _atom_site_occupancy
  Al  Al1       1.0  0.0024839976799455794  0.4991181109938268  0.5021975989399294  1.0000
  Al  Al2       1.0  0.5037844084099131  0.49767465750268525  0.5014827012996365  1.0000
  H   H1        1.0  0.1770004128233252  0.587329656513326  0.549278480490905  1.0000
  H   H2        1.0  0.8342582661222834  0.45290630807517845  0.41173992160362627  1.0000
  H   H3        1.0  0.06516724632539452  0.5548134979626625  0.2780912712390702  1.0000
  H   H4        1.0  0.11848369325630169  0.5596409304833898  0.1364322420600246  1.0000
  H   H5        1.0  0.7731122802461315  0.4444232716991722  0.11565095528442983  1.0000
  H   H6        1.0  0.22804820653524155  0.5539646786920329  0.8842239359316437  1.0000
  H   H7        1.0  0.9414388251591819  0.44497360129462754  0.7246765083604104  1.0000
  H   H8        1.0  0.8853608513503561  0.4437975249515277  0.8666566789882921  1.0000
  H   H9        1.0  0.9386344764227702  0.7241715488998965  0.4443822278352201  1.0000
  H   H10       1.0  0.8780937675006655  0.865731984883759  0.4387046946936408  1.0000
  H   H11       1.0  0.22945570913510227  0.8826935600859616  0.5589123427404276  1.0000
  H   H12       1.0  0.7615558028925734  0.11522087354926921  0.4419298273149792  1.0000
  H   H13       1.0  0.05451069284519145  0.276033800784056  0.5552881950523343  1.0000
  H   H14       1.0  0.1078994443557519  0.13438198899631712  0.5573874537539822  1.0000
  C   C1        1.0  0.6745678358549084  0.6376949631013746  0.5012330467514303  1.0000
  C   C2        1.0  0.666642797090155  0.4941171548487946  0.6389291385337972  1.0000
  C   C3        1.0  0.3259405683691483  0.3612123165169195  0.503503276015536  1.0000
  C   C4        1.0  0.3403207147512646  0.5012422793125353  0.3625279623029911  1.0000
  C   C5        1.0  0.38711744334304404  0.5003658927743899  0.277196961732841  1.0000
  C   C6        1.0  0.22051390407907676  0.5320257846094169  0.24154530458675796  1.0000
  C   C7        1.0  0.2496033551581005  0.5344123417497147  0.16278323510701403  1.0000
  C   C8        1.0  0.45043576707867344  0.5029569933826038  0.11610118644627933  1.0000
  C   C9        1.0  0.6183399004233651  0.4701537421656001  0.1509427865700985  1.0000
  C   C10       1.0  0.5873149038014349  0.46914632231384723  0.23018722737949562  1.0000
  C   C11       1.0  0.48461885990280246  0.5023722332606939  0.0355392743152336  1.0000
  C   C12       1.0  0.5165800364421148  0.5002488979792828  0.9659315102720144  1.0000
  C   C13       1.0  0.551914041936847  0.4980848920539316  0.8853182469294367  1.0000
  C   C14       1.0  0.3839725068183951  0.5284180446146467  0.8496640267705615  1.0000
  C   C15       1.0  0.4161350134316705  0.5271520276365538  0.7703107400137696  1.0000
  C   C16       1.0  0.6180165342153926  0.49611784728158903  0.7242750295180616  1.0000
  C   C17       1.0  0.7848321630056603  0.4670441976886297  0.7606588775547038  1.0000
  C   C18       1.0  0.7542338921153869  0.4668916542591149  0.839544987301025  1.0000
  C   C19       1.0  0.6206384983818155  0.7229564508232046  0.5017569829623909  1.0000
  C   C20       1.0  0.7829325549221763  0.7599358381999581  0.4681402717630547  1.0000
  C   C21       1.0  0.7498458242077674  0.8386107511458508  0.46527102608263265  1.0000
  C   C22       1.0  0.5484571283034184  0.8842288639261114  0.49793509533101604  1.0000
  C   C23       1.0  0.38471510224339767  0.8482792551554327  0.5324111922620745  1.0000
  C   C24       1.0  0.4195727232208242  0.7690351020998423  0.5341633267039043  1.0000
  C   C25       1.0  0.5100067845700805  0.9647603011452902  0.4978878928852168  1.0000
  C   C26       1.0  0.4754825757690427  0.03433151384914619  0.4992735541156393  1.0000
  C   C27       1.0  0.4396224392985886  0.1148615617235791  0.500440744312087  1.0000
  C   C28       1.0  0.6066579116755053  0.15009937659846173  0.46815575166162665  1.0000
  C   C29       1.0  0.5760744964220025  0.22934083120991028  0.4684552176626298  1.0000
  C   C30       1.0  0.3755910426603394  0.2759507252373865  0.500929812511167  1.0000
  C   C31       1.0  0.2096722680221817  0.23969696672364194  0.5320207942031203  1.0000
  C   C32       1.0  0.23877295358062162  0.16102422213882053  0.532753397950195  1.0000
  Cl  Cl1       1.0  0.8029158702854744  0.42333241499148505  0.2660790101743019  1.0000
  Cl  Cl2       1.0  0.20192253163617127  0.5689567580056264  0.732369119890443  1.0000
  Cl  Cl3       1.0  0.20592372662221695  0.7332725512875626  0.581793602168226  1.0000
  Cl  Cl4       1.0  0.7929406873078971  0.2647281145839174  0.4245192963164186  1.0000
  O   O1        1.0  0.8703523502899486  0.6060261460743775  0.4934425443722859  1.0000
  O   O2        1.0  0.5254627855506796  0.48335050999465795  0.6053618267481724  1.0000
  O   O3        1.0  0.47852259786017737  0.394709589780071  0.49555236675450237  1.0000
  O   O4        1.0  0.1548849497109613  0.4941923742127304  0.39559457718648633  1.0000
  O   O5        1.0  0.1311249629261367  0.3944808718937623  0.5135176517889661  1.0000
  O   O6        1.0  0.48581186715428265  0.5095988452486397  0.3952014857320805  1.0000
  O   O7        1.0  0.5239783244750027  0.6031994137041466  0.5081424793458353  1.0000
  O   O8        1.0  0.8498760308083602  0.5033305450219105  0.6062642732548584  1.0000
  O   O9        1.0  0.21396410479227498  0.5336495039517575  0.5338783614873891  1.0000
  O   O10       1.0  0.7938218793813119  0.4672242460131459  0.46577650560538325  1.0000
