data_image0
_chemical_formula_structural       Al4H26C36N4O20F2
_chemical_formula_sum              "Al4 H26 C36 N4 O20 F2"
_cell_length_a       6.685793662759491
_cell_length_b       16.05026642037385
_cell_length_c       17.54172528503533
_cell_angle_alpha    80.06402976905251
_cell_angle_beta     90.01083603331523
_cell_angle_gamma    90.0001910404093

_space_group_name_H-M_alt    "P 1"
_space_group_IT_number       1

loop_
  _space_group_symop_operation_xyz
  'x, y, z'

loop_
  _atom_site_type_symbol
  _atom_site_label
  _atom_site_symmetry_multiplicity
  _atom_site_fract_x
  _atom_site_fract_y
  _atom_site_fract_z
  _atom_site_occupancy
  Al  Al1       1.0  0.1093892831531633  0.49983245921970365  0.4945656295041659  1.0000
  Al  Al2       1.0  0.6093881209849243  0.5001686553752195  0.5054798591094922  1.0000
  Al  Al3       1.0  0.6565204380969193  0.0015577653695756997  0.0013970885635217001  1.0000
  Al  Al4       1.0  0.15654053084569602  0.9983670222868282  0.9991231802140849  1.0000
  H   H1        1.0  0.5981640277767682  0.19087019580930326  0.8129395840823863  1.0000
  H   H2        1.0  0.0984439615517374  0.8090960409327224  0.18692316555716812  1.0000
  H   H3        1.0  0.056016096179782  0.19393345901047346  0.7927518075991034  1.0000
  H   H4        1.0  0.5561621749807131  0.8063861401487246  0.20778087637318526  1.0000
  H   H5        1.0  0.5779806421579892  0.3010094293015726  0.6972177408774203  1.0000
  H   H6        1.0  0.0779590356936595  0.698954948809444  0.30271856828994015  1.0000
  H   H7        1.0  0.0386591236362079  0.304767345758897  0.6974127618506929  1.0000
  H   H8        1.0  0.5386227452484817  0.6952304744209669  0.30269698028349273  1.0000
  H   H9        1.0  0.24397594817226317  0.1818553581061195  0.30049878184857454  1.0000
  H   H10       1.0  0.7439004205998289  0.8181972112900836  0.6997456603794491  1.0000
  H   H11       1.0  0.21537222385389757  0.09365089304910867  0.19701231308093983  1.0000
  H   H12       1.0  0.7152155285862422  0.9062693403889099  0.8032877285310179  1.0000
  H   H13       1.0  0.6363824197116584  0.1969003062668477  0.13390054715483052  1.0000
  H   H14       1.0  0.1363018605569053  0.8028580653473866  0.8662445088059771  1.0000
  H   H15       1.0  0.3560607264082236  0.3888843127063949  0.29400657603368785  1.0000
  H   H16       1.0  0.49403711297281916  0.434370196705636  0.35550563255372947  1.0000
  H   H17       1.0  0.8562706514128351  0.6110121776866748  0.7059514969702506  1.0000
  H   H18       1.0  0.9943407693949241  0.5656012387321495  0.6444551152087359  1.0000
  H   H19       1.0  0.4069639153778297  0.3800172651642696  0.17872908921882677  1.0000
  H   H20       1.0  0.45180596531668743  0.2884499040673845  0.14723334242994215  1.0000
  H   H21       1.0  0.9521197714182037  0.711206481548558  0.8529331387844937  1.0000
  H   H22       1.0  0.9072057961023461  0.6197784060845348  0.8212423231465779  1.0000
  H   H23       1.0  0.35805614179007256  0.38806615824023527  0.5185770947978838  1.0000
  H   H24       1.0  0.8579830842880938  0.6119001963270776  0.48132786235640174  1.0000
  H   H25       1.0  0.4015739887133591  0.111781114695816  0.9858027955459864  1.0000
  H   H26       1.0  0.9011766869893949  0.8885465298162885  0.008318530785331301  1.0000
  C   C1        1.0  0.3528946610052657  0.5908705451629787  0.5980504068895627  1.0000
  C   C2        1.0  0.8526761125842555  0.40913657731437775  0.40198988566206867  1.0000
  C   C3        1.0  0.36495573092492617  0.6123332697048269  0.38834296879674224  1.0000
  C   C4        1.0  0.8650115509077169  0.3876697635921501  0.6117159731884245  1.0000
  C   C5        1.0  0.7389597590780072  0.21368583047143364  0.785214760337617  1.0000
  C   C6        1.0  0.2390957645992557  0.7863505972230341  0.21484796680300633  1.0000
  C   C7        1.0  0.9082487845979869  0.17674335910130873  0.8167255268107426  1.0000
  C   C8        1.0  0.408484579779291  0.8234499134240637  0.18362415848776695  1.0000
  C   C9        1.0  0.7271583634629764  0.2806499067567501  0.7182178020801403  1.0000
  C   C10       1.0  0.227163253021331  0.7193421545575448  0.2818043006542227  1.0000
  C   C11       1.0  0.8847897424398069  0.3205620345499653  0.6800278192093219  1.0000
  C   C12       1.0  0.3847674576967108  0.6794195285024499  0.3200403560028562  1.0000
  C   C13       1.0  0.8287468044838848  0.3561665972932174  0.3407373252398572  1.0000
  C   C14       1.0  0.3289238989837529  0.6438397645058203  0.6593235729146798  1.0000
  C   C15       1.0  0.9223168132831036  0.1425379594265621  0.15972041938314877  1.0000
  C   C16       1.0  0.4222562083501201  0.8572940300663986  0.8405820189172176  1.0000
  C   C17       1.0  0.11235445904630131  0.18594666341905247  0.2635011496490379  1.0000
  C   C18       1.0  0.6123145678212439  0.814022897660436  0.7367240473728602  1.0000
  C   C19       1.0  0.09669507184108281  0.1371406944158906  0.20670248654010953  1.0000
  C   C20       1.0  0.5966269092259608  0.8627388543939601  0.7935953891392417  1.0000
  C   C21       1.0  0.7684566187796236  0.19699991472698736  0.17034974790124832  1.0000
  C   C22       1.0  0.2684356333186315  0.8028476523579967  0.829825514377916  1.0000
  C   C23       1.0  0.7825732919108362  0.2509955019367709  0.2262183731138095  1.0000
  C   C24       1.0  0.2826087853182244  0.7489076372209738  0.7739202309586873  1.0000
  C   C25       1.0  0.9592576278689364  0.24426896767408823  0.27398047108096796  1.0000
  C   C26       1.0  0.4592901254929558  0.7557002897370069  0.7261799676374496  1.0000
  C   C27       1.0  0.9755130075381119  0.298316015238818  0.3286518249663218  1.0000
  C   C28       1.0  0.4756426817166428  0.7017044579650218  0.6714652966513271  1.0000
  C   C29       1.0  0.6491329826138141  0.35976122414547257  0.2952895605509768  1.0000
  C   C30       1.0  0.14929989167347907  0.6401877190789163  0.7047525683709355  1.0000
  C   C31       1.0  0.6318101934703931  0.31033317312596137  0.23662826959326122  1.0000
  C   C32       1.0  0.1319117768370717  0.6895669949695955  0.7634466430710207  1.0000
  C   C33       1.0  0.4067893981885433  0.889521460083614  0.11363420474645382  1.0000
  C   C34       1.0  0.9063467888943818  0.1106854102952538  0.8867440281142508  1.0000
  C   C35       1.0  0.4097937555457634  0.9088617129382683  0.9033182806263725  1.0000
  C   C36       1.0  0.9100133487154166  0.0908436671949531  0.09710609205231441  1.0000
  N   N1        1.0  0.4918668064233103  0.41389161555843407  0.30366259388305383  1.0000
  N   N2        1.0  0.9921166881477179  0.5860523633316957  0.6963120800821372  1.0000
  N   N3        1.0  0.45599366587025264  0.3192932752782554  0.19297697848411138  1.0000
  N   N4        1.0  0.9561315175756135  0.6805218024178925  0.8070888857061221  1.0000
  O   O1        1.0  0.5299615870487812  0.5864712327857403  0.4210833175933076  1.0000
  O   O2        1.0  0.030071767816522803  0.41360206705557084  0.579080744712684  1.0000
  O   O3        1.0  0.19154442567090507  0.5717376210610112  0.5659693827073513  1.0000
  O   O4        1.0  0.6913301609534203  0.4283400156631245  0.43400878753905664  1.0000
  O   O5        1.0  0.19099383370484446  0.5852861706652206  0.4101975600921719  1.0000
  O   O6        1.0  0.6910461633378944  0.4146479166544879  0.5897924971011862  1.0000
  O   O7        1.0  0.026744199871942  0.43183041442642883  0.41959261667008724  1.0000
  O   O8        1.0  0.5269473590374716  0.5681113032636276  0.580539594782188  1.0000
  O   O9        1.0  0.3599595019472588  0.4488886694439103  0.502360549356304  1.0000
  O   O10       1.0  0.85999999766846  0.551103672812168  0.4977297521882705  1.0000
  O   O11       1.0  0.23704071462750423  0.9261792058457132  0.9274236657904852  1.0000
  O   O12       1.0  0.7374579937800193  0.07395794245194047  0.07256213070660783  1.0000
  O   O13       1.0  0.5779104600609628  0.916644631661171  0.08801948567447233  1.0000
  O   O14       1.0  0.07754165420471539  0.08395711167111829  0.9127163503092677  1.0000
  O   O15       1.0  0.5765588866661417  0.9307029763866481  0.9291375339829955  1.0000
  O   O16       1.0  0.076705172146923  0.06844392231167257  0.07176044457792591  1.0000
  O   O17       1.0  0.7373004507520022  0.08653966320290606  0.9160989242979413  1.0000
  O   O18       1.0  0.23796259462346112  0.9133101414868179  0.08389460266837291  1.0000
  O   O19       1.0  0.405060391955935  0.05063223611086434  0.9956813933699638  1.0000
  O   O20       1.0  0.905090367242842  0.9493426335138864  0.004566885980963802  1.0000
  F   F1        1.0  0.14340298547679003  0.28972274719826163  0.37392616155028696  1.0000
  F   F2        1.0  0.643577251103956  0.7103324396838246  0.6262332231495479  1.0000
