data_image0
_chemical_formula_structural       Zn16H44C96S16N16O52F4
_chemical_formula_sum              "Zn16 H44 C96 S16 N16 O52 F4"
_cell_length_a       19.66921535232852
_cell_length_b       19.665594065377782
_cell_length_c       33.37396141430915
_cell_angle_alpha    79.23039827748369
_cell_angle_beta     79.21488745374279
_cell_angle_gamma    63.9406303895544

_space_group_name_H-M_alt    "P 1"
_space_group_IT_number       1

loop_
  _space_group_symop_operation_xyz
  'x, y, z'

loop_
  _atom_site_type_symbol
  _atom_site_label
  _atom_site_symmetry_multiplicity
  _atom_site_fract_x
  _atom_site_fract_y
  _atom_site_fract_z
  _atom_site_occupancy
  Zn  Zn1       1.0  0.05512934409848209  0.40084392373990596  0.4781453792155546  1.0000
  Zn  Zn2       1.0  0.9837826815401839  0.4834979191732101  0.5602694028247441  1.0000
  Zn  Zn3       1.0  0.0595224893076391  0.5600625292359565  0.4823058937251475  1.0000
  Zn  Zn4       1.0  0.9010074460121655  0.5563432359751486  0.47929295557288737  1.0000
  Zn  Zn5       1.0  0.6933682601704446  0.34927719380253563  0.27164086953155925  1.0000
  Zn  Zn6       1.0  0.6898054460155266  0.18948141491011922  0.2667056201638403  1.0000
  Zn  Zn7       1.0  0.7679535996769573  0.2673730287601756  0.19036809172833813  1.0000
  Zn  Zn8       1.0  0.8481585374840532  0.19466178877208046  0.2717902882186394  1.0000
  Zn  Zn9       1.0  0.2668106770843295  0.7671432851913023  0.6903979729845772  1.0000
  Zn  Zn10      1.0  0.3485087197111909  0.6955406229507234  0.7718839932886326  1.0000
  Zn  Zn11      1.0  0.19240805502995068  0.8495672880362548  0.7712786752788716  1.0000
  Zn  Zn12      1.0  0.19005691667249638  0.6895288175035715  0.7674074623236535  1.0000
  Zn  Zn13      1.0  0.5597353992485097  0.06006263418671396  0.9830221757162861  1.0000
  Zn  Zn14      1.0  0.40176473893030357  0.05520534254781492  0.9786690346416689  1.0000
  Zn  Zn15      1.0  0.55617660482973  0.900401124429777  0.978633355993857  1.0000
  Zn  Zn16      1.0  0.48268618439576716  0.9828804309927289  0.06026917505695912  1.0000
  H   H1        1.0  0.9547981154606971  0.24885448481648348  0.35154458190771715  1.0000
  H   H2        1.0  0.7468445461689726  0.45442808069910245  0.3500469053607276  1.0000
  H   H3        1.0  0.9994989471227455  0.29986296640074533  0.3999677189615626  1.0000
  H   H4        1.0  0.09700026586928348  0.5969936830025234  0.7001812724440625  1.0000
  H   H5        1.0  0.20212409663255929  0.7006451951141627  0.5979405989808909  1.0000
  H   H6        1.0  0.05020463855092319  0.5502845341283731  0.6506232119768995  1.0000
  H   H7        1.0  0.5499661493197222  0.049824086411348285  0.15328489564799241  1.0000
  H   H8        1.0  0.6510133226821819  0.1530930759329863  0.04877921945745098  1.0000
  H   H9        1.0  0.6000396054636141  0.09899020013411061  0.19993743404303638  1.0000
  H   H10       1.0  0.5015148142271001  0.7954698455936936  0.8984288358745688  1.0000
  H   H11       1.0  0.2960578542700744  0.0035383586315091515  0.8994214609472095  1.0000
  H   H12       1.0  0.4505149322001786  0.7503413116218525  0.8502250551301528  1.0000
  H   H13       1.0  0.3153033907057718  0.5547868940464651  0.3954887650475882  1.0000
  H   H14       1.0  0.23371075231610658  0.5522363703210189  0.4260697083658016  1.0000
  H   H15       1.0  0.4254106901725051  0.20266194090900305  0.34497928492884  1.0000
  H   H16       1.0  0.514020851449217  0.19933114655085402  0.32178860604226855  1.0000
  H   H17       1.0  0.7651813300761674  0.5233250298755504  0.68562203802572  1.0000
  H   H18       1.0  0.8348178217534894  0.5170017179702738  0.6437699127225185  1.0000
  H   H19       1.0  0.48432592612183356  0.7037493643062122  0.564559266043801  1.0000
  H   H20       1.0  0.4151036591668883  0.7276112013305109  0.6069445863384857  1.0000
  H   H21       1.0  0.046463609749316986  0.26600788274652826  0.6856462675384307  1.0000
  H   H22       1.0  0.022520786392242094  0.33502223001140397  0.6432471816771113  1.0000
  H   H23       1.0  0.22562113819764554  0.985129368599885  0.5644970230425557  1.0000
  H   H24       1.0  0.2329583632345731  0.9152285581534015  0.6063960675166697  1.0000
  H   H25       1.0  0.7433771107132258  0.8043154720830542  0.38492318131257247  1.0000
  H   H26       1.0  0.7953480205122928  0.7257051885969547  0.41798954114022985  1.0000
  H   H27       1.0  0.015224919408233001  0.9349010036764865  0.3550469984611624  1.0000
  H   H28       1.0  0.9559478365359763  0.021971725553534265  0.330271604542233  1.0000
  H   H29       1.0  0.7237873701346587  0.48473439743235497  0.06466972287542207  1.0000
  H   H30       1.0  0.7330559978474157  0.4146400504366736  0.10681851280492073  1.0000
  H   H31       1.0  0.5438650121477764  0.766184160893658  0.18596326875920255  1.0000
  H   H32       1.0  0.5209050865739755  0.8354298723456138  0.14336722051931614  1.0000
  H   H33       1.0  0.14573007921968176  0.08633752222257132  0.226146777180638  1.0000
  H   H34       1.0  0.04760113832281118  0.1178211661610931  0.23932796188788788  1.0000
  H   H35       1.0  0.10419507246716357  0.18476608581536877  0.0250292742282738  1.0000
  H   H36       1.0  0.2022691988483345  0.13687451716804586  0.011056120138363197  1.0000
  H   H37       1.0  0.5157992885227783  0.43522972427938095  0.8552224196245601  1.0000
  H   H38       1.0  0.4568452848349338  0.5218231400333548  0.8298559411139479  1.0000
  H   H39       1.0  0.2448989002851434  0.30366345466550365  0.8840516707823055  1.0000
  H   H40       1.0  0.29646617394770647  0.2255898206502706  0.917344597396152  1.0000
  H   H41       1.0  0.924422575498042  0.7028470297928204  0.8450718468121466  1.0000
  H   H42       1.0  0.013231742697804796  0.6990246296234303  0.8220423022887144  1.0000
  H   H43       1.0  0.8157001545674447  0.05510330841349285  0.8951696535030892  1.0000
  H   H44       1.0  0.7339902500455864  0.05286583197546679  0.9257120656851541  1.0000
  C   C1        1.0  0.060137631288263486  0.3158945541436039  0.5623860689122182  1.0000
  C   C2        1.0  0.06945720670859858  0.5696176287810599  0.5689410109823996  1.0000
  C   C3        1.0  0.18492937923161892  0.4386081974851095  0.4385059842470723  1.0000
  C   C4        1.0  0.9371198774632461  0.6851521591562669  0.4383286932888383  1.0000
  C   C5        1.0  0.9294125664427355  0.43246387381577717  0.4308360658407437  1.0000
  C   C6        1.0  0.8159200789707269  0.5623209078940687  0.5630428388509116  1.0000
  C   C7        1.0  0.5650264391097294  0.3103372953710915  0.31194504643343623  1.0000
  C   C8        1.0  0.6820230220316859  0.18046980363527604  0.1805576716125898  1.0000
  C   C9        1.0  0.6884088943988687  0.4346046850909387  0.18796078075039446  1.0000
  C   C10       1.0  0.936133245922285  0.18775656093473692  0.1893903165410009  1.0000
  C   C11       1.0  0.8202861112338622  0.31905038450769735  0.31888741356443967  1.0000
  C   C12       1.0  0.8124279397110782  0.06509821148086553  0.3119291631371722  1.0000
  C   C13       1.0  0.434216466212817  0.689510249397209  0.6879375557131411  1.0000
  C   C14       1.0  0.31824420470252324  0.8204109653521242  0.8189894682805345  1.0000
  C   C15       1.0  0.1871495840701627  0.9343500650854182  0.6873104836087548  1.0000
  C   C16       1.0  0.0644398369730865  0.809947141907898  0.8117756717851136  1.0000
  C   C17       1.0  0.1812570499079271  0.679849010089299  0.6811445710410453  1.0000
  C   C18       1.0  0.3130237714242341  0.5651107684747952  0.8117840021590085  1.0000
  C   C19       1.0  0.4369667555363961  0.18525270839085542  0.9385949763281046  1.0000
  C   C20       1.0  0.4312918143382518  0.9308240193299397  0.9304867710417141  1.0000
  C   C21       1.0  0.6851095059275137  0.9393821096630502  0.9387671803849216  1.0000
  C   C22       1.0  0.5605370358334483  0.8153864147370978  0.062377808997204895  1.0000
  C   C23       1.0  0.5683305119308457  0.06931745101059036  0.0696786824498403  1.0000
  C   C24       1.0  0.31420801867453463  0.061703323601690736  0.061085605987599885  1.0000
  C   C25       1.0  0.8995738452527533  0.40501294845206093  0.40206098467485407  1.0000
  C   C26       1.0  0.8483624836474988  0.3484240085206806  0.34764082517881423  1.0000
  C   C27       1.0  0.8282914541548718  0.44734095100411503  0.3873378548702249  1.0000
  C   C28       1.0  0.9197323186382675  0.3046860102690943  0.3617724949319339  1.0000
  C   C29       1.0  0.8024881163156863  0.4200665227720392  0.36062319146481064  1.0000
  C   C30       1.0  0.9443728556464278  0.33294304329019286  0.3885552817249687  1.0000
  C   C31       1.0  0.0990829724738447  0.5988429160259228  0.5969282823925467  1.0000
  C   C32       1.0  0.1524598643298773  0.6515788983655993  0.652218915117835  1.0000
  C   C33       1.0  0.1422469639972093  0.6416466748852016  0.5829832908963651  1.0000
  C   C34       1.0  0.10942649817468458  0.6091760734025653  0.6671467781105989  1.0000
  C   C35       1.0  0.16883719494807534  0.6677577790756429  0.6098913886784132  1.0000
  C   C36       1.0  0.08357956277699688  0.5834300043157866  0.6397095057137958  1.0000
  C   C37       1.0  0.30411585107555783  0.45421083929551276  0.40158002829583955  1.0000
  C   C38       1.0  0.44648439507161436  0.2941727439370397  0.34953381220495316  1.0000
  C   C39       1.0  0.25876879587237056  0.4133675729482888  0.4143654061132196  1.0000
  C   C40       1.0  0.4918683854747384  0.3349262361661544  0.3368098751902338  1.0000
  C   C41       1.0  0.377610083406644  0.3387130638769449  0.3729999216850288  1.0000
  C   C42       1.0  0.3724576668000168  0.41008974934791803  0.3775721801294551  1.0000
  C   C43       1.0  0.7264921245225862  0.5768242172135487  0.6302217369064138  1.0000
  C   C44       1.0  0.5235945610941286  0.6753296867242181  0.6207887926684847  1.0000
  C   C45       1.0  0.7420119544057187  0.5874151733256735  0.5872216523482691  1.0000
  C   C46       1.0  0.5080998666682461  0.6651336256899256  0.6638138872268939  1.0000
  C   C47       1.0  0.6038073911343105  0.6420644783417014  0.6088379912539494  1.0000
  C   C48       1.0  0.646255734291536  0.6086222894920753  0.6421101454007996  1.0000
  C   C49       1.0  0.07433393874880069  0.22651713700905415  0.6295414624045605  1.0000
  C   C50       1.0  0.1730129079591691  0.023615792280487817  0.6201201037533366  1.0000
  C   C51       1.0  0.08448217502782998  0.24195635303061638  0.5865205219726093  1.0000
  C   C52       1.0  0.16224307749756406  0.008173592165363178  0.6631334036591525  1.0000
  C   C53       1.0  0.14111351658709026  0.10385552697965748  0.6082316501826526  1.0000
  C   C54       1.0  0.10755978623770089  0.1463402836195228  0.6415064444901049  1.0000
  C   C55       1.0  0.842896254757477  0.8007755955297992  0.39791455854702923  1.0000
  C   C56       1.0  0.9057826525216228  0.9500133727441022  0.3531085550107491  1.0000
  C   C57       1.0  0.9127529404430205  0.7589404236558863  0.41418949824542745  1.0000
  C   C58       1.0  0.8360216320938176  0.9919693410885196  0.33676436411887783  1.0000
  C   C59       1.0  0.9079949575916473  0.8796493016686068  0.374970079276224  1.0000
  C   C60       1.0  0.841491676242093  0.8702742853185795  0.3751420037919218  1.0000
  C   C61       1.0  0.6534721371137235  0.15293860594623943  0.1511641355946125  1.0000
  C   C62       1.0  0.5974356434921687  0.09815763670594879  0.09818819122932608  1.0000
  C   C63       1.0  0.6667894389507794  0.16734814520064115  0.10818522650743738  1.0000
  C   C64       1.0  0.5829498965427007  0.08290737004567453  0.1409244398275646  1.0000
  C   C65       1.0  0.639522030247697  0.1407100045580947  0.08187239437294379  1.0000
  C   C66       1.0  0.6106652873934024  0.1101515532365766  0.16667803741022874  1.0000
  C   C67       1.0  0.673597091098557  0.5234038909718419  0.12063333864107759  1.0000
  C   C68       1.0  0.57445032466822  0.7265450459491232  0.12964970295269038  1.0000
  C   C69       1.0  0.6630806750035062  0.5082915155445916  0.16370462506732508  1.0000
  C   C70       1.0  0.5847486790847184  0.7416740631832182  0.08657713613531831  1.0000
  C   C71       1.0  0.6077973717154777  0.6463726061992074  0.14174911712888158  1.0000
  C   C72       1.0  0.6413727737954105  0.6036494627827478  0.10858973506100263  1.0000
  C   C73       1.0  0.08148124131059829  0.12260219328926071  0.17827741966642915  1.0000
  C   C74       1.0  0.16875532589155282  0.1247287701449835  0.07215028301937557  1.0000
  C   C75       1.0  0.009253406182374099  0.16234417840127685  0.16450331610715097  1.0000
  C   C76       1.0  0.24109047549519147  0.08513291026033436  0.0859089672953885  1.0000
  C   C77       1.0  0.11079784898473828  0.13883683847394926  0.10632539810706021  1.0000
  C   C78       1.0  0.1395057511488034  0.10985146792130249  0.14417605733292757  1.0000
  C   C79       1.0  0.34557962904930406  0.8503993883758764  0.8477463944458209  1.0000
  C   C80       1.0  0.4021568887380339  0.9022882107362447  0.9018609890701228  1.0000
  C   C81       1.0  0.3031767427498408  0.9218704181921354  0.8622933169349665  1.0000
  C   C82       1.0  0.4458417731130879  0.8305951730158508  0.8880509434697076  1.0000
  C   C83       1.0  0.33050821941049685  0.9479056122159688  0.888851965643198  1.0000
  C   C84       1.0  0.4175208887507721  0.8056825760442835  0.8614135643909435  1.0000
  C   C85       1.0  0.4064992966181506  0.44996759011920767  0.8529663611955342  1.0000
  C   C86       1.0  0.3431096896969024  0.30116608627754  0.8980406293344885  1.0000
  C   C87       1.0  0.33677837840694735  0.4918811382873969  0.8365885582363078  1.0000
  C   C88       1.0  0.4127542925463885  0.2591729194606528  0.9144673557811699  1.0000
  C   C89       1.0  0.3418317684479888  0.3705653528355127  0.875258227757044  1.0000
  C   C90       1.0  0.4084167681039758  0.3798058612919632  0.8750875075722107  1.0000
  C   C91       1.0  0.9459034207174426  0.7940858481089846  0.8496174213117484  1.0000
  C   C92       1.0  0.8042818231087451  0.9546139578491759  0.9015175780254695  1.0000
  C   C93       1.0  0.9913951617154239  0.8346801725909783  0.8366913837462705  1.0000
  C   C94       1.0  0.7587562566379444  0.9140376481404572  0.9144866776223849  1.0000
  C   C95       1.0  0.872389243212872  0.9102604827747173  0.8774748101128083  1.0000
  C   C96       1.0  0.8772078133317294  0.838905895124547  0.8730726145946477  1.0000
  S   S1        1.0  0.29986180241078836  0.3228996708824853  0.3977150289075481  1.0000
  S   S2        1.0  0.4510554560295787  0.4251462557522955  0.35371443551149173  1.0000
  S   S3        1.0  0.6600058537725957  0.6359940242162593  0.5622280822202725  1.0000
  S   S4        1.0  0.5901500785185831  0.6166915698447469  0.6888001837580546  1.0000
  S   S5        1.0  0.13294457786933828  0.15991770747299938  0.561546657703758  1.0000
  S   S6        1.0  0.11342533219321639  0.09023182431733545  0.6881238166821433  1.0000
  S   S7        1.0  0.9742816743395435  0.8044495178090472  0.402270516061776  1.0000
  S   S8        1.0  0.7745044048014337  0.9464125149208082  0.3486815678904378  1.0000
  S   S9        1.0  0.614063482740171  0.5905936563578608  0.1884879946402549  1.0000
  S   S10       1.0  0.6333736638811088  0.6593640744861345  0.061794496523283685  1.0000
  S   S11       1.0  0.012727316247989498  0.18238720190531404  0.11102380829743909  1.0000
  S   S12       1.0  0.23754144016643147  0.06478849915642827  0.1394165956350548  1.0000
  S   S13       1.0  0.27501213379935757  0.44661159277742263  0.8486607557780204  1.0000
  S   S14       1.0  0.4743901027842483  0.3045858298292499  0.9025864391044818  1.0000
  S   S15       1.0  0.9510297161419814  0.9249941478835734  0.8534127287434641  1.0000
  S   S16       1.0  0.7993722793762501  0.823479988309273  0.8979949863521027  1.0000
  N   N1        1.0  0.2867862408035293  0.5243872302676564  0.41154142637980573  1.0000
  N   N2        1.0  0.46627558137987524  0.2219381921677268  0.34175129788684433  1.0000
  N   N3        1.0  0.7801668210013304  0.5435203488898777  0.6568206256393552  1.0000
  N   N4        1.0  0.470092967233711  0.7136364989129473  0.5943237527620366  1.0000
  N   N5        1.0  0.0358800115290094  0.2801677271880506  0.6559968531039715  1.0000
  N   N6        1.0  0.20658248322950357  0.969999014779532  0.5935364094042086  1.0000
  N   N7        1.0  0.7843598270309683  0.7794053764687873  0.4039560322749765  1.0000
  N   N8        1.0  0.9621717479120874  0.9738442949536503  0.3497996532541023  1.0000
  N   N9        1.0  0.7073977505291252  0.4696815791829392  0.0942384502481133  1.0000
  N   N10       1.0  0.5362328325336844  0.7802578705914556  0.15590589019299728  1.0000
  N   N11       1.0  0.094254264495369  0.09762549243416171  0.2182995848840505  1.0000
  N   N12       1.0  0.1556740178042162  0.14461510523771173  0.0320983463364541  1.0000
  N   N13       1.0  0.4629249923019501  0.47374078834855016  0.8494008527266387  1.0000
  N   N14       1.0  0.2842586758146837  0.2799713779996083  0.9040680995313649  1.0000
  N   N15       1.0  0.9655289130856417  0.7217570150947238  0.8420173367382945  1.0000
  N   N16       1.0  0.787221752732485  0.024803220421666862  0.9114120118494853  1.0000
  O   O1        1.0  0.9999910132647756  0.4994920850208397  0.5004030924576098  1.0000
  O   O2        1.0  0.0759719430051078  0.31748166414985224  0.5232700566164397  1.0000
  O   O3        1.0  0.034353413981882894  0.5283806638838371  0.5863203506917216  1.0000
  O   O4        1.0  0.15749591196655638  0.5056848324141325  0.450329985442565  1.0000
  O   O5        1.0  0.0241868486142778  0.3748564141439416  0.5823070322901954  1.0000
  O   O6        1.0  0.1520596108159467  0.3929979742797656  0.44636525919575826  1.0000
  O   O7        1.0  0.08119900021981859  0.5880351877698827  0.5305759040857153  1.0000
  O   O8        1.0  0.004802434394157702  0.6552601532896316  0.4487621297238107  1.0000
  O   O9        1.0  0.8879241004876164  0.4985513562949677  0.44164829292861174  1.0000
  O   O10       1.0  0.8888194617870369  0.6548270540015861  0.44751599439509687  1.0000
  O   O11       1.0  0.9945633506654372  0.38679361707755777  0.44206587334882397  1.0000
  O   O12       1.0  0.8751474007898921  0.5271068466183091  0.5827582588148487  1.0000
  O   O13       1.0  0.8170733416376166  0.5768173794501906  0.5238946210406111  1.0000
  O   O14       1.0  0.749868978458103  0.24979827599130283  0.2504317493402013  1.0000
  O   O15       1.0  0.5967182543783878  0.35694957671412175  0.30334620799084894  1.0000
  O   O16       1.0  0.662211485370804  0.16571883501512022  0.2187321603734347  1.0000
  O   O17       1.0  0.724208993489995  0.3754257754645423  0.1682401860973783  1.0000
  O   O18       1.0  0.5928822932863935  0.2431702498787872  0.3001696207146765  1.0000
  O   O19       1.0  0.6736796048632598  0.43326853591242526  0.22717822104015534  1.0000
  O   O20       1.0  0.7234091182844651  0.21588202676954882  0.16535671382697356  1.0000
  O   O21       1.0  0.8768944055823551  0.2260425148801133  0.17060376707635777  1.0000
  O   O22       1.0  0.8652280288637468  0.25393812860162507  0.30737713115726  1.0000
  O   O23       1.0  0.9361279859996969  0.1700447029984743  0.22875770729309144  1.0000
  O   O24       1.0  0.7540344211401686  0.36151622143573536  0.3084403982350139  1.0000
  O   O25       1.0  0.7467376726841691  0.09306450566522531  0.2991320833181632  1.0000
  O   O26       1.0  0.8596935976581361  0.09677546836735466  0.3043760278496634  1.0000
  O   O27       1.0  0.24984806396801673  0.7498430469138239  0.7501961136758338  1.0000
  O   O28       1.0  0.3752421256438864  0.7262496341480754  0.6681275718051225  1.0000
  O   O29       1.0  0.3638607592515726  0.7548362698568524  0.8080818313522115  1.0000
  O   O30       1.0  0.1721253616366241  0.9329436392777237  0.7264514673664948  1.0000
  O   O31       1.0  0.4326101476167564  0.6728583789650527  0.7270663356985023  1.0000
  O   O32       1.0  0.2229250143412286  0.8750989722417015  0.6675443280304664  1.0000
  O   O33       1.0  0.2525940150319598  0.8619957283986466  0.8077980563196974  1.0000
  O   O34       1.0  0.09575927230920908  0.8568245614048707  0.8026817718668652  1.0000
  O   O35       1.0  0.1627103065075488  0.6654690986874455  0.7194001096852033  1.0000
  O   O36       1.0  0.09261735018250047  0.7423791508403069  0.8004534496195532  1.0000
  O   O37       1.0  0.22189655430475597  0.7159239145738708  0.6649118097288421  1.0000
  O   O38       1.0  0.36011215560697  0.5969045255801927  0.8039713738985697  1.0000
  O   O39       1.0  0.24702261830528016  0.592888738418459  0.7993498377689008  1.0000
  O   O40       1.0  0.4999193698635195  0.9997191876406859  0.0001737308375382176  1.0000
  O   O41       1.0  0.5041455630484463  0.15567248728167013  0.949626828353516  1.0000
  O   O42       1.0  0.38842261273938306  0.9974553411940194  0.9407004185930815  1.0000
  O   O43       1.0  0.6525017966671526  0.893589417167469  0.9468030046797226  1.0000
  O   O44       1.0  0.388937845069428  0.15448276286080173  0.9471465813054962  1.0000
  O   O45       1.0  0.6575485345100134  0.006569203053963615  0.950532051958696  1.0000
  O   O46       1.0  0.49616666568328316  0.886427808905374  0.9421426676795762  1.0000
  O   O47       1.0  0.5765814767088671  0.8167679775532405  0.02322832248688662  1.0000
  O   O48       1.0  0.5315340940623514  0.029543937595249696  0.08621579505582133  1.0000
  O   O49       1.0  0.5245233627516869  0.8745618356867194  0.08212218546329102  1.0000
  O   O50       1.0  0.5829271048333594  0.08704694821592789  0.03130983064873759  1.0000
  O   O51       1.0  0.3140264343823701  0.07726438873105224  0.021616144477547998  1.0000
  O   O52       1.0  0.37375503674863353  0.02745208607419156  0.0799752966047436  1.0000
  F   F1        1.0  0.7809841635957968  0.5172167698482323  0.3987599137509149  1.0000
  F   F2        1.0  0.16035580833302987  0.6592064699126324  0.5423519168722136  1.0000
  F   F3        1.0  0.7069228945660482  0.20847885728336016  0.09031369912967335  1.0000
  F   F4        1.0  0.23329690849504908  0.9690297047886526  0.8509515175606454  1.0000
