data_image0
_chemical_formula_structural       Zn2H12C32N6O16
_chemical_formula_sum              "Zn2 H12 C32 N6 O16"
_cell_length_a       14.359291667519798
_cell_length_b       15.073659427630384
_cell_length_c       15.151715686599825
_cell_angle_alpha    89.97181607297996
_cell_angle_beta     89.08738242886652
_cell_angle_gamma    90.00262519927405

_space_group_name_H-M_alt    "P 1"
_space_group_IT_number       1

loop_
  _space_group_symop_operation_xyz
  'x, y, z'

loop_
  _atom_site_type_symbol
  _atom_site_label
  _atom_site_symmetry_multiplicity
  _atom_site_fract_x
  _atom_site_fract_y
  _atom_site_fract_z
  _atom_site_occupancy
  Zn  Zn1       1.0  0.5000346578070634  0.5889554731292536  0.4999630967943175  1.0000
  Zn  Zn2       1.0  0.5000242046210488  0.40001460210626044  0.5000371625116031  1.0000
  H   H1        1.0  0.36584499600773757  0.06037250947713351  0.5686591068241498  1.0000
  H   H2        1.0  0.5768148269776107  0.9296573759641545  0.3751140324876872  1.0000
  H   H3        1.0  0.6341516600899199  0.06037901604420169  0.43134364094260746  1.0000
  H   H4        1.0  0.42312094985403786  0.9295473487756141  0.6248634385227659  1.0000
  H   H5        1.0  0.5450061313050797  0.6622709871672825  0.938365773781797  1.0000
  H   H6        1.0  0.5446818227561677  0.3891390460256545  0.0600494933651134  1.0000
  H   H7        1.0  0.4549322149078421  0.6622639587085645  0.0615000869062428  1.0000
  H   H8        1.0  0.4552321687772931  0.38917279729953685  0.9400436271287445  1.0000
  H   H9        1.0  0.5420304104153145  0.6625469495785339  0.7746299784233057  1.0000
  H   H10       1.0  0.5419833483091878  0.3890552859366493  0.22428304970260626  1.0000
  H   H11       1.0  0.45790309057144885  0.6625021376071344  0.2252391056831229  1.0000
  H   H12       1.0  0.45803721410348425  0.389072794824969  0.7758114435864698  1.0000
  C   C1        1.0  0.49972206402082964  0.5247096766266638  0.6671033814538134  1.0000
  C   C2        1.0  0.5003276921858201  0.5246757270607318  0.332881396556175  1.0000
  C   C3        1.0  0.3219191108035986  0.46085735643848835  0.4953063916936671  1.0000
  C   C4        1.0  0.678106249507202  0.4608556480881632  0.5047394239559111  1.0000
  C   C5        1.0  0.4269355897287994  0.09211002662860321  0.5392653489762224  1.0000
  C   C6        1.0  0.5437651793647973  0.897907171814076  0.4320031643493607  1.0000
  C   C7        1.0  0.573091168249924  0.0921211099937764  0.460745931688244  1.0000
  C   C8        1.0  0.4561802539248063  0.8978371791179924  0.5679795462015632  1.0000
  C   C9        1.0  0.4334978297102196  0.18407908951650137  0.5398820488034204  1.0000
  C   C10       1.0  0.5438966774015127  0.8059298231499313  0.4380609515409332  1.0000
  C   C11       1.0  0.5666086031057488  0.18409942185178352  0.4601657158460596  1.0000
  C   C12       1.0  0.45601377448348757  0.8058751099569009  0.5619141390240543  1.0000
  C   C13       1.0  0.22172756782663322  0.4568937368639325  0.4947916754476225  1.0000
  C   C14       1.0  0.7782941899373554  0.4568676413617538  0.5052937482635187  1.0000
  C   C15       1.0  0.1363017840286105  0.45540719326443485  0.4964547372205885  1.0000
  C   C16       1.0  0.8637246484744308  0.45539604868574196  0.5036058197198372  1.0000
  C   C17       1.0  0.042967961839053694  0.45455395010939276  0.4987844422360155  1.0000
  C   C18       1.0  0.9570571858495853  0.4545715235772079  0.5013182630093027  1.0000
  C   C19       1.0  0.5000054257659912  0.04392189385351489  0.5000032825662615  1.0000
  C   C20       1.0  0.4999810372136437  0.9460519175194406  0.49999866068467463  1.0000
  C   C21       1.0  0.5240863615256401  0.6025802640815388  0.9032053442809839  1.0000
  C   C22       1.0  0.5236332957104893  0.4487791261209749  0.09594352772351299  1.0000
  C   C23       1.0  0.4758557675431233  0.6025629524095208  0.09672890069941077  1.0000
  C   C24       1.0  0.47629019943756384  0.44879441629627337  0.9040955228923265  1.0000
  C   C25       1.0  0.5235002140077043  0.6028562328667845  0.811475432018824  1.0000
  C   C26       1.0  0.5230784534458408  0.4484115878217949  0.1876630617364015  1.0000
  C   C27       1.0  0.4764335433853403  0.6028124046780761  0.18845087853288325  1.0000
  C   C28       1.0  0.4769091130289666  0.44842623463127745  0.812379653166367  1.0000
  C   C29       1.0  0.5001768834225047  0.5256234574079031  0.7652478760969572  1.0000
  C   C30       1.0  0.4998101970441269  0.5255883120695514  0.2347242776332905  1.0000
  C   C31       1.0  0.5001091765793504  0.5257756049761113  0.9513078738149472  1.0000
  C   C32       1.0  0.4998166959878461  0.5257579134781525  0.0486837964777109  1.0000
  N   N1        1.0  0.5000628980380384  0.23174357845555696  0.5000277029348581  1.0000
  N   N2        1.0  0.4999549726249198  0.7583118302574335  0.4999894681876426  1.0000
  N   N3        1.0  0.3615919042492095  0.23203132015279954  0.5935915828047766  1.0000
  N   N4        1.0  0.6018636588114319  0.757552285355608  0.3712326467640778  1.0000
  N   N5        1.0  0.6385891807959181  0.23206948092703064  0.4065246327189911  1.0000
  N   N6        1.0  0.3980351199043923  0.7574612800006407  0.6287549403861377  1.0000
  O   O1        1.0  0.5067141654610907  0.6003012515728372  0.6273546740308973  1.0000
  O   O2        1.0  0.5077648702976915  0.45064555321516053  0.37180817098970914  1.0000
  O   O3        1.0  0.49333987387895917  0.6002810336189555  0.37256048518131013  1.0000
  O   O4        1.0  0.49227233423435734  0.45068222075988024  0.6282414009827803  1.0000
  O   O5        1.0  0.3593371801762969  0.5364963197790048  0.5010383421336329  1.0000
  O   O6        1.0  0.6357885982457886  0.3856194604980274  0.5099140400659151  1.0000
  O   O7        1.0  0.6406855320675433  0.536487203183789  0.4989458799867137  1.0000
  O   O8        1.0  0.3642422151822515  0.38562641426067057  0.49019107604679135  1.0000
  O   O9        1.0  0.27986272292590547  0.2115101532345562  0.5802720390010165  1.0000
  O   O10       1.0  0.3913562927774663  0.28377248600175164  0.6492271116308146  1.0000
  O   O11       1.0  0.6582625153592117  0.7041579950135242  0.40026727049934857  1.0000
  O   O12       1.0  0.5904659834928977  0.7794050972853556  0.29348460767970147  1.0000
  O   O13       1.0  0.7202837839976225  0.21148382660406637  0.4199162442407669  1.0000
  O   O14       1.0  0.6089103814483534  0.283860588905668  0.3508380613622108  1.0000
  O   O15       1.0  0.3416346520749087  0.7041031191161837  0.5997226591360628  1.0000
  O   O16       1.0  0.4094015376425517  0.7792932848965037  0.7064933419359392  1.0000
