data_image0
_chemical_formula_structural       Rb4V4H56C40N8O32
_chemical_formula_sum              "Rb4 V4 H56 C40 N8 O32"
_cell_length_a       6.774792927510537
_cell_length_b       12.516181473571617
_cell_length_c       17.48274075620657
_cell_angle_alpha    89.99890735968445
_cell_angle_beta     92.96357161350272
_cell_angle_gamma    89.9999227826337

_space_group_name_H-M_alt    "P 1"
_space_group_IT_number       1

loop_
  _space_group_symop_operation_xyz
  'x, y, z'

loop_
  _atom_site_type_symbol
  _atom_site_label
  _atom_site_symmetry_multiplicity
  _atom_site_fract_x
  _atom_site_fract_y
  _atom_site_fract_z
  _atom_site_occupancy
  Rb  Rb1       1.0  0.25124718109353944  0.4005033017088025  0.995632062120329  1.0000
  Rb  Rb2       1.0  0.748753068746538  0.9005032617443193  0.5043694622068813  1.0000
  Rb  Rb3       1.0  0.7487530929442768  0.5995020193863  0.004369171654289499  1.0000
  Rb  Rb4       1.0  0.25125464112986856  0.09949406971158944  0.49563023440499887  1.0000
  V   V1        1.0  0.7260397179029924  0.26862703170849045  0.07288949562292402  1.0000
  V   V2        1.0  0.2739568066847013  0.7686231813759431  0.4271113522090673  1.0000
  V   V3        1.0  0.2739620801367693  0.731374294579965  0.9271100587649032  1.0000
  V   V4        1.0  0.7260347070362271  0.2313789439157077  0.5728856667112652  1.0000
  H   H1        1.0  0.7909431940640627  0.10499369958846223  0.21724938817621356  1.0000
  H   H2        1.0  0.2090762163283699  0.6049921629834786  0.2827548004294798  1.0000
  H   H3        1.0  0.20907627806666076  0.8950124204519695  0.7827528793868481  1.0000
  H   H4        1.0  0.7909108174910526  0.3950075653909906  0.7172438268229228  1.0000
  H   H5        1.0  0.825231330160406  0.907678274735787  0.2413786360992418  1.0000
  H   H6        1.0  0.1747512555991406  0.40767672676552286  0.2586205634228733  1.0000
  H   H7        1.0  0.17476583450994093  0.09232704628475832  0.7586282431212368  1.0000
  H   H8        1.0  0.825237302211505  0.5923238005966454  0.7413763844099891  1.0000
  H   H9        1.0  0.814448259782068  0.7836419468497484  0.1294525399280246  1.0000
  H   H10       1.0  0.18552154838775434  0.2836413878204667  0.3705491777944729  1.0000
  H   H11       1.0  0.18552077768308814  0.2163577814064084  0.8705553788593079  1.0000
  H   H12       1.0  0.814487700821658  0.7163583405622448  0.6294482677325276  1.0000
  H   H13       1.0  0.7746279142597174  0.8606434496697803  0.9966383099139194  1.0000
  H   H14       1.0  0.22535788773025436  0.360641514894411  0.5033576870378624  1.0000
  H   H15       1.0  0.22534711176530914  0.13935388172353672  0.0033668928144265984  1.0000
  H   H16       1.0  0.7746705902699418  0.6393558165860327  0.4966396489905732  1.0000
  H   H17       1.0  0.7246289883446692  0.9321882208907227  0.8944850646766511  1.0000
  H   H18       1.0  0.27538146551189163  0.4321795203863203  0.6055162756091264  1.0000
  H   H19       1.0  0.2753579380607931  0.0678099094987346  0.1055175641676414  1.0000
  H   H20       1.0  0.7246218411773099  0.5678210069507301  0.3944821710244995  1.0000
  H   H21       1.0  0.6887008040457941  0.0328484899859873  0.7718002722863843  1.0000
  H   H22       1.0  0.3112968709944112  0.5328443502421222  0.7281981659202188  1.0000
  H   H23       1.0  0.31128315110046156  0.9671496403977784  0.2282028571139563  1.0000
  H   H24       1.0  0.6886916100804967  0.46716017191040754  0.2718016401574772  1.0000
  H   H25       1.0  0.6671744809829929  0.23305967812784442  0.7749512470503178  1.0000
  H   H26       1.0  0.33282958103923477  0.733055608078864  0.7250486347831497  1.0000
  H   H27       1.0  0.3328228678495577  0.7669376533272825  0.2250487723716503  1.0000
  H   H28       1.0  0.6671634106332646  0.2669489141089869  0.2749484196699967  1.0000
  H   H29       1.0  0.6883026642387833  0.32440449170523084  0.9040645836755701  1.0000
  H   H30       1.0  0.3117202487500492  0.8243991012563187  0.5959327972012503  1.0000
  H   H31       1.0  0.31171098814890286  0.6755960356249633  0.0959341118024  1.0000
  H   H32       1.0  0.6882831346659514  0.17560142611899465  0.404062791160257  1.0000
  H   H33       1.0  0.13848831428050803  0.4237874732877033  0.8260261396514821  1.0000
  H   H34       1.0  0.8615146952711256  0.9237868073810847  0.6739785675483958  1.0000
  H   H35       1.0  0.8615149003347324  0.5762138529691683  0.1739757369032375  1.0000
  H   H36       1.0  0.13848559413170847  0.07620972509869971  0.3260220946318384  1.0000
  H   H37       1.0  0.24279752444832067  0.3464299718741017  0.7668583133188491  1.0000
  H   H38       1.0  0.7571971014335688  0.8464269931804581  0.7331420927301338  1.0000
  H   H39       1.0  0.7571997629920659  0.6535721533447685  0.23314399268806343  1.0000
  H   H40       1.0  0.24280174070305793  0.1535695393156118  0.2668573905920582  1.0000
  H   H41       1.0  0.9846844338637479  0.4255852690213331  0.1391743526471458  1.0000
  H   H42       1.0  0.015309711331120496  0.9255801751266262  0.3608317464634112  1.0000
  H   H43       1.0  0.01531285357485501  0.5744176551632592  0.8608279533543168  1.0000
  H   H44       1.0  0.984695073323941  0.0744163573808265  0.6391667357466986  1.0000
  H   H45       1.0  0.16828033723668054  0.5048108964697917  0.1460816585769109  1.0000
  H   H46       1.0  0.8317204151777202  0.0048063469021642005  0.3539194352336992  1.0000
  H   H47       1.0  0.83172289272035  0.49519202772617626  0.8539196463124625  1.0000
  H   H48       1.0  0.16827990491583475  0.995190185592925  0.6460800836376847  1.0000
  H   H49       1.0  0.46528470285294776  0.40813981930250526  0.1548850066101437  1.0000
  H   H50       1.0  0.5347067639336202  0.908136389681147  0.3451138282589739  1.0000
  H   H51       1.0  0.5347156786077605  0.5918631049489919  0.8451122255998768  1.0000
  H   H52       1.0  0.465298005376077  0.09186014281866049  0.6548852256055611  1.0000
  H   H53       1.0  0.5265692775719869  0.5312922122157105  0.1670505090370753  1.0000
  H   H54       1.0  0.4734314791701307  0.03129006703859011  0.3329456496791749  1.0000
  H   H55       1.0  0.4734296105882194  0.4687099130633926  0.8329472592836353  1.0000
  H   H56       1.0  0.5265732901413499  0.968705666495488  0.667053404190824  1.0000
  C   C1        1.0  0.7874780301899378  0.04765096216888761  0.170262788535986  1.0000
  C   C2        1.0  0.21253310650465804  0.5476505614896041  0.3297293939046142  1.0000
  C   C3        1.0  0.21253252817385965  0.9523503640601235  0.8297409807279621  1.0000
  C   C4        1.0  0.7874657663137582  0.4523499658503953  0.6702689460814355  1.0000
  C   C5        1.0  0.8067850557035141  0.9381651948783586  0.1832455979860086  1.0000
  C   C6        1.0  0.19321329830054879  0.4381612777844098  0.3167667240697654  1.0000
  C   C7        1.0  0.19321514162000136  0.061834533418412704  0.8167584940989343  1.0000
  C   C8        1.0  0.8067841425970242  0.5618392495795277  0.683229865403824  1.0000
  C   C9        1.0  0.8012357243392071  0.8695724341342912  0.12040736640599188  1.0000
  C   C10       1.0  0.19875035602931482  0.3695756187963611  0.37957870515683817  1.0000
  C   C11       1.0  0.19875403521543689  0.13042649515770685  0.8795999067666216  1.0000
  C   C12       1.0  0.8012559372716125  0.6304217126911456  0.6204186692881564  1.0000
  C   C13       1.0  0.7773024586651616  0.9120312636236745  0.046965912788891694  1.0000
  C   C14       1.0  0.2226930409641241  0.4120236754613061  0.4530472669438623  1.0000
  C   C15       1.0  0.22267850987472562  0.08796766571246913  0.953038288816451  1.0000
  C   C16       1.0  0.7773236747567366  0.5879760529547653  0.5469474980569727  1.0000
  C   C17       1.0  0.7574164734831044  0.022860028678870502  0.0387472810681402  1.0000
  C   C18       1.0  0.2425888008678213  0.5228616769073186  0.4612473845244338  1.0000
  C   C19       1.0  0.24257778132198374  0.9771396996065179  0.9612578121288919  1.0000
  C   C20       1.0  0.7574219109567295  0.47713645353531586  0.5387506682170979  1.0000
  C   C21       1.0  0.730857200314844  0.07569763297503582  0.9636850604773102  1.0000
  C   C22       1.0  0.26915187659628254  0.5756818842062402  0.5363216515248368  1.0000
  C   C23       1.0  0.2691371158734697  0.9243012963752407  0.0363177461074855  1.0000
  C   C24       1.0  0.7308528927080499  0.42431704519073327  0.4636774023233272  1.0000
  C   C25       1.0  0.7195664751530797  0.019252435295669598  0.894409526166335  1.0000
  C   C26       1.0  0.28044474645501066  0.5192452096784522  0.6055825579284146  1.0000
  C   C27       1.0  0.2804263630711645  0.9807496899184899  0.1055932448474337  1.0000
  C   C28       1.0  0.7195497231815576  0.4807561166455158  0.3944145320957588  1.0000
  C   C29       1.0  0.6977717738931658  0.0756859056968864  0.8260332027609536  1.0000
  C   C30       1.0  0.3022386429059408  0.5756760341685877  0.6739786898002862  1.0000
  C   C31       1.0  0.3022239895702866  0.9243090288084802  0.1739707827091692  1.0000
  C   C32       1.0  0.6977513314712525  0.42432848799061423  0.3260205801721768  1.0000
  C   C33       1.0  0.6870942831060489  0.18691310184773613  0.8276667336956365  1.0000
  C   C34       1.0  0.31291315603336045  0.6869128546395088  0.6723258465981773  1.0000
  C   C35       1.0  0.3129059142192503  0.8130858274833129  0.1723373583947705  1.0000
  C   C36       1.0  0.6870798356462798  0.3130884716854396  0.3276712078768043  1.0000
  C   C37       1.0  0.6975888690217146  0.23786698893765396  0.8983932562085499  1.0000
  C   C38       1.0  0.3024282122653759  0.7378526641066332  0.6016165980754807  1.0000
  C   C39       1.0  0.30241722478593397  0.7621319403818206  0.1016115497330503  1.0000
  C   C40       1.0  0.697569290011856  0.2621486622536366  0.3983777047749442  1.0000
  N   N1        1.0  0.7628382150809612  0.0888593701351112  0.0998377895671467  1.0000
  N   N2        1.0  0.23717948261037944  0.5888546687330988  0.4001780170600782  1.0000
  N   N3        1.0  0.23717089602020278  0.9111403581787345  0.9001648008496801  1.0000
  N   N4        1.0  0.7628253480771932  0.41114346172875577  0.5998187501758423  1.0000
  N   N5        1.0  0.7184239360746146  0.18387997635829825  0.964944606914017  1.0000
  N   N6        1.0  0.28158638048797957  0.6838722426419822  0.5350515159007116  1.0000
  N   N7        1.0  0.2815763993500084  0.8161229478702409  0.0350543402592791  1.0000
  N   N8        1.0  0.7184183734656386  0.3161290836445119  0.4649481095854995  1.0000
  O   O1        1.0  0.45646452888367856  0.22711274914964016  0.0815151338707309  1.0000
  O   O2        1.0  0.5435426651602029  0.7271137396813999  0.4184813851367508  1.0000
  O   O3        1.0  0.5435432423652385  0.772888577165503  0.9184822760961638  1.0000
  O   O4        1.0  0.4564606722322182  0.27288119491088736  0.5815159182262377  1.0000
  O   O5        1.0  0.5411912445819169  0.27642634811453354  0.151207663600033  1.0000
  O   O6        1.0  0.45880228920918137  0.776423670746425  0.3487930065551694  1.0000
  O   O7        1.0  0.4588090908409228  0.723577375079728  0.848791283567806  1.0000
  O   O8        1.0  0.5412009868053715  0.22356966588380095  0.6512065834364336  1.0000
  O   O9        1.0  0.006224041300605201  0.25318565210616845  0.07399336726944482  1.0000
  O   O10       1.0  0.9937842992897927  0.7531741491184791  0.42601083427256736  1.0000
  O   O11       1.0  0.9937807433365933  0.7468188700585261  0.926005114886081  1.0000
  O   O12       1.0  0.006220546743136895  0.24682398135102804  0.5739853613089281  1.0000
  O   O13       1.0  0.9387123247967819  0.2951484478832286  0.1458581452840377  1.0000
  O   O14       1.0  0.061279447834465386  0.7951387078410264  0.35414966505766904  1.0000
  O   O15       1.0  0.06128944254868429  0.70485447632138  0.8541425524017184  1.0000
  O   O16       1.0  0.9387194096546664  0.20485462879980082  0.6458492466319399  1.0000
  O   O17       1.0  0.6937863621545617  0.3825937258508318  0.027033477527659503  1.0000
  O   O18       1.0  0.3062125012626566  0.8825830322203673  0.47296988578161603  1.0000
  O   O19       1.0  0.3062154665616319  0.6174139921787258  0.9729649335076471  1.0000
  O   O20       1.0  0.6937908668133443  0.1174150982501203  0.5270262742506873  1.0000
  O   O21       1.0  0.26362771294559906  0.3830994406877722  0.8156779189721775  1.0000
  O   O22       1.0  0.7363739852710722  0.8830977840175295  0.6843278803038118  1.0000
  O   O23       1.0  0.7363710524517089  0.6169026845301105  0.18432442258393417  1.0000
  O   O24       1.0  0.2636292600420376  0.11690034639174482  0.31567285296389264  1.0000
  O   O25       1.0  0.023069203838517197  0.5029399411006565  0.13318256350655844  1.0000
  O   O26       1.0  0.976928570343162  0.0029333488720553  0.3668196280933386  1.0000
  O   O27       1.0  0.9769310395067876  0.49706617894486993  0.8668198135714462  1.0000
  O   O28       1.0  0.023074644286374686  0.9970615856590116  0.6331822485050438  1.0000
  O   O29       1.0  0.41442182753644363  0.4833632851826907  0.1529008763960888  1.0000
  O   O30       1.0  0.5855767079657567  0.9833597676942177  0.347096536706502  1.0000
  O   O31       1.0  0.5855815405199037  0.5166436339107747  0.8470952835761736  1.0000
  O   O32       1.0  0.4144310019160072  0.0166351668645177  0.6529031599217631  1.0000
