data_image0
_chemical_formula_structural       Zn2H21C28N6ClO8
_chemical_formula_sum              "Zn2 H21 C28 N6 Cl1 O8"
_cell_length_a       9.84760673166442
_cell_length_b       11.021896869045692
_cell_length_c       11.009075473738225
_cell_angle_alpha    92.19443239411746
_cell_angle_beta     92.49476075478734
_cell_angle_gamma    91.57787222407445

_space_group_name_H-M_alt    "P 1"
_space_group_IT_number       1

loop_
  _space_group_symop_operation_xyz
  'x, y, z'

loop_
  _atom_site_type_symbol
  _atom_site_label
  _atom_site_symmetry_multiplicity
  _atom_site_fract_x
  _atom_site_fract_y
  _atom_site_fract_z
  _atom_site_occupancy
  Zn  Zn1       1.0  0.3580771067745303  0.4996416091289079  0.48837716428843697  1.0000
  Zn  Zn2       1.0  0.6464612069532832  0.5039709568468781  0.5010856805637403  1.0000
  H   H1        1.0  0.7122507095975975  0.5330418710918963  0.1231224873571861  1.0000
  H   H2        1.0  0.2522967507781573  0.4384338635530156  0.7711855997810916  1.0000
  H   H3        1.0  0.699370724720481  0.13128385297036263  0.5720995634117045  1.0000
  H   H4        1.0  0.7113031723173576  0.9067218076497883  0.5757824680051229  1.0000
  H   H5        1.0  0.23536993852378882  0.8641351844984232  0.3256371968518579  1.0000
  H   H6        1.0  0.2516638724768896  0.6406188492302364  0.6718158630266373  1.0000
  H   H7        1.0  0.1022806340667728  0.6981532224522341  0.7223879605282733  1.0000
  H   H8        1.0  0.1345866242467011  0.2682867628826884  0.1703861786591645  1.0000
  H   H9        1.0  0.2355197433534499  0.37654162977099764  0.23807974206003732  1.0000
  H   H10       1.0  0.8800981702148504  0.1771401138552662  0.42607337205063794  1.0000
  H   H11       1.0  0.7406801213895662  0.22421510103185235  0.36026821116323055  1.0000
  H   H12       1.0  0.175471413013021  0.8614344677030136  0.4766408361583956  1.0000
  H   H13       1.0  0.3121827985572097  0.6553745247306609  0.2710542297379348  1.0000
  H   H14       1.0  0.14237507221554319  0.6534022654191532  0.24304367932909088  1.0000
  H   H15       1.0  0.21759387119937662  0.0896478038199646  0.3283743941681578  1.0000
  H   H16       1.0  0.1610996699520442  0.08912154559497051  0.48097341331546056  1.0000
  H   H17       1.0  0.8816995081738952  0.6392727903442436  0.6377876681069097  1.0000
  H   H18       1.0  0.101553906053276  0.24675538459388954  0.38490601834988775  1.0000
  H   H19       1.0  0.8712449965949176  0.3633925977711386  0.2410300238777481  1.0000
  H   H20       1.0  0.0267265012376043  0.5787025518340059  0.0678489686486046  1.0000
  H   H21       1.0  0.0335809644881593  0.4661315052070024  0.8689626065929091  1.0000
  C   C1        1.0  0.48852841914633427  0.26762156083391636  0.4946467806945378  1.0000
  C   C2        1.0  0.6177764276416725  0.9482944473102607  0.5439460753002763  1.0000
  C   C3        1.0  0.5061739060831342  0.8713985024368401  0.504604373394514  1.0000
  C   C4        1.0  0.5039627717348907  0.517967277016723  0.2598422172623032  1.0000
  C   C5        1.0  0.38857695447021706  0.9296989761133221  0.46752680577924377  1.0000
  C   C6        1.0  0.2440914800745588  0.9086427881455992  0.4167651796783148  1.0000
  C   C7        1.0  0.23443262528367373  0.05141993358368781  0.41834817745215963  1.0000
  C   C8        1.0  0.924147898101431  0.43007760475298806  0.4277336797171145  1.0000
  C   C9        1.0  0.9336365429695803  0.5785915242079014  0.5756961282115327  1.0000
  C   C10       1.0  0.07907281288649412  0.5827483702809887  0.5752108147397053  1.0000
  C   C11       1.0  0.06440875380531709  0.43370379063250647  0.4267277810594479  1.0000
  C   C12       1.0  0.3710903271385392  0.5471188667149677  0.05440437626975841  1.0000
  C   C13       1.0  0.07018588439758129  0.3276413435824494  0.335220941177603  1.0000
  C   C14       1.0  0.9079810827989974  0.32822454335673973  0.32828057642725383  1.0000
  C   C15       1.0  0.5117867935882288  0.7364339491536639  0.5009940530962425  1.0000
  C   C16       1.0  0.5067627699594155  0.5080035489037656  0.7312156015600523  1.0000
  C   C17       1.0  0.2436792023254242  0.5851432128546251  0.10029332282023522  1.0000
  C   C18       1.0  0.1242814969300809  0.5564271734188609  0.0306226553025937  1.0000
  C   C19       1.0  0.1285157597141051  0.49625385098298846  0.9169623566848699  1.0000
  C   C20       1.0  0.2508741912446979  0.4779620596076272  0.8628452426999474  1.0000
  C   C21       1.0  0.37471034932898556  0.5123418150399957  0.9266638951305451  1.0000
  C   C22       1.0  0.4959912064365071  0.540838457031839  0.12573297733655414  1.0000
  C   C23       1.0  0.6178468853162896  0.5359165869436283  0.0682359054375965  1.0000
  C   C24       1.0  0.6215801575427093  0.5327876464339097  0.9405332762620731  1.0000
  C   C25       1.0  0.5031995890160275  0.5145665145867683  0.8676366888936472  1.0000
  C   C26       1.0  0.380707054765935  0.056070274072162404  0.4679492173843443  1.0000
  C   C27       1.0  0.49159787775374747  0.13274968668910964  0.5022699382569087  1.0000
  C   C28       1.0  0.6109569822155478  0.0745592115019704  0.5417383319019535  1.0000
  N   N1        1.0  0.8556528407316575  0.5026279310042909  0.5028417447495386  1.0000
  N   N2        1.0  0.14690840684330908  0.508599513979526  0.49651354180384283  1.0000
  N   N3        1.0  0.15182848491326692  0.6608580449603139  0.6519671556770419  1.0000
  N   N4        1.0  0.13653419658473354  0.3463419739174541  0.22328017368725742  1.0000
  N   N5        1.0  0.8419553308141021  0.21249006258398853  0.3475883083187767  1.0000
  N   N6        1.0  0.235205211556007  0.6540943530136047  0.2066429865506834  1.0000
  Cl  Cl1       1.0  0.7823828397603451  0.553529737537545  0.8847960352765156  1.0000
  O   O1        1.0  0.3761657035133723  0.31856541184882303  0.5139655671244938  1.0000
  O   O2        1.0  0.598705673033308  0.3218561421538908  0.46792837727974756  1.0000
  O   O3        1.0  0.3980827564252252  0.4714906080441851  0.3056998323113476  1.0000
  O   O4        1.0  0.6167188933447392  0.5404586232786316  0.3179945928581844  1.0000
  O   O5        1.0  0.40356922320746236  0.6793801373449001  0.45870720222860223  1.0000
  O   O6        1.0  0.6202715335277631  0.686873995464488  0.5384569781633743  1.0000
  O   O7        1.0  0.40373000097721246  0.5470184939057106  0.670506455162112  1.0000
  O   O8        1.0  0.6109311461925343  0.4670558512113913  0.6821583465121606  1.0000
