data_image0
_chemical_formula_structural       Cd2H12C16I4N4
_chemical_formula_sum              "Cd2 H12 C16 I4 N4"
_cell_length_a       7.804559214080227
_cell_length_b       7.80456127583832
_cell_length_c       10.700009075219283
_cell_angle_alpha    72.47173486779933
_cell_angle_beta     72.47218063977868
_cell_angle_gamma    60.83510414204049

_space_group_name_H-M_alt    "P 1"
_space_group_IT_number       1

loop_
  _space_group_symop_operation_xyz
  'x, y, z'

loop_
  _atom_site_type_symbol
  _atom_site_label
  _atom_site_symmetry_multiplicity
  _atom_site_fract_x
  _atom_site_fract_y
  _atom_site_fract_z
  _atom_site_occupancy
  Cd  Cd1       1.0  0.559177755379473  0.5591755267204946  0.6365765701018091  1.0000
  Cd  Cd2       1.0  0.4408209749041775  0.440824540205213  0.3634236329966569  1.0000
  H   H1        1.0  0.3116823575563997  0.9957253543991914  0.4570827822982436  1.0000
  H   H2        1.0  0.004285222264812171  0.6883161395003583  0.5429113975856693  1.0000
  H   H3        1.0  0.6883156881690198  0.004273209105910799  0.5429169709406949  1.0000
  H   H4        1.0  0.9957135055061458  0.3116839249219794  0.4570878720407306  1.0000
  H   H5        1.0  0.2420614540743814  0.60923287632653  0.879288468618604  1.0000
  H   H6        1.0  0.39077390363087267  0.7579386448624136  0.12071174009704326  1.0000
  H   H7        1.0  0.7579393010694561  0.39076870173202854  0.12071188570349269  1.0000
  H   H8        1.0  0.6092254823964964  0.2420599263549192  0.879287714505992  1.0000
  H   H9        1.0  0.9740741362660188  0.6574525413042663  0.07817601502188151  1.0000
  H   H10       1.0  0.3425557925900335  0.025930652986865293  0.921816275825975  1.0000
  H   H11       1.0  0.02592596062140725  0.34255052995929713  0.9218241543235732  1.0000
  H   H12       1.0  0.6574435959500281  0.9740679207338444  0.07818411224913291  1.0000
  C   C1        1.0  0.19484046287023923  0.0159413385809657  0.546330616952325  1.0000
  C   C2        1.0  0.9840601994477968  0.8051571156163106  0.45367094100290456  1.0000
  C   C3        1.0  0.8051576091569997  0.984060221549747  0.4536694011695062  1.0000
  C   C4        1.0  0.015938530835853705  0.19484295130940404  0.5463292620955613  1.0000
  C   C5        1.0  0.07781158812361605  0.8953590614489003  0.7619721627516255  1.0000
  C   C6        1.0  0.1046371566536238  0.9221869422506257  0.2380369738809591  1.0000
  C   C7        1.0  0.9221891670202285  0.10464251660965121  0.23802819157047128  1.0000
  C   C8        1.0  0.8953629164446752  0.0778131348906967  0.7619638640536692  1.0000
  C   C9        1.0  0.10264860068363653  0.7454150200249144  0.8779533428415432  1.0000
  C   C10       1.0  0.2545902396256068  0.8973717868920162  0.12202980194776095  1.0000
  C   C11       1.0  0.8973521544602009  0.2545865580336368  0.12204701148054649  1.0000
  C   C12       1.0  0.7454091514271468  0.1026267893320707  0.8779715195994128  1.0000
  C   C13       1.0  0.9526891307948445  0.7738235924060533  0.9889851817144047  1.0000
  C   C14       1.0  0.22617558259947407  0.04730162569486399  0.011027756828262576  1.0000
  C   C15       1.0  0.04731228260541094  0.22617649244750024  0.011015357584326993  1.0000
  C   C16       1.0  0.7738238272170292  0.9526999396447097  0.9889710291855988  1.0000
  I   I1        1.0  0.6606044987397298  0.6606062308950271  0.35130295735228134  1.0000
  I   I2        1.0  0.33939423154392057  0.33939383603068046  0.6486972457461846  1.0000
  I   I3        1.0  0.6754717472961076  0.6754720376485822  0.8018869842948249  1.0000
  I   I4        1.0  0.3245290028223451  0.3245295354032295  0.19811150308312614  1.0000
  N   N1        1.0  0.22498319065967112  0.8683533263796407  0.6506478185895901  1.0000
  N   N2        1.0  0.13165857939541334  0.7750228689689607  0.3493426338948352  1.0000
  N   N3        1.0  0.7750168824386208  0.1316467507616821  0.34935301934503826  1.0000
  N   N4        1.0  0.8683414911901934  0.2249772056689849  0.6506572705677269  1.0000
