data_image0
_chemical_formula_structural       Mn2H20C32N4O8
_chemical_formula_sum              "Mn2 H20 C32 N4 O8"
_cell_length_a       8.197253433632696
_cell_length_b       8.300364590830837
_cell_length_c       10.499634583888579
_cell_angle_alpha    74.54165381979587
_cell_angle_beta     84.26105662883393
_cell_angle_gamma    72.8730125923585

_space_group_name_H-M_alt    "P 1"
_space_group_IT_number       1

loop_
  _space_group_symop_operation_xyz
  'x, y, z'

loop_
  _atom_site_type_symbol
  _atom_site_label
  _atom_site_symmetry_multiplicity
  _atom_site_fract_x
  _atom_site_fract_y
  _atom_site_fract_z
  _atom_site_occupancy
  Mn  Mn1       1.0  0.23989656586336136  0.5413541618975586  0.8742489719818495  1.0000
  Mn  Mn2       1.0  0.7600844859171189  0.45863788965119323  0.1257560276680607  1.0000
  H   H1        1.0  0.07997356734658473  0.20292831096135444  0.9409019585134999  1.0000
  H   H2        1.0  0.920026123999165  0.7970584643744233  0.059093225888496206  1.0000
  H   H3        1.0  0.026919298943816696  0.00010590055760669985  0.820187175829311  1.0000
  H   H4        1.0  0.9730825220905431  0.9998912549805966  0.17979613265250552  1.0000
  H   H5        1.0  0.0685263298568231  0.0646082316449679  0.5755695204333052  1.0000
  H   H6        1.0  0.9314809052859016  0.9354006133960627  0.42440995999307063  1.0000
  H   H7        1.0  0.1532641071017267  0.25603550480507664  0.36770136788832275  1.0000
  H   H8        1.0  0.8467479735368215  0.7439733522646179  0.6322901262790454  1.0000
  H   H9        1.0  0.2718401621385523  0.5030698814665585  0.2567378155886146  1.0000
  H   H10       1.0  0.7281792565225444  0.4969389645971348  0.7432578899589899  1.0000
  H   H11       1.0  0.3823932228895757  0.7445755948463602  0.2746294416920207  1.0000
  H   H12       1.0  0.6176236935222261  0.2554241808098539  0.7253817010484412  1.0000
  H   H13       1.0  0.4364302729314033  0.9241332893389826  0.41752288391085557  1.0000
  H   H14       1.0  0.5635794388514769  0.07587041318738841  0.5824898777262817  1.0000
  H   H15       1.0  0.38795046873646316  0.8296645853718303  0.664343104506024  1.0000
  H   H16       1.0  0.6120452447500283  0.17033654762395403  0.3356674448761297  1.0000
  H   H17       1.0  0.25958643683259197  0.012377708002198102  0.19296990935920633  1.0000
  H   H18       1.0  0.7404038049933348  0.9876299544291103  0.8070444361865655  1.0000
  H   H19       1.0  0.5499762335131138  0.9865229390356093  0.1260561617440032  1.0000
  H   H20       1.0  0.45000668944169314  0.013475628939282601  0.87395589308899  1.0000
  C   C1        1.0  0.1060234131388356  0.2225757810426998  0.8349460310739971  1.0000
  C   C2        1.0  0.8939743254187322  0.7774227068221862  0.16504682805697968  1.0000
  C   C3        1.0  0.07104912388947329  0.11206476209079601  0.7670319640105704  1.0000
  C   C4        1.0  0.9289558385463508  0.8879297908904249  0.23295546678063064  1.0000
  C   C5        1.0  0.09696366206981814  0.1459867760212674  0.6316718504053754  1.0000
  C   C6        1.0  0.9030412764022344  0.8540168844257465  0.36831461207914645  1.0000
  C   C7        1.0  0.16062347503051197  0.2875081147181717  0.5650354301992166  1.0000
  C   C8        1.0  0.8393838837832847  0.7124955527448621  0.4349575153361869  1.0000
  C   C9        1.0  0.18740885562405654  0.33272911994902904  0.42490919580725267  1.0000
  C   C10       1.0  0.8126093504600078  0.6672797236083383  0.5750837443953003  1.0000
  C   C11       1.0  0.25127836098094036  0.46954133106171975  0.36373789668139983  1.0000
  C   C12       1.0  0.7487465052790653  0.53046099558334  0.6362587745064661  1.0000
  C   C13       1.0  0.2908074363040924  0.5724892031093988  0.4395359729611742  1.0000
  C   C14       1.0  0.7092107504327457  0.4275105510125882  0.560466506795038  1.0000
  C   C15       1.0  0.35584081650457494  0.7158001921620497  0.381043370020521  1.0000
  C   C16       1.0  0.6441768161546122  0.28419697592454446  0.6189663643392223  1.0000
  C   C17       1.0  0.387517636717213  0.8121271678309513  0.4599452164568518  1.0000
  C   C18       1.0  0.6124956130894856  0.18787261232657937  0.540063344413106  1.0000
  C   C19       1.0  0.3602757297519263  0.7610679434721916  0.5974323941650326  1.0000
  C   C20       1.0  0.6397292987048644  0.23893055342048802  0.4025741999539322  1.0000
  C   C21       1.0  0.19775223549228835  0.38789053461589157  0.6430988862882643  1.0000
  C   C22       1.0  0.8022528314631714  0.6121079462497507  0.35690008894449926  1.0000
  C   C23       1.0  0.264575395047096  0.5324498426209634  0.5789800405079008  1.0000
  C   C24       1.0  0.7354289556609785  0.4675512458143062  0.4210203431055817  1.0000
  C   C25       1.0  0.1513950686877905  0.29142832639020355  0.1231191342029661  1.0000
  C   C26       1.0  0.8485907049174487  0.7085689147652092  0.8768844140789227  1.0000
  C   C27       1.0  0.2952878740917696  0.1302499427132204  0.14203128716941651  1.0000
  C   C28       1.0  0.704696471831035  0.8697525115780707  0.8579741255131311  1.0000
  C   C29       1.0  0.4591569852773248  0.11610777207494041  0.1025335273704613  1.0000
  C   C30       1.0  0.5408243958507485  0.8838920851581735  0.8974707521431925  1.0000
  C   C31       1.0  0.5407382620758624  0.2569251232537866  0.03353401882070271  1.0000
  C   C32       1.0  0.4592450767506264  0.7430721168957464  0.9664659034926261  1.0000
  N   N1        1.0  0.16986543608275184  0.35494602087845106  0.7760021510382629  1.0000
  N   N2        1.0  0.8301314143351418  0.6450511747189582  0.2239939050827289  1.0000
  N   N3        1.0  0.30116374722395267  0.6253165573947116  0.6555172821211671  1.0000
  N   N4        1.0  0.6988351654119853  0.3746819490035307  0.34448596124106245  1.0000
  O   O1        1.0  0.1770404516207975  0.4391888602850571  0.06928736966862911  1.0000
  O   O2        1.0  0.8229437560960379  0.5608096801454681  0.9307131650977851  1.0000
  O   O3        1.0  0.004807041947749708  0.269730830105722  0.1647303126158093  1.0000
  O   O4        1.0  0.9951783783461321  0.730267712831129  0.8352729874956565  1.0000
  O   O5        1.0  0.49742939899319066  0.3483402954901464  0.9182054036372947  1.0000
  O   O6        1.0  0.5025554011041606  0.651642620050943  0.08179171786049727  1.0000
  O   O7        1.0  0.6600487853270067  0.26366019097924465  0.09949955655494593  1.0000
  O   O8        1.0  0.3399334743160835  0.7363409625281039  0.9005034306902359  1.0000
