data_image0
_chemical_formula_structural       Zn6H84C120N18O27
_chemical_formula_sum              "Zn6 H84 C120 N18 O27"
_cell_length_a       9.469157091583696
_cell_length_b       19.60418374516312
_cell_length_c       19.601847138469694
_cell_angle_alpha    117.45834335547114
_cell_angle_beta     99.2729787306665
_cell_angle_gamma    99.28089073780592

_space_group_name_H-M_alt    "P 1"
_space_group_IT_number       1

loop_
  _space_group_symop_operation_xyz
  'x, y, z'

loop_
  _atom_site_type_symbol
  _atom_site_label
  _atom_site_symmetry_multiplicity
  _atom_site_fract_x
  _atom_site_fract_y
  _atom_site_fract_z
  _atom_site_occupancy
  Zn  Zn1       1.0  0.8147738574272338  0.3779035106122138  0.5357791926913648  1.0000
  Zn  Zn2       1.0  0.2786496998058823  0.4641684520033778  0.8420579454814427  1.0000
  Zn  Zn3       1.0  0.4363700088349773  0.1578904683235791  0.6221427651175802  1.0000
  Zn  Zn4       1.0  0.3623470708403929  0.7347008010727691  0.8648646183720529  1.0000
  Zn  Zn5       1.0  0.4967176038179701  0.1349609726946994  0.8698239865785523  1.0000
  Zn  Zn6       1.0  0.6274470611511732  0.13018975586589218  0.26518565727382537  1.0000
  H   H1        1.0  0.8348200396751579  0.7380194822945327  0.9597057830456918  1.0000
  H   H2        1.0  0.8748086360805369  0.04030428916920669  0.7785687106519033  1.0000
  H   H3        1.0  0.09700285359658521  0.2216619266531694  0.2617307826826476  1.0000
  H   H4        1.0  0.6640705606779349  0.5751730430117021  0.7077751143383608  1.0000
  H   H5        1.0  0.9555864946791175  0.29215429387467395  0.8673737352543469  1.0000
  H   H6        1.0  0.08874087615370031  0.1326656660845131  0.4246178637443236  1.0000
  H   H7        1.0  0.07198001147026652  0.6965212868984879  0.9572796531354228  1.0000
  H   H8        1.0  0.11432076481283102  0.042890124874539  0.7394943710297921  1.0000
  H   H9        1.0  0.3756583524800519  0.2607391781208008  0.30342736487097  1.0000
  H   H10       1.0  0.48753624212677943  0.6298488182495702  0.9394836268757698  1.0000
  H   H11       1.0  0.5471429034835182  0.06055748356128989  0.6903666091417404  1.0000
  H   H12       1.0  0.8578429311839812  0.30968354995086145  0.37026653332367226  1.0000
  H   H13       1.0  0.3027721736781643  0.4565562477373604  0.9897717009818194  1.0000
  H   H14       1.0  0.3129387373335888  0.0099606415042643  0.46649817549871386  1.0000
  H   H15       1.0  0.847084043146296  0.5333840023631425  0.5435296745733423  1.0000
  H   H16       1.0  0.9023416071029118  0.7867755482819022  0.738777420303279  1.0000
  H   H17       1.0  0.1629174211276236  0.2609696315967511  0.04791180282372659  1.0000
  H   H18       1.0  0.11532273490564647  0.9520477741748223  0.21293785518785305  1.0000
  H   H19       1.0  0.22908681677267145  0.7327969892300957  0.6042805566962527  1.0000
  H   H20       1.0  0.6241447359680379  0.39567815344411633  0.12843522294433998  1.0000
  H   H21       1.0  0.4958615928887652  0.8715472540936772  0.2671811535933627  1.0000
  H   H22       1.0  0.41241221595688415  0.5461942918252303  0.1345795888246001  1.0000
  H   H23       1.0  0.2779474730112099  0.8652026393308032  0.4114900417909765  1.0000
  H   H24       1.0  0.8669259452050111  0.5884258848795126  0.45377534382980383  1.0000
  H   H25       1.0  0.5993731824649942  0.7268556174269989  0.08045502903053853  1.0000
  H   H26       1.0  0.5187297329870901  0.9196842598828284  0.6465007317556369  1.0000
  H   H27       1.0  0.8725820704212239  0.3535039223011438  0.2731572265981157  1.0000
  H   H28       1.0  0.3589281357240496  0.7023225731533103  0.703907326981664  1.0000
  H   H29       1.0  0.654433393250052  0.2959832010896974  0.9984651337991152  1.0000
  H   H30       1.0  0.6563607338013854  0.0015905722842219998  0.297659177748038  1.0000
  H   H31       1.0  0.050315420464834004  0.758375205281098  0.8341380111326516  1.0000
  H   H32       1.0  0.21559807574004  0.16560907413850148  0.9242399756215319  1.0000
  H   H33       1.0  0.29187460070998833  0.075749260389685  0.24130128206983406  1.0000
  H   H34       1.0  0.7656506642275147  0.19181055887658977  0.4586784602925462  1.0000
  H   H35       1.0  0.30660275645450247  0.5410178958050338  0.7329608097671708  1.0000
  H   H36       1.0  0.5735856220609818  0.267096343759377  0.8082509839152648  1.0000
  H   H37       1.0  0.11530533443585265  0.2404000045057303  0.6537596018819443  1.0000
  H   H38       1.0  0.46210169917267063  0.3462916117087644  0.5868377702285983  1.0000
  H   H39       1.0  0.8749203298479032  0.4132809768722793  0.7595261093466232  1.0000
  H   H40       1.0  0.09547540520332387  0.3825265022723273  0.6574036322484815  1.0000
  H   H41       1.0  0.4384422102535269  0.34270154475378695  0.7253270160970331  1.0000
  H   H42       1.0  0.7128793490425523  0.2746991282536371  0.6174666339762566  1.0000
  H   H43       1.0  0.108557965647293  0.1167649013817567  0.5878551654654274  1.0000
  H   H44       1.0  0.5205402082771542  0.4118970070741668  0.5287279173754128  1.0000
  H   H45       1.0  0.9919862483783675  0.4713020017154506  0.8833547735023043  1.0000
  H   H46       1.0  0.6616523925368297  0.0850981998515863  0.46452652851085213  1.0000
  H   H47       1.0  0.19768166876200868  0.535535147077546  0.6207394400140415  1.0000
  H   H48       1.0  0.5767451228383392  0.3794186622617559  0.9148826260758864  1.0000
  H   H49       1.0  0.6034506840916479  0.9416646109486423  0.42322376350132623  1.0000
  H   H50       1.0  0.18097073367348315  0.5769550719202312  0.5187273911036314  1.0000
  H   H51       1.0  0.6620685161591382  0.4814042804698744  0.058344633037172904  1.0000
  H   H52       1.0  0.04863480619757603  0.9741422989409683  0.5484792458192372  1.0000
  H   H53       1.0  0.5000435501377822  0.4513434172733851  0.4255259051985475  1.0000
  H   H54       1.0  0.07463221499476455  0.574503242659219  0.02602736914990802  1.0000
  H   H55       1.0  0.9088584397685936  0.8797405399831462  0.6992370555604593  1.0000
  H   H56       1.0  0.20865256820012953  0.3009122496971984  0.18053532627840235  1.0000
  H   H57       1.0  0.028365270721792596  0.8193906853666634  0.12022329874937297  1.0000
  H   H58       1.0  0.7936514852622026  0.924076123834837  0.609614058077767  1.0000
  H   H59       1.0  0.18377209542691728  0.3905742977962419  0.3146146227707902  1.0000
  H   H60       1.0  0.8692434070070051  0.685333101729874  0.0759293000091218  1.0000
  H   H61       1.0  0.9292745804097323  0.7515245862391213  0.41708485447979626  1.0000
  H   H62       1.0  0.512339536601381  0.582900720997486  0.3343737837174458  1.0000
  H   H63       1.0  0.17811585651198675  0.6657587515590819  0.24859119770141555  1.0000
  H   H64       1.0  0.04440682082127282  0.7072220372994027  0.505892084864925  1.0000
  H   H65       1.0  0.5380064684191409  0.49402181520321153  0.2011346456064799  1.0000
  H   H66       1.0  0.3371347796113824  0.7989805298693042  0.2928749481794454  1.0000
  H   H67       1.0  0.580389453113753  0.7276002488330633  0.3930238189076504  1.0000
  H   H68       1.0  0.1877062416936894  0.6069599554857276  0.33470995096627837  1.0000
  H   H69       1.0  0.8529647887053713  0.665372155528246  0.2724712606023161  1.0000
  H   H70       1.0  0.8481364847603243  0.8817706891928621  0.3343124875289333  1.0000
  H   H71       1.0  0.5138249382947251  0.6658711954627564  0.5478250446829803  1.0000
  H   H72       1.0  0.9663175860029014  0.45252066648134803  0.11823182887572158  1.0000
  H   H73       1.0  0.7370082686637076  0.7870272238369438  0.19203013208388595  1.0000
  H   H74       1.0  0.5449625892481365  0.808117391305629  0.5952805395957697  1.0000
  H   H75       1.0  0.9499439741876542  0.4049120552897634  0.21291900916008188  1.0000
  H   H76       1.0  0.4606093566892753  0.6346229687837095  0.2503910130193887  1.0000
  H   H77       1.0  0.21047273184333898  0.7495437646935271  0.38430564771225306  1.0000
  H   H78       1.0  0.8261447322942104  0.6156603685477222  0.3654025808531998  1.0000
  H   H79       1.0  0.4273917595125099  0.8723162424756481  0.8583995008955653  1.0000
  H   H80       1.0  0.5684400917898103  0.1414916402479491  0.013941446711868375  1.0000
  H   H81       1.0  0.5546565036753535  0.986109690038468  0.12751122912423796  1.0000
  H   H82       1.0  0.5039076820264797  0.8784161305939621  0.9397263546459057  1.0000
  H   H83       1.0  0.5637700266925094  0.0601855156774604  0.9387382513691946  1.0000
  H   H84       1.0  0.6250326372287915  0.06140161310967329  0.12148258252894098  1.0000
  C   C1        1.0  0.5919787965603547  0.6819339956664905  0.8346529732178566  1.0000
  C   C2        1.0  0.7566992006146692  0.16531308386380772  0.8473600381325568  1.0000
  C   C3        1.0  0.9099914728537825  0.1526757167761801  0.3178501243543152  1.0000
  C   C4        1.0  0.1326415122476021  0.5797115319806636  0.8342988334936408  1.0000
  C   C5        1.0  0.2977750361473426  0.16574993690208828  0.7453942415099917  1.0000
  C   C6        1.0  0.5529999185768943  0.2546444045343037  0.4202915277633038  1.0000
  C   C7        1.0  0.9009612632362761  0.514414334571974  0.6829270436877194  1.0000
  C   C8        1.0  0.2171409012703336  0.31713419858989766  0.8313649737468579  1.0000
  C   C9        1.0  0.38637703700683085  0.1686093046070241  0.4856111335519984  1.0000
  C   C10       1.0  0.7348962181709453  0.6585677516015238  0.8340884141862188  1.0000
  C   C11       1.0  0.900138039817797  0.16585117682119235  0.8245147805139935  1.0000
  C   C12       1.0  0.0763302831198374  0.17555171912567152  0.34122219153068295  1.0000
  C   C13       1.0  0.8499577470739722  0.6926105469350147  0.9044195687677287  1.0000
  C   C14       1.0  0.9450072234860443  0.0955998149330881  0.7883366850511206  1.0000
  C   C15       1.0  0.1574248963823592  0.21181371844613744  0.3072071940538521  1.0000
  C   C16       1.0  0.7529458947112246  0.6008353387629342  0.7624810106297132  1.0000
  C   C17       1.0  0.9897175579536821  0.2374608936175306  0.8383112476756905  1.0000
  C   C18       1.0  0.152056179960617  0.16172162462798673  0.3990183691568632  1.0000
  C   C19       1.0  0.8827740107005868  0.5756509260169552  0.7604851948566987  1.0000
  C   C20       1.0  0.12149926428585187  0.23953355213178892  0.8150663008573814  1.0000
  C   C21       1.0  0.3070910590697266  0.18496030875552089  0.4243459428365952  1.0000
  C   C22       1.0  0.9974801584970833  0.6099091656951854  0.8314251371603375  1.0000
  C   C23       1.0  0.1653825158001609  0.16864108938248282  0.7784425334946617  1.0000
  C   C24       1.0  0.3876130126748407  0.221594040798621  0.3900813213955132  1.0000
  C   C25       1.0  0.9811904247692668  0.6690323198330291  0.902981160594365  1.0000
  C   C26       1.0  0.07767791414435271  0.09711999382751911  0.7661963497357646  1.0000
  C   C27       1.0  0.3122605529475564  0.23396132438581674  0.3308871066201746  1.0000
  C   C28       1.0  0.4744707127049708  0.6128136862921849  0.98424252247311  1.0000
  C   C29       1.0  0.48961066162624434  0.015743101568027395  0.6285385966356998  1.0000
  C   C30       1.0  0.8619165433313327  0.3714709850144544  0.38725840661629707  1.0000
  C   C31       1.0  0.37087945395159483  0.5170430124114629  0.013040836107187172  1.0000
  C   C32       1.0  0.3576417374190654  0.9867679056084381  0.5038132385335172  1.0000
  C   C33       1.0  0.8545474706520437  0.49613045860297694  0.48302892413425974  1.0000
  C   C34       1.0  0.003383476838536172  0.7688437420902404  0.7282152987042353  1.0000
  C   C35       1.0  0.27452826235477795  0.27159002041291563  0.040570765123483496  1.0000
  C   C36       1.0  0.2342931684831484  0.9594142939192025  0.23090100722399842  1.0000
  C   C37       1.0  0.053673705516857226  0.7635719074115102  0.6627874428506076  1.0000
  C   C38       1.0  0.39014443472385807  0.3371369873503197  0.10070418063687465  1.0000
  C   C39       1.0  0.28971022392858004  0.8992967017034984  0.23631706587453732  1.0000
  C   C40       1.0  0.18195401965430583  0.736944376649461  0.6528068127962853  1.0000
  C   C41       1.0  0.528423115634901  0.347133052172957  0.0840620784030648  1.0000
  C   C42       1.0  0.4446318053608991  0.9159198745303669  0.2629885390782221  1.0000
  C   C43       1.0  0.4325217291851615  0.568229877860233  0.0942453312134717  1.0000
  C   C44       1.0  0.3382620767353473  0.9056027908308621  0.4738783776691093  1.0000
  C   C45       1.0  0.8648912920137447  0.5260576813569314  0.43178090711873546  1.0000
  C   C46       1.0  0.5198346859956118  0.6463460063152268  0.12300068679521556  1.0000
  C   C47       1.0  0.39692067177475104  0.8769803511883011  0.5233528337163164  1.0000
  C   C48       1.0  0.8737932727222386  0.4766033653081365  0.35365000111077893  1.0000
  C   C49       1.0  0.5382951459176155  0.6672893844974082  0.0646386591284696  1.0000
  C   C50       1.0  0.4734319305672303  0.935401382331037  0.6026825240218371  1.0000
  C   C51       1.0  0.8711444479533769  0.3972924730018405  0.33271735659234736  1.0000
  C   C52       1.0  0.25659668615212183  0.7208091646543977  0.708223294550656  1.0000
  C   C53       1.0  0.547707161190317  0.2916507326288952  0.012571708397054229  1.0000
  C   C54       1.0  0.5355130707155169  0.987436768210692  0.2791093611163971  1.0000
  C   C55       1.0  0.0848265798080803  0.7524190986802283  0.7816603564907111  1.0000
  C   C56       1.0  0.3025191697438814  0.21814179717679144  0.9707155111364683  1.0000
  C   C57       1.0  0.33224515866944426  0.029270650748614502  0.24735731518521928  1.0000
  C   C58       1.0  0.8564744257785363  0.2249843890921426  0.5124059432053585  1.0000
  C   C59       1.0  0.34405225611317297  0.4874216957232207  0.712523099085587  1.0000
  C   C60       1.0  0.631376082505902  0.2875399622729162  0.7750595736458264  1.0000
  C   C61       1.0  0.04104325665142741  0.2522774430495147  0.6148865111113366  1.0000
  C   C62       1.0  0.4266217905366929  0.3851278606797379  0.6375366354499548  1.0000
  C   C63       1.0  0.7887595452604684  0.36255990511873654  0.7476776080509919  1.0000
  C   C64       1.0  0.032005244144080826  0.3214574981626726  0.6155077518483195  1.0000
  C   C65       1.0  0.4168732719143192  0.3845466137560577  0.7061106074280656  1.0000
  C   C66       1.0  0.7104863769746856  0.29393035005539764  0.6785344959747093  1.0000
  C   C67       1.0  0.9981586641346993  0.078445274898165  0.5515588036122381  1.0000
  C   C68       1.0  0.4466121268993106  0.4482683428425319  0.5267764520209112  1.0000
  C   C69       1.0  0.9199370599962577  0.47326358181960865  0.9216493074480778  1.0000
  C   C70       1.0  0.8910020267498879  0.1093729852517953  0.5266451871683984  1.0000
  C   C71       1.0  0.3645210957002051  0.4731961221913465  0.582685471892347  1.0000
  C   C72       1.0  0.7818307384433042  0.4173996749777161  0.890662325095775  1.0000
  C   C73       1.0  0.7478875144236952  0.060398947484969795  0.48061563637631366  1.0000
  C   C74       1.0  0.2677431426162046  0.5193853662254001  0.5799060685287358  1.0000
  C   C75       1.0  0.687712541786702  0.42022607008997426  0.9396044586663235  1.0000
  C   C76       1.0  0.7147521686777412  0.9801481323955987  0.45857233136343467  1.0000
  C   C77       1.0  0.25677186936368207  0.5415293414965845  0.521773172361577  1.0000
  C   C78       1.0  0.7348768789257533  0.4783392811573179  0.019893389571926396  1.0000
  C   C79       1.0  0.8225819492559054  0.9481962863292707  0.4819452899962327  1.0000
  C   C80       1.0  0.34097178936304573  0.5180639881543103  0.46632692567133205  1.0000
  C   C81       1.0  0.8746046336632322  0.5337456729996006  0.05188006127232112  1.0000
  C   C82       1.0  0.964194641952929  0.9982176457241678  0.5295126322123876  1.0000
  C   C83       1.0  0.4346705535259544  0.47034298185856466  0.46860371360041597  1.0000
  C   C84       1.0  0.9661236304485925  0.5314351721055104  0.0018999864799127053  1.0000
  C   C85       1.0  0.9804864028203966  0.7878874925879487  0.6087665585813014  1.0000
  C   C86       1.0  0.37095450745857766  0.39123274853388074  0.1790159206351163  1.0000
  C   C87       1.0  0.1921779631763911  0.8209893616337707  0.2121088348743  1.0000
  C   C88       1.0  0.9095174943092558  0.8496024360019023  0.6366323465348244  1.0000
  C   C89       1.0  0.27209485905905956  0.3634864257180653  0.21295616720382776  1.0000
  C   C90       1.0  0.059375081351014165  0.7870024600006361  0.1503959664616161  1.0000
  C   C91       1.0  0.8450928716844004  0.874959703697499  0.5866617236347123  1.0000
  C   C92       1.0  0.2580724921390853  0.4134843148988169  0.2883793294956831  1.0000
  C   C93       1.0  0.9698337758634566  0.7116265550176379  0.12507444678550436  1.0000
  C   C94       1.0  0.8487983325796692  0.8386111268519018  0.5064004546135621  1.0000
  C   C95       1.0  0.34239383447972216  0.4936898375751966  0.33228730063327555  1.0000
  C   C96       1.0  0.010225154913051466  0.667827880967195  0.16148531136239086  1.0000
  C   C97       1.0  0.9209374756154671  0.7777706158945178  0.47832641506888496  1.0000
  C   C98       1.0  0.4425028666258299  0.5216971612140355  0.2994002168212333  1.0000
  C   C99       1.0  0.1432758577078276  0.700742899768784  0.22238241888612012  1.0000
  C   C100      1.0  0.9859089062000805  0.7532077835642711  0.5287938692073766  1.0000
  C   C101      1.0  0.4566058646032404  0.47118007890941277  0.2242830907458  1.0000
  C   C102      1.0  0.23256699827388172  0.7758087198019582  0.24687574196105547  1.0000
  C   C103      1.0  0.6147037508450879  0.7397707329632937  0.34833243695415916  1.0000
  C   C104      1.0  0.2667113792964884  0.6516826579709586  0.3915742163988155  1.0000
  C   C105      1.0  0.8751818151036231  0.6085383354083689  0.26032353220765  1.0000
  C   C106      1.0  0.7231245052546454  0.8109415326617082  0.37370720772948823  1.0000
  C   C107      1.0  0.3497637716485542  0.6263737035399045  0.4374269414961418  1.0000
  C   C108      1.0  0.912453977224743  0.5627757426490732  0.18915678487859808  1.0000
  C   C109      1.0  0.7636993829498309  0.8271212255911707  0.3155695213800414  1.0000
  C   C110      1.0  0.4483034325414508  0.6845670453252949  0.5118221725205101  1.0000
  C   C111      1.0  0.9366594462173198  0.48841553192794857  0.17289880460378274  1.0000
  C   C112      1.0  0.6984190297229204  0.7736219857547937  0.23501522755487497  1.0000
  C   C113      1.0  0.46356277009928704  0.7651013158487745  0.5388187523608821  1.0000
  C   C114      1.0  0.9248821613977825  0.46132788267347274  0.22636275851272095  1.0000
  C   C115      1.0  0.5883361770162452  0.702499283540888  0.2085536083559204  1.0000
  C   C116      1.0  0.3800800100257363  0.7914731960034873  0.49402798946574916  1.0000
  C   C117      1.0  0.8860809593217667  0.505993979448391  0.2975096695754472  1.0000
  C   C118      1.0  0.5482538027873788  0.6874679485966838  0.2675809606814782  1.0000
  C   C119      1.0  0.28098216517022206  0.7323935593589112  0.41997122053876257  1.0000
  C   C120      1.0  0.8610262295996308  0.5800550291339519  0.31258267488836816  1.0000
  N   N1        1.0  0.2106319453756954  0.7296867101655382  0.7727790277521007  1.0000
  N   N2        1.0  0.437226937720169  0.22705563751154756  0.956884000741546  1.0000
  N   N3        1.0  0.48079478123257513  0.043107621280761114  0.2701815593324071  1.0000
  N   N4        1.0  0.3910657987674925  0.5384037006577742  0.9582126238970686  1.0000
  N   N5        1.0  0.432343303940435  0.04167416161821081  0.5800607746436979  1.0000
  N   N6        1.0  0.8531452256799668  0.4199218664045432  0.4616838171507354  1.0000
  N   N7        1.0  0.9169532513087403  0.30372308355438093  0.5513095405439472  1.0000
  N   N8        1.0  0.3657082774441065  0.4486221668111768  0.7524444722465232  1.0000
  N   N9        1.0  0.6130504908787698  0.24758201495778545  0.6963204548162308  1.0000
  N   N10       1.0  0.7878816434672231  0.8652148454299534  0.4555024677173804  1.0000
  N   N11       1.0  0.33280053945623667  0.5445978627773156  0.40987380485570646  1.0000
  N   N12       1.0  0.9228856637469394  0.5902797682549095  0.13488070448326545  1.0000
  N   N13       1.0  0.9283354134208536  0.1916055118701436  0.5495839805182924  1.0000
  N   N14       1.0  0.37892876106500495  0.4502785324301541  0.6420094839384944  1.0000
  N   N15       1.0  0.7367629815768951  0.3580776988539114  0.8084014700890306  1.0000
  N   N16       1.0  0.40994950148252934  0.8655837327478934  0.017054038610353886  1.0000
  N   N17       1.0  0.3923217310192229  0.9827583210268998  0.8484440719588163  1.0000
  N   N18       1.0  0.5439069782647649  0.15155529818928673  0.1344232916497958  1.0000
  O   O1        1.0  0.2616282642849583  0.6239414585265308  0.8538565196818694  1.0000
  O   O2        1.0  0.40705085047153483  0.14612830946921918  0.7701107190750917  1.0000
  O   O3        1.0  0.6377465037737906  0.22995036000550328  0.3760752776794262  1.0000
  O   O4        1.0  0.10791241828882649  0.5079339931505373  0.8214075239829411  1.0000
  O   O5        1.0  0.2861369637347906  0.1785949813400975  0.6864779334401092  1.0000
  O   O6        1.0  0.6001689290916801  0.3135768662496474  0.4920484239935589  1.0000
  O   O7        1.0  0.5641999016400804  0.7188766634528961  0.902858649746541  1.0000
  O   O8        1.0  0.6605253408703929  0.09712548108201702  0.8160064169172825  1.0000
  O   O9        1.0  0.8450840296754406  0.18398087013751757  0.2810026243748993  1.0000
  O   O10       1.0  0.5029853211466176  0.6637884313904295  0.7697414990488837  1.0000
  O   O11       1.0  0.7328164845409618  0.2302199723330531  0.8942129632504104  1.0000
  O   O12       1.0  0.8393434459963559  0.10583792406128369  0.3359669769596252  1.0000
  O   O13       1.0  0.7788228217483706  0.46491216496030313  0.6296681298732877  1.0000
  O   O14       1.0  0.14819048084238065  0.37033092590804984  0.835080699850799  1.0000
  O   O15       1.0  0.31374222467873375  0.16493049124820658  0.5351241170091967  1.0000
  O   O16       1.0  0.02788677484137045  0.513208386008401  0.6724816693491249  1.0000
  O   O17       1.0  0.35458372131897414  0.3276819690007002  0.8406671076352125  1.0000
  O   O18       1.0  0.5144378773493017  0.15926348753073677  0.4867939747161785  1.0000
  O   O19       1.0  0.31308367823892536  0.7969140599809494  0.9736086884520104  1.0000
  O   O20       1.0  0.33864039436994625  0.0262147181110919  0.8233346324034372  1.0000
  O   O21       1.0  0.5156680372364733  0.1767731197832205  0.20307475469599007  1.0000
  O   O22       1.0  0.4040350293420545  0.9036061279855758  0.08760145116758623  1.0000
  O   O23       1.0  0.3160352015968471  0.912165874168032  0.815843809486175  1.0000
  O   O24       1.0  0.5000587410560229  0.1840699856655306  0.09638430482869612  1.0000
  O   O25       1.0  0.4920028605389958  0.8484715007041144  0.8816583226619908  1.0000
  O   O26       1.0  0.6097521391185126  0.1182600325108965  0.966812116847677  1.0000
  O   O27       1.0  0.6430654774854858  0.0332844997351671  0.15142316793137667  1.0000
