data_image0
_chemical_formula_structural       Cu4H52C72N12O16
_chemical_formula_sum              "Cu4 H52 C72 N12 O16"
_cell_length_a       11.076828438001494
_cell_length_b       14.299524880007757
_cell_length_c       17.193379012008485
_cell_angle_alpha    89.99989119828862
_cell_angle_beta     90.00003232773155
_cell_angle_gamma    89.99995011800682

_space_group_name_H-M_alt    "P 1"
_space_group_IT_number       1

loop_
  _space_group_symop_operation_xyz
  'x, y, z'

loop_
  _atom_site_type_symbol
  _atom_site_label
  _atom_site_symmetry_multiplicity
  _atom_site_fract_x
  _atom_site_fract_y
  _atom_site_fract_z
  _atom_site_occupancy
  Cu  Cu1       1.0  6.15513471e-08  0.15260681446855523  0.0140252277429624  1.0000
  Cu  Cu2       1.0  0.9999999567750563  0.8473934593866514  0.9859748056417673  1.0000
  Cu  Cu3       1.0  0.9999999879136893  0.6526054040918652  0.4859756934632529  1.0000
  Cu  Cu4       1.0  3.0412465399999994e-08  0.34739486976400963  0.514023758302244  1.0000
  H   H1        1.0  3.425427760000002e-08  0.10082059505474918  0.2071942131215891  1.0000
  H   H2        1.0  0.9999999840706976  0.8991817767729273  0.7928052386422593  1.0000
  H   H3        1.0  0.9999999322985071  0.6008192892905697  0.2928060264242518  1.0000
  H   H4        1.0  9.888133902999998e-07  0.39918098456433165  0.7071940069606413  1.0000
  H   H5        1.0  5.407353356e-07  0.9899862335759194  0.4410724962356269  1.0000
  H   H6        1.0  2.3936183170000006e-07  0.010015077373971299  0.5589296820438533  1.0000
  H   H7        1.0  0.9999998919661975  0.48998440605025445  0.0589271305462162  1.0000
  H   H8        1.0  0.9999993645904723  0.5100148307076039  0.9410730844207152  1.0000
  H   H9        1.0  5.605166961999999e-07  0.8026012096414517  0.2463668795433023  1.0000
  H   H10       1.0  0.9999994578075118  0.19740116218822826  0.7536308273628265  1.0000
  H   H11       1.0  8.242676589999999e-08  0.3026003348596331  0.2536324606674754  1.0000
  H   H12       1.0  0.9999991741293781  0.6974003005454318  0.7463683359175945  1.0000
  H   H13       1.0  0.8116522807844787  0.21689959779599371  0.9090371117345271  1.0000
  H   H14       1.0  0.8116534101583851  0.7831004655223026  0.09096361645040929  1.0000
  H   H15       1.0  0.18834618826064534  0.7169000019139558  0.5909641657388462  1.0000
  H   H16       1.0  0.18834544909387327  0.2830990838305424  0.4090357544655348  1.0000
  H   H17       1.0  0.18834683475747474  0.7830992774109828  0.09096350327038041  1.0000
  H   H18       1.0  0.18834660816802545  0.2168998083329042  0.9090364169343275  1.0000
  H   H19       1.0  0.8116547328516431  0.2830995726170115  0.40903586764660094  1.0000
  H   H20       1.0  0.8116536664475761  0.71689979137777  0.5909636973009  1.0000
  H   H21       1.0  0.8149625270323143  0.07845464149419  0.12005211313670829  1.0000
  H   H22       1.0  0.8149632899157169  0.9215454195886675  0.8799480346310773  1.0000
  H   H23       1.0  0.18503746461409074  0.5784543860311683  0.3799481616248315  1.0000
  H   H24       1.0  0.18503765787657758  0.42154540127214785  0.6200517573775599  1.0000
  H   H25       1.0  0.18503749129409636  0.9215456323610168  0.8799479202480214  1.0000
  H   H26       1.0  0.18503672841133317  0.0784541549419373  0.12005258037344652  1.0000
  H   H27       1.0  0.8149616509268254  0.42154588782434377  0.6200518717597348  1.0000
  H   H28       1.0  0.8149632632354624  0.5784541732594874  0.3799476943886475  1.0000
  H   H29       1.0  0.5887437068627648  0.217954958597346  0.9040665524194365  1.0000
  H   H30       1.0  0.5887448417777463  0.7820445559836384  0.095932931575291  1.0000
  H   H31       1.0  0.4112556637833363  0.7179552007478305  0.5959335601540232  1.0000
  H   H32       1.0  0.41125492144336556  0.2820451330592987  0.4040658593826265  1.0000
  H   H33       1.0  0.4112563114637807  0.7820446159345874  0.0959328993466073  1.0000
  H   H34       1.0  0.41125517654918997  0.21795431922436845  0.9040665201913  1.0000
  H   H35       1.0  0.5887443545428183  0.2820450731080441  0.40406589161147366  1.0000
  H   H36       1.0  0.5887441940969041  0.7179558401208154  0.5959335923821527  1.0000
  H   H37       1.0  0.591180968376733  0.07134188792308997  0.1247864586993472  1.0000
  H   H38       1.0  0.591181719130276  0.928656925686937  0.8752136078002266  1.0000
  H   H39       1.0  0.40881812846385657  0.5713428907756322  0.3752138272604952  1.0000
  H   H40       1.0  0.40881831789673123  0.42865744467852085  0.6247850097718554  1.0000
  H   H41       1.0  0.4088181471652205  0.9286569872838866  0.8752141563055602  1.0000
  H   H42       1.0  0.4088182991969163  0.0713419495204022  0.12478642558561148  1.0000
  H   H43       1.0  0.591181889862291  0.42865738308024237  0.6247856245049945  1.0000
  H   H44       1.0  0.5911817004287697  0.5713435285019484  0.3752138603738544  1.0000
  H   H45       1.0  2.803632530000002e-08  0.20348261306460094  0.3244066940981511  1.0000
  H   H46       1.0  7.520590372999995e-07  0.796520096535822  0.6755931577032753  1.0000
  H   H47       1.0  0.9999998233315778  0.7034815757336756  0.17559396541923178  1.0000
  H   H48       1.0  0.9999994332247012  0.2965183603481235  0.8244062495471526  1.0000
  H   H49       1.0  9.510918629999994e-08  0.15672011352104678  0.41758329608309447  1.0000
  H   H50       1.0  6.849870927999999e-07  0.8432804981082355  0.5824159741007476  1.0000
  H   H51       1.0  0.9999998087247944  0.6567192895794206  0.08241627382599151  1.0000
  H   H52       1.0  0.9999994478312286  0.34328064650303947  0.9175833595211529  1.0000
  C   C1        1.0  4.3317605499999984e-07  0.9396261738918879  0.1312160500647863  1.0000
  C   C2        1.0  0.9999995851512508  0.060373400638049184  0.8687851465589702  1.0000
  C   C3        1.0  5.602803549999994e-08  0.43962713336654957  0.3687859824867417  1.0000
  C   C4        1.0  1.0331320509999982e-07  0.5603742013621443  0.6312148140979444  1.0000
  C   C5        1.0  4.650785285999998e-07  0.9506656019960998  0.218132057065354  1.0000
  C   C6        1.0  0.9999995532469723  0.049335371184369585  0.7818668130803488  1.0000
  C   C7        1.0  1.1739935199999946e-08  0.4506653618739519  0.2818693764856377  1.0000
  C   C8        1.0  9.093728649999997e-07  0.5493342126556868  0.7181318201382823  1.0000
  C   C9        1.0  8.500300910000004e-08  0.04196964234402858  0.24765460174683082  1.0000
  C   C10       1.0  0.9999990305371254  0.9580320301593515  0.752345431636634  1.0000
  C   C11       1.0  0.9999999475792051  0.5419684292406186  0.2523451488440429  1.0000
  C   C12       1.0  9.735326926999998e-07  0.45803184461428254  0.7476548845408502  1.0000
  C   C13       1.0  1.113470276e-07  0.05820365554180278  0.3285374683017963  1.0000
  C   C14       1.0  0.9999990041967378  0.9417938210146413  0.6714654731811649  1.0000
  C   C15       1.0  0.9999999030204164  0.5582033269959581  0.1714622567269615  1.0000
  C   C16       1.0  1.0180918721e-06  0.4417962475350094  0.8285377766584858  1.0000
  C   C17       1.0  5.189152930000002e-07  0.9798894664132544  0.3783663892756266  1.0000
  C   C18       1.0  2.611840841e-07  0.0201083479162989  0.6216363706258434  1.0000
  C   C19       1.0  0.999999925113677  0.47988889392995293  0.1216326717839493  1.0000
  C   C20       1.0  0.9999993314426021  0.5201110421518463  0.8783675431824349  1.0000
  C   C21       1.0  5.570808169999997e-07  0.8889417229974865  0.3490365659419297  1.0000
  C   C22       1.0  0.9999994612459772  0.11105785153379338  0.6509634674433471  1.0000
  C   C23       1.0  0.9999999889897069  0.38894108334509525  0.1509620567011254  1.0000
  C   C24       1.0  0.9999992675665722  0.6110588527367041  0.8490381582652589  1.0000
  C   C25       1.0  5.304104177999998e-07  0.8736112358515056  0.2685654850961611  1.0000
  C   C26       1.0  0.999999487915204  0.12639043665156888  0.7314345482874671  1.0000
  C   C27       1.0  3.2862047299999944e-08  0.3736090132593403  0.2314343249253881  1.0000
  C   C28       1.0  0.9999992236942316  0.6263909228224589  0.7685658900410031  1.0000
  C   C29       1.0  6.266518469000003e-07  0.8099488226728437  0.4066605541385897  1.0000
  C   C30       1.0  1.5344313910000006e-07  0.19005318760564185  0.5933375528056715  1.0000
  C   C31       1.0  8.04868709999995e-09  0.3099462170152093  0.0933387745043035  1.0000
  C   C32       1.0  1.0278753799999959e-08  0.6900526581914617  0.9066618405007743  1.0000
  C   C33       1.0  0.7582083203479967  0.18578384344163365  0.9555550331839697  1.0000
  C   C34       1.0  0.7582093740327306  0.814216255980611  0.0444456755920442  1.0000
  C   C35       1.0  0.2417919891795179  0.6857850173104507  0.5444474565212117  1.0000
  C   C36       1.0  0.24179125587856726  0.31421543097607696  0.4555530647108768  1.0000
  C   C37       1.0  0.24179169797866956  0.8142164304129051  0.0444455818199998  1.0000
  C   C38       1.0  0.24178974150883184  0.18578331855029961  0.9555549394123091  1.0000
  C   C39       1.0  0.7582089319322378  0.31421595586771633  0.4555531584823739  1.0000
  C   C40       1.0  0.7582087624474453  0.6857855422030636  0.5444469686733057  1.0000
  C   C41       1.0  0.7598366024397617  0.10808926423960226  0.0736981897641655  1.0000
  C   C42       1.0  0.7598374392068478  0.8919101347601381  0.9263013563652223  1.0000
  C   C43       1.0  0.24016335595719335  0.608088865379237  0.4263020383360043  1.0000
  C   C44       1.0  0.24016263904916707  0.3919101853622988  0.5736961558287703  1.0000
  C   C45       1.0  0.24016251310155207  0.891910310291976  0.9263018436209548  1.0000
  C   C46       1.0  0.24016257911995348  0.10808943977113467  0.0736986770200616  1.0000
  C   C47       1.0  0.7598375651547188  0.39191000982979307  0.5736962501922777  1.0000
  C   C48       1.0  0.7598373792768668  0.6080893891709703  0.4263021326987939  1.0000
  C   C49       1.0  0.6329955833278119  0.1851887634072895  0.9535112009137308  1.0000
  C   C50       1.0  0.6329966381360562  0.8148121199260316  0.046489462389026  1.0000
  C   C51       1.0  0.3670038240828575  0.6851877500375136  0.5464907081107597  1.0000
  C   C52       1.0  0.3670039911069976  0.3148112150143233  0.45350985859496956  1.0000
  C   C53       1.0  0.367004434999103  0.8148115104465886  0.0464899957094715  1.0000
  C   C54       1.0  0.3670033801902193  0.18518885325244835  0.9535111526143965  1.0000
  C   C55       1.0  0.6329961942445906  0.3148111251691573  0.4535099068943111  1.0000
  C   C56       1.0  0.6329969300056887  0.6851876601927173  0.5464901747910247  1.0000
  C   C57       1.0  0.5668742825811179  0.14406611727240903  0.0142723439954011  1.0000
  C   C58       1.0  0.5668752118064545  0.8559334120824784  0.9857271320571143  1.0000
  C   C59       1.0  0.43312563545045174  0.644066151286431  0.48572840907596065  1.0000
  C   C60       1.0  0.4331240040290679  0.35593346842419027  0.5142698551649687  1.0000
  C   C61       1.0  0.4331266385311706  0.8559334572585583  0.9857276893900462  1.0000
  C   C62       1.0  0.4331257093055782  0.14406616244915676  0.014272319709093  1.0000
  C   C63       1.0  0.5668752856610765  0.3559334232465331  0.514269879451767  1.0000
  C   C64       1.0  0.5668742087257357  0.6440661061103513  0.48572785174302874  1.0000
  C   C65       1.0  0.6345110203727273  0.10466611419515456  0.0751975840979568  1.0000
  C   C66       1.0  0.6345118519854437  0.8953319708200806  0.9248019165188452  1.0000
  C   C67       1.0  0.3654889418632975  0.6046677320784468  0.4248014861521057  1.0000
  C   C68       1.0  0.3654891252172447  0.39533263264662816  0.575197335144658  1.0000
  C   C69       1.0  0.365488997954344  0.8953320616895792  0.9248012860499557  1.0000
  C   C70       1.0  0.36548816634149256  0.10466690438792627  0.07519753524775298  1.0000
  C   C71       1.0  0.6345110764625941  0.39533254177809596  0.5751973839941513  1.0000
  C   C72       1.0  0.6345108931090452  0.6046669418859806  0.42480153500214607  1.0000
  N   N1        1.0  0.82090638171794  0.14746474555211364  0.0144788622767607  1.0000
  N   N2        1.0  0.820907314575578  0.8525346121920659  0.9855207060309609  1.0000
  N   N3        1.0  0.17909262971458867  0.6474649516506685  0.48552130382371667  1.0000
  N   N4        1.0  0.17909371064484958  0.3525355389922993  0.5144786130193353  1.0000
  N   N5        1.0  0.17909363660925237  0.8525341296552252  0.9855211711090703  1.0000
  N   N6        1.0  0.1790927037512233  0.14746496233920678  0.0144793273543229  1.0000
  N   N7        1.0  0.8209064858260787  0.3525353222055114  0.5144781479416096  1.0000
  N   N8        1.0  0.8209072104670481  0.6474647348626091  0.48552142036555773  1.0000
  N   N9        1.0  7.517863309999999e-08  0.14638207501827338  0.3588793112898827  1.0000
  N   N10       1.0  7.049171130999997e-07  0.8536199352582158  0.641120540512098  1.0000
  N   N11       1.0  0.9999998402549082  0.646380417311974  0.1411202748977232  1.0000
  N   N12       1.0  0.9999994163011151  0.3536195187704863  0.8588793584494283  1.0000
  O   O1        1.0  4.687339156999999e-07  0.8549667488912147  0.10398528561044879  1.0000
  O   O2        1.0  0.99999954959339  0.14503282563872225  0.8960159110133077  1.0000
  O   O3        1.0  1.1545505170000003e-07  0.35496904465315277  0.39601513538363525  1.0000
  O   O4        1.0  4.3886970500000007e-08  0.6450308914276731  0.6039856612021524  1.0000
  O   O5        1.0  3.27716592e-08  0.010759696669630597  0.0885410513718341  1.0000
  O   O6        1.0  0.9999999855546307  0.989239877862971  0.9114578187749771  1.0000
  O   O7        1.0  3.4825376399999944e-08  0.5107651124082082  0.4114622380711808  1.0000
  O   O8        1.0  1.2451690169999993e-07  0.4892348236719568  0.5885391401338467  1.0000
  O   O9        1.0  0.9999999013354282  0.7248282037609569  0.380884019723787  1.0000
  O   O10       1.0  1.1698968190000001e-07  0.27517346874345344  0.6191148504213686  1.0000
  O   O11       1.0  6.709743869999997e-08  0.22482727549266457  0.11911504290743838  1.0000
  O   O12       1.0  0.9999999512293555  0.7751722990386082  0.8808849904778454  1.0000
  O   O13       1.0  0.9999998860425378  0.8283056559917409  0.4784354433362452  1.0000
  O   O14       1.0  1.322823238e-07  0.1716960165133372  0.5215628451896706  1.0000
  O   O15       1.0  0.9999999662903177  0.3283049511306615  0.0215634563633671  1.0000
  O   O16       1.0  5.20364836e-08  0.6716946234006114  0.9784365770219167  1.0000
