data_image0
_chemical_formula_structural       Zn3H16C28N2O14
_chemical_formula_sum              "Zn3 H16 C28 N2 O14"
_cell_length_a       8.92816184775949
_cell_length_b       9.846933748257804
_cell_length_c       9.96840452256269
_cell_angle_alpha    101.00522978043693
_cell_angle_beta     105.98631466497233
_cell_angle_gamma    118.76233269534427

_space_group_name_H-M_alt    "P 1"
_space_group_IT_number       1

loop_
  _space_group_symop_operation_xyz
  'x, y, z'

loop_
  _atom_site_type_symbol
  _atom_site_label
  _atom_site_symmetry_multiplicity
  _atom_site_fract_x
  _atom_site_fract_y
  _atom_site_fract_z
  _atom_site_occupancy
  Zn  Zn1       1.0  0.9999948132742843  0.5000003532156186  0.499994047695168  1.0000
  Zn  Zn2       1.0  0.20073290804516822  0.6003599470534269  0.16282265593441989  1.0000
  Zn  Zn3       1.0  0.7992648484045047  0.39963982912990303  0.8371784945855438  1.0000
  H   H1        1.0  0.5348477273251362  0.6846539374432866  0.8179258461896595  1.0000
  H   H2        1.0  0.46514142599797026  0.3153432394144602  0.1820716155659241  1.0000
  H   H3        1.0  0.909124268584783  0.8320157716060808  0.2779834223328734  1.0000
  H   H4        1.0  0.09087319441184857  0.16797411772541437  0.7220107422558187  1.0000
  H   H5        1.0  0.8582354511260205  0.7888191403463051  0.00845640217728053  1.0000
  H   H6        1.0  0.14175650715970525  0.21116941349983154  0.9915371101571608  1.0000
  H   H7        1.0  0.6134959052877987  0.9708217892506  0.4342431632351945  1.0000
  H   H8        1.0  0.38650903370745476  0.029178177002052108  0.5657528270270901  1.0000
  H   H9        1.0  0.8131206509163746  0.8669537309224963  0.8188545334110486  1.0000
  H   H10       1.0  0.1868763196897517  0.1330485196353237  0.1811468915821095  1.0000
  H   H11       1.0  0.7065490966378007  0.5781013293783063  0.3800604012068192  1.0000
  H   H12       1.0  0.29345647996770197  0.42189979177034326  0.6199439985863863  1.0000
  H   H13       1.0  0.18391069629976178  0.7715550070785397  0.4583028383448351  1.0000
  H   H14       1.0  0.8160953975451476  0.22844869264883977  0.5416951643912782  1.0000
  H   H15       1.0  0.25261686481355367  0.8027155793284068  0.6333096921522812  1.0000
  H   H16       1.0  0.7473860483837953  0.19727560818934356  0.366688113455588  1.0000
  C   C1        1.0  0.42287840817990474  0.6706143854208262  0.9830156262614835  1.0000
  C   C2        1.0  0.5771212860901755  0.32939037859749476  0.01698797622343308  1.0000
  C   C3        1.0  0.6226112220388486  0.7501267391344372  0.23080582309260925  1.0000
  C   C4        1.0  0.377392057291793  0.2498743849672778  0.7691949834266297  1.0000
  C   C5        1.0  0.5658856923348095  0.7058870675439195  0.9362130949837137  1.0000
  C   C6        1.0  0.434103469606711  0.29409892310957986  0.06378222487887791  1.0000
  C   C7        1.0  0.7724456044371592  0.7861756446961223  0.19077669163260672  1.0000
  C   C8        1.0  0.22755461281793998  0.2138242404314354  0.8092190858665519  1.0000
  C   C9        1.0  0.7445121423935389  0.7646525039662252  0.04225359460492227  1.0000
  C   C10       1.0  0.25548141530099844  0.2353423122012472  0.9577395181661573  1.0000
  C   C11       1.0  0.22295198637310407  0.591080099010199  0.8699495534977686  1.0000
  C   C12       1.0  0.7770460845724897  0.40892584772325336  0.13005687273415129  1.0000
  C   C13       1.0  0.6567022680969146  0.773215727990774  0.38985870801302275  1.0000
  C   C14       1.0  0.3433041641595835  0.22678669725026876  0.6101421462514125  1.0000
  C   C15       1.0  0.7189712151663623  0.9365979736233426  0.6381702061364436  1.0000
  C   C16       1.0  0.2810347878282329  0.0634056639388803  0.36183277787454676  1.0000
  C   C17       1.0  0.6571066275286626  0.8990624888480954  0.4826755631337747  1.0000
  C   C18       1.0  0.34290103513054493  0.1009399908650579  0.5173226046202615  1.0000
  C   C19       1.0  0.7648791262304755  0.8369970635337438  0.6979454517572705  1.0000
  C   C20       1.0  0.23511788358857896  0.16300148315539081  0.3020532667616109  1.0000
  C   C21       1.0  0.7538368234263259  0.704179046359684  0.603932009102941  1.0000
  C   C22       1.0  0.246167238875067  0.2958233321022945  0.39606923690742246  1.0000
  C   C23       1.0  0.7065985674425902  0.6770216369548904  0.4510852671498213  1.0000
  C   C24       1.0  0.2934043400091467  0.32297700803235335  0.5489139663867136  1.0000
  C   C25       1.0  0.7850755314676192  0.5849683653207906  0.6588576264644105  1.0000
  C   C26       1.0  0.2149265538004385  0.4150327291748823  0.34114387405526964  1.0000
  C   C27       1.0  0.7453830335433196  0.0867980129843033  0.7422863890829703  1.0000
  C   C28       1.0  0.2546229847485364  0.9132093657457007  0.2577163126373776  1.0000
  N   N1        1.0  0.4509226245017501  0.6938048285562745  0.12805593700987566  1.0000
  N   N2        1.0  0.5490782332364005  0.30619248273252714  0.8719475360558775  1.0000
  O   O1        1.0  0.0978737449880497  0.5325743236206435  0.9211542408034035  1.0000
  O   O2        1.0  0.9021227600160557  0.46742911439228857  0.07885130644626061  1.0000
  O   O3        1.0  0.19601886196362261  0.5838542566676423  0.7374173798298288  1.0000
  O   O4        1.0  0.8039788342302571  0.4161529396860928  0.26258818738372003  1.0000
  O   O5        1.0  0.7586152515921256  0.20158680597861428  0.6870767760689561  1.0000
  O   O6        1.0  0.2413853738820035  0.7984155831294756  0.3129185819029559  1.0000
  O   O7        1.0  0.7563227299435978  0.09959818934258638  0.8715368617731374  1.0000
  O   O8        1.0  0.24367818230474086  0.9003991592453175  0.12846362252768967  1.0000
  O   O9        1.0  0.7839131297511057  0.5836837582226195  0.7866114563604826  1.0000
  O   O10       1.0  0.21607914015773128  0.41631469490839385  0.2133880456502482  1.0000
  O   O11       1.0  0.7999506323220087  0.48267234814208143  0.5741013981506597  1.0000
  O   O12       1.0  0.20004628664673146  0.5173261363818894  0.4259023016430988  1.0000
  O   O13       1.0  0.13997884154249352  0.754483139239845  0.5406083971805273  1.0000
  O   O14       1.0  0.8600268259133229  0.24551804407396824  0.4593910213378082  1.0000
