data_image0
_chemical_formula_structural       Zn2H40C28N8O8
_chemical_formula_sum              "Zn2 H40 C28 N8 O8"
_cell_length_a       7.8968654063619255
_cell_length_b       8.35223235538896
_cell_length_c       13.68825685092662
_cell_angle_alpha    76.45606954412645
_cell_angle_beta     85.88800598102436
_cell_angle_gamma    71.69784440751243

_space_group_name_H-M_alt    "P 1"
_space_group_IT_number       1

loop_
  _space_group_symop_operation_xyz
  'x, y, z'

loop_
  _atom_site_type_symbol
  _atom_site_label
  _atom_site_symmetry_multiplicity
  _atom_site_fract_x
  _atom_site_fract_y
  _atom_site_fract_z
  _atom_site_occupancy
  Zn  Zn1       1.0  0.6175373712705082  0.5838237700203662  0.2467199954017332  1.0000
  Zn  Zn2       1.0  0.3824603761739381  0.41618863873024026  0.753281463370385  1.0000
  H   H1        1.0  0.9328660164012138  0.7300714368970131  0.2901454326967682  1.0000
  H   H2        1.0  0.06712496113565442  0.26993833690417546  0.7098574110510044  1.0000
  H   H3        1.0  0.8834442980872553  0.15415565525974978  0.3382020527530686  1.0000
  H   H4        1.0  0.11655386880742925  0.8458554524414267  0.661801033632635  1.0000
  H   H5        1.0  0.037329683539539436  0.9437903596545849  0.33778169581093215  1.0000
  H   H6        1.0  0.9626688978802137  0.056223386478436096  0.6622122335779681  1.0000
  H   H7        1.0  0.06563812868546397  0.7077817379253943  0.9842635723189872  1.0000
  H   H8        1.0  0.9343641298141634  0.2922047877009675  0.01573843620796823  1.0000
  H   H9        1.0  0.1542703610338165  0.7848099833193701  0.8654580161192416  1.0000
  H   H10       1.0  0.8457369682740394  0.21517656783770892  0.13454450824461617  1.0000
  H   H11       1.0  0.9493357295927113  0.8327576496669239  0.5127005169283905  1.0000
  H   H12       1.0  0.05068470969714411  0.1672354942204564  0.4872932238859349  1.0000
  H   H13       1.0  0.7971647955240897  0.03961051759712569  0.5149160104881219  1.0000
  H   H14       1.0  0.20285394266964124  0.9603760919116552  0.48508749175940835  1.0000
  H   H15       1.0  0.5360828530631849  0.15503498384654787  0.3681299664860376  1.0000
  H   H16       1.0  0.4639186858066538  0.8449774685568981  0.6318669449310548  1.0000
  H   H17       1.0  0.24660401566046627  0.6310923108660377  0.1389934675852444  1.0000
  H   H18       1.0  0.7533986991621618  0.36890069465421504  0.8610083362653356  1.0000
  H   H19       1.0  0.895935670989651  0.0145107328454586  0.9055212393838801  1.0000
  H   H20       1.0  0.10407165312674498  0.9854758292026417  0.09447909198766521  1.0000
  H   H21       1.0  0.08867645089464561  0.0780420543827631  0.9046548734321362  1.0000
  H   H22       1.0  0.9113300377822355  0.9219471025035019  0.09534366470710862  1.0000
  H   H23       1.0  0.4592047786681875  0.857316393508789  0.8690197045415362  1.0000
  H   H24       1.0  0.5407962039095792  0.1426701429790072  0.13097870278836152  1.0000
  H   H25       1.0  0.37354264452665137  0.9325697349228007  0.3115480886045746  1.0000
  H   H26       1.0  0.6264458477237724  0.0674517084190214  0.6884495557974901  1.0000
  H   H27       1.0  0.7202844632050402  0.7339205321714173  0.02140554642860339  1.0000
  H   H28       1.0  0.27971739687644975  0.2660711795305061  0.978595014835939  1.0000
  H   H29       1.0  0.16060266993607536  0.19599549854220302  0.2766868099499007  1.0000
  H   H30       1.0  0.8393937384901948  0.8040052659913997  0.7233105065716359  1.0000
  H   H31       1.0  0.26806040458883723  0.35913143287473287  0.23616206320205183  1.0000
  H   H32       1.0  0.7319372518052419  0.6408654502926439  0.763835750175609  1.0000
  H   H33       1.0  0.2059957606607199  0.2672212202965554  0.14664320427290534  1.0000
  H   H34       1.0  0.7939909835042019  0.732789858095643  0.8533530562496239  1.0000
  H   H35       1.0  0.3252151699178398  0.3221185975482613  0.4926242571442643  1.0000
  H   H36       1.0  0.674787985653417  0.6778809205389535  0.5073707630529967  1.0000
  H   H37       1.0  0.11246968735633807  0.4542495438933827  0.4381088921388141  1.0000
  H   H38       1.0  0.8875317760374982  0.5457473502537695  0.5618909528607574  1.0000
  H   H39       1.0  0.2208948060747957  0.5306237623377612  0.5179383757163762  1.0000
  H   H40       1.0  0.7791011722520339  0.46937439643706824  0.4820615188250201  1.0000
  C   C1        1.0  0.9859519425959608  0.4474064773276821  0.20296275466595398  1.0000
  C   C2        1.0  0.014044497245329482  0.5525981504500237  0.7970391281913862  1.0000
  C   C3        1.0  0.8004103749192879  0.8120157209749407  0.30342346334236237  1.0000
  C   C4        1.0  0.19958272143345113  0.1879992897857576  0.6965705155883557  1.0000
  C   C5        1.0  0.9118501089564504  0.014506367803306795  0.3692608170429637  1.0000
  C   C6        1.0  0.08815097532087894  0.9854996010759008  0.6307370300479392  1.0000
  C   C7        1.0  0.13218110724476156  0.8008827529393017  0.9431504540263449  1.0000
  C   C8        1.0  0.8678211512548659  0.19910377268705298  0.05685155450061071  1.0000
  C   C9        1.0  0.9251779683028047  0.9726491027020714  0.4835178542314297  1.0000
  C   C10       1.0  0.0748353113137625  0.027346574159750496  0.5164794792833405  1.0000
  C   C11       1.0  0.5898482260883354  0.03272854576553639  0.3451123678402723  1.0000
  C   C12       1.0  0.41015033403302686  0.9672773867510996  0.6548899728155321  1.0000
  C   C13       1.0  0.3325582997985208  0.539769750497193  0.37035466835017433  1.0000
  C   C14       1.0  0.6674351877841357  0.4602361601190665  0.629646425471286  1.0000
  C   C15       1.0  0.3439464878160552  0.672474696901979  0.08789933348399613  1.0000
  C   C16       1.0  0.6560557934461643  0.32751571012018144  0.9121035863915737  1.0000
  C   C17       1.0  0.020811353400070197  0.9861613465083678  0.9465333826936373  1.0000
  C   C18       1.0  0.9791942874576166  0.0138265020382065  0.05346683684933141  1.0000
  C   C19       1.0  0.4570211130600725  0.7917753240919296  0.9473182915147265  1.0000
  C   C20       1.0  0.5429777771916592  0.20821377816172054  0.05268276235764092  1.0000
  C   C21       1.0  0.5122951937294149  0.9252177185421572  0.3156215609748401  1.0000
  C   C22       1.0  0.48769790235704846  0.0747933636283094  0.6843810095739614  1.0000
  C   C23       1.0  0.5836202755201613  0.7319544339223256  0.021986797002007605  1.0000
  C   C24       1.0  0.4163803172918961  0.2680372704893301  0.9780138180526734  1.0000
  C   C25       1.0  0.1653331266243754  0.3079088428767492  0.21754170736005563  1.0000
  C   C26       1.0  0.8346599187454516  0.6920944873931206  0.7824568474991977  1.0000
  C   C27       1.0  0.24334575704733652  0.4543573334555687  0.4601394632305684  1.0000
  C   C28       1.0  0.7566531911092512  0.5456434347675412  0.5398599387030174  1.0000
  N   N1        1.0  0.7719310736753188  0.9583917376417544  0.33671446270948024  1.0000
  N   N2        1.0  0.228069178623457  0.0416168188149371  0.6632830531440064  1.0000
  N   N3        1.0  0.3071228183179431  0.7519370657454729  0.9903559571384619  1.0000
  N   N4        1.0  0.6928790259228991  0.24805075003928315  0.009646616767220496  1.0000
  N   N5        1.0  0.6449195644842404  0.7887487143306016  0.28959784713381254  1.0000
  N   N6        1.0  0.3550718238504373  0.21125977657287356  0.7104029692403628  1.0000
  N   N7        1.0  0.5110757149618905  0.6581097968225007  0.10930467682359793  1.0000
  N   N8        1.0  0.48892783183927685  0.34188062112026785  0.8906974582643983  1.0000
  O   O1        1.0  0.493622362231122  0.4508403531157583  0.3506204447892928  1.0000
  O   O2        1.0  0.506369893224374  0.5491733347838874  0.6493781395349033  1.0000
  O   O3        1.0  0.8584991105787836  0.41060649761184465  0.26013876414705095  1.0000
  O   O4        1.0  0.1414990929223805  0.5894084624424137  0.7398710815667756  1.0000
  O   O5        1.0  0.2517330721225476  0.6875908673589848  0.3202441695855782  1.0000
  O   O6        1.0  0.7482582969105139  0.312413734887997  0.67975719743486  1.0000
  O   O7        1.0  0.9682405925760373  0.5861472403864099  0.13917244081752506  1.0000
  O   O8        1.0  0.03175670027589209  0.4138586848399655  0.8608299536284107  1.0000
