data_image0
_chemical_formula_structural       Hf6H16C126Br60N6O32
_chemical_formula_sum              "Hf6 H16 C126 Br60 N6 O32"
_cell_length_a       17.954512088782955
_cell_length_b       18.105866476945014
_cell_length_c       18.30134846342613
_cell_angle_alpha    92.26324594259103
_cell_angle_beta     90.4924226924595
_cell_angle_gamma    91.14350493534923

_space_group_name_H-M_alt    "P 1"
_space_group_IT_number       1

loop_
  _space_group_symop_operation_xyz
  'x, y, z'

loop_
  _atom_site_type_symbol
  _atom_site_label
  _atom_site_symmetry_multiplicity
  _atom_site_fract_x
  _atom_site_fract_y
  _atom_site_fract_z
  _atom_site_occupancy
  Hf  Hf1       1.0  0.024232909890301396  0.1935050063346608  0.1354588943732438  1.0000
  Hf  Hf2       1.0  0.1579407293481836  0.2374313228889378  0.004181891072221302  1.0000
  Hf  Hf3       1.0  0.9988172735033914  0.011926225923502912  0.07223148890174261  1.0000
  Hf  Hf4       1.0  0.17780805539429417  0.0803816347090347  0.11981306551866312  1.0000
  Hf  Hf5       1.0  0.9758211796954935  0.1651433305911354  0.9570625098110455  1.0000
  Hf  Hf6       1.0  0.1320458218293297  0.052178331370186  0.9373549446599725  1.0000
  H   H1        1.0  0.7990445397443438  0.8666381742804318  0.46973319611716147  1.0000
  H   H2        1.0  0.7949907127339984  0.8888624982951541  0.6160649664065333  1.0000
  H   H3        1.0  0.36701410571655657  0.30767263055128063  0.6549084550340254  1.0000
  H   H4        1.0  0.34467509121444817  0.30973733187742875  0.5096434344344091  1.0000
  H   H5        1.0  0.5100491263989112  0.8270221319033908  0.7830044237456378  1.0000
  H   H6        1.0  0.6585824444243116  0.811058368487366  0.7928407811710444  1.0000
  H   H7        1.0  0.6964313656277312  0.43830521583964105  0.23975557976934433  1.0000
  H   H8        1.0  0.5484285215998382  0.4219095579762139  0.2539612455174449  1.0000
  H   H9        1.0  0.9025061595346955  0.5377711632938541  0.76872196759372  1.0000
  H   H10       1.0  0.9146293121064275  0.6849144661845444  0.7648728181656211  1.0000
  H   H11       1.0  0.27376473317407596  0.7595612080356275  0.29916599756004564  1.0000
  H   H12       1.0  0.2879003248826352  0.6164473605094969  0.2582146809105765  1.0000
  H   H13       1.0  0.1785502554220102  0.22913194296155137  0.16338437548656512  1.0000
  H   H14       1.0  0.8882783440948714  0.1262851718943523  0.07645767356179081  1.0000
  H   H15       1.0  0.13329007635114457  0.9390159947008951  0.043445562803412885  1.0000
  H   H16       1.0  0.0994523404733201  0.17481510939904873  0.8609926572246495  1.0000
  C   C1        1.0  0.7548314459289499  0.9780897080186292  0.4657058429349945  1.0000
  C   C2        1.0  0.7760971337973288  0.9142904073815357  0.4984685368212638  1.0000
  C   C3        1.0  0.7728331069099212  0.9251396569811734  0.5757434624383039  1.0000
  C   C4        1.0  0.7495089809172484  0.9960853517065473  0.5902213828886432  1.0000
  C   C5        1.0  0.43308943757764234  0.20906864819103532  0.629614750128404  1.0000
  C   C6        1.0  0.3929259414274214  0.2718363411151188  0.6140532139563107  1.0000
  C   C7        1.0  0.3813596767813435  0.2734356183605868  0.5382349792447131  1.0000
  C   C8        1.0  0.41392361207053335  0.2117366288125595  0.5064990042470044  1.0000
  C   C9        1.0  0.5081009605424356  0.7911917236293248  0.8956942958109125  1.0000
  C   C10       1.0  0.5396735865793758  0.8050031193833219  0.8288591845528899  1.0000
  C   C11       1.0  0.6180155742475363  0.795436537707502  0.8333448431019975  1.0000
  C   C12       1.0  0.6345922374782019  0.7760140887447237  0.9035603265368338  1.0000
  C   C13       1.0  0.6695041642174431  0.48841303194991786  0.1355553774307054  1.0000
  C   C14       1.0  0.6545810549515209  0.4598385972341177  0.2037201996992124  1.0000
  C   C15       1.0  0.5770259965417849  0.45126574258693364  0.21149439569934714  1.0000
  C   C16       1.0  0.5436613541464439  0.4745224107348348  0.14856278862301053  1.0000
  C   C17       1.0  0.996377380564425  0.5365424730738083  0.6923115705617492  1.0000
  C   C18       1.0  0.9395146154491626  0.5681103537406783  0.733769008364206  1.0000
  C   C19       1.0  0.9453703193595899  0.6451124477126838  0.7317605371079737  1.0000
  C   C20       1.0  0.007179220621871698  0.6624342174933275  0.6908967185318745  1.0000
  C   C21       1.0  0.18210300823959358  0.7198115476322401  0.3674489943750956  1.0000
  C   C22       1.0  0.24384804780804353  0.7133396292062243  0.3219212899738438  1.0000
  C   C23       1.0  0.25156507909483844  0.6386850811150636  0.30043401585915325  1.0000
  C   C24       1.0  0.19481744214974836  0.5989845094006512  0.33214652505117936  1.0000
  C   C25       1.0  0.917878047594634  0.0832682947355821  0.21486089277916426  1.0000
  C   C26       1.0  0.1050656072843097  0.3416785102822075  0.15392566201875013  1.0000
  C   C27       1.0  0.25195754168928625  0.12291076293389121  0.2408932618243469  1.0000
  C   C28       1.0  0.8962772496629725  0.28576877941314643  0.0707055547007869  1.0000
  C   C29       1.0  0.2563471853731656  0.15999223261790974  0.8737713674659916  1.0000
  C   C30       1.0  0.04236445276755771  0.9459600001085987  0.8231743449830305  1.0000
  C   C31       1.0  0.27507298007902387  0.3238686837815763  0.03829241855943621  1.0000
  C   C32       1.0  0.0448969475486365  0.304505454170851  0.8816037425965108  1.0000
  C   C33       1.0  0.9050432164940502  0.9105463655665392  0.02095110698147811  1.0000
  C   C34       1.0  0.1040691232530762  0.9442780379466102  0.19703820287134022  1.0000
  C   C35       1.0  0.2694295774734741  0.9744738979659927  0.009901253614977203  1.0000
  C   C36       1.0  0.8862057245969552  0.11862927039967269  0.8537829026409512  1.0000
  C   C37       1.0  0.1926958755131096  0.8535268961730793  0.3613604295291922  1.0000
  C   C38       1.0  0.1445376723575649  0.7908149255001647  0.367570703181201  1.0000
  C   C39       1.0  0.0705825435323959  0.8006287117782167  0.34215852208586744  1.0000
  C   C40       1.0  0.0556810942454291  0.8532087935998335  0.2900432795970218  1.0000
  C   C41       1.0  0.1143761308219169  0.8984404852985861  0.2624599027093524  1.0000
  C   C42       1.0  0.18337701641787874  0.8990990457985221  0.3021521729303558  1.0000
  C   C43       1.0  0.1708538655440321  0.39927707049040606  0.26453003075830855  1.0000
  C   C44       1.0  0.1267770713571537  0.4080899832928821  0.20188957334212893  1.0000
  C   C45       1.0  0.10282382877277742  0.47861170956889515  0.18447862253660932  1.0000
  C   C46       1.0  0.1215944679346777  0.5394942165392606  0.23088684224122605  1.0000
  C   C47       1.0  0.1652611325322724  0.5307974672069805  0.2947889038201978  1.0000
  C   C48       1.0  0.18955591872779817  0.46030630660980887  0.31097506693641463  1.0000
  C   C49       1.0  0.0775509803750722  0.744914338085941  0.7771034143782175  1.0000
  C   C50       1.0  0.04399743417896931  0.7353449802432195  0.7069886072522423  1.0000
  C   C51       1.0  0.028869642846238695  0.7990395050797899  0.6684557118419434  1.0000
  C   C52       1.0  0.035357702080801794  0.8694992871583408  0.7030599420207083  1.0000
  C   C53       1.0  0.0602771942668312  0.8775926733229298  0.7759554304095958  1.0000
  C   C54       1.0  0.08762514477256642  0.8154685708269438  0.8100740761199104  1.0000
  C   C55       1.0  0.9625055859080405  0.3687512536948531  0.7898309142736722  1.0000
  C   C56       1.0  0.03475008982697861  0.3523495104602715  0.8167280632571164  1.0000
  C   C57       1.0  0.0955972138855685  0.3787769212702159  0.7755495373638227  1.0000
  C   C58       1.0  0.085714556863671  0.43182042827339023  0.7225200638004382  1.0000
  C   C59       1.0  0.014265161620542699  0.45975867521882924  0.7070453052495652  1.0000
  C   C60       1.0  0.9539858258471696  0.41386383414145195  0.7300897390539519  1.0000
  C   C61       1.0  0.0310192226234633  0.5743602099193127  0.5278963766230832  1.0000
  C   C62       1.0  0.0715739884729842  0.5978160989745048  0.5915564322254313  1.0000
  C   C63       1.0  0.14262792536505486  0.6301777738055631  0.5816994680320208  1.0000
  C   C64       1.0  0.17003792357715497  0.6415559708159719  0.5111500151648373  1.0000
  C   C65       1.0  0.1260249617560021  0.6254257002794645  0.44772750261844163  1.0000
  C   C66       1.0  0.058494212365054886  0.5862084411669884  0.45723243023589794  1.0000
  C   C67       1.0  0.804448424819384  0.4632209529732377  0.14791363114681394  1.0000
  C   C68       1.0  0.7407258259867077  0.46792512712011813  0.10164673753089201  1.0000
  C   C69       1.0  0.7444781807539725  0.4256311895410149  0.0348915796970317  1.0000
  C   C70       1.0  0.7888319471761774  0.3629011184275868  0.029945706769709108  1.0000
  C   C71       1.0  0.8453169279757233  0.3502119577005729  0.08204901374782742  1.0000
  C   C72       1.0  0.8533300919274183  0.40395752569239807  0.14099903130274072  1.0000
  C   C73       1.0  0.4119993280411549  0.32953422579607405  0.0670434235581752  1.0000
  C   C74       1.0  0.34386544697920834  0.36661093144962115  0.06304368434135202  1.0000
  C   C75       1.0  0.3416538619601326  0.44225974040309524  0.08444089047387142  1.0000
  C   C76       1.0  0.40557366965234104  0.4782854251753149  0.11450618255881302  1.0000
  C   C77       1.0  0.4733813513311986  0.44192939127532327  0.11840550932931393  1.0000
  C   C78       1.0  0.47644617215607343  0.36735851174753975  0.09230152081971002  1.0000
  C   C79       1.0  0.840889369836276  0.7960817211573925  0.9565708001368237  1.0000
  C   C80       1.0  0.8393188983187443  0.8599052838588791  0.0033345160923942954  1.0000
  C   C81       1.0  0.7694082361555629  0.8851811268101955  0.026742893070284903  1.0000
  C   C82       1.0  0.7043451699218082  0.8594351819478021  0.9910250563318002  1.0000
  C   C83       1.0  0.7044226367765631  0.7955015784826073  0.9438328600543002  1.0000
  C   C84       1.0  0.7736425853542741  0.7621910738203469  0.9308988167444384  1.0000
  C   C85       1.0  0.3307268659716485  0.8481394328649613  2.021071006198445e-05  1.0000
  C   C86       1.0  0.3335174070459814  0.9244044259596363  0.9922975036753244  1.0000
  C   C87       1.0  0.3927546745710444  0.955465520750195  0.9544098919959654  1.0000
  C   C88       1.0  0.4439807200042906  0.9112166325522607  0.9171598114574878  1.0000
  C   C89       1.0  0.4438752253549579  0.8326995852622971  0.9258434053749199  1.0000
  C   C90       1.0  0.3856795168742622  0.80307517323336  0.968158236344543  1.0000
  C   C91       1.0  0.5509143037810204  0.6295246831748003  0.9502060985360502  1.0000
  C   C92       1.0  0.5643042799753459  0.700143416553111  0.984156483274994  1.0000
  C   C93       1.0  0.5795824942218886  0.7026032283056407  0.0597918283422274  1.0000
  C   C94       1.0  0.59455885005503  0.6375217462498171  0.09643247977314222  1.0000
  C   C95       1.0  0.5842285804242592  0.5667838898660875  0.06141932284921841  1.0000
  C   C96       1.0  0.5531728828651056  0.5646217154329706  0.9902647650500996  1.0000
  C   C97       1.0  0.39525522707455707  0.11132131295938312  0.7208857560117609  1.0000
  C   C98       1.0  0.424761661359291  0.1817430606629458  0.7038213071332109  1.0000
  C   C99       1.0  0.4217029738690384  0.23547145931393493  0.7623915890683861  1.0000
  C   C100      1.0  0.3683096318027522  0.2298036301622943  0.8175008501343016  1.0000
  C   C101      1.0  0.32280813821328275  0.1646888224341936  0.8236314552615341  1.0000
  C   C102      1.0  0.3437804949674046  0.10293286961834272  0.7775447005631478  1.0000
  C   C103      1.0  0.41239106999680075  0.1907453617666377  0.36819238262637555  1.0000
  C   C104      1.0  0.38300313277174064  0.17870549891439674  0.4372819574290432  1.0000
  C   C105      1.0  0.3120490620318392  0.1438730179550092  0.4415413541409094  1.0000
  C   C106      1.0  0.2705120228328113  0.1246613429275456  0.37825167142820254  1.0000
  C   C107      1.0  0.298883065979865  0.13993460643809644  0.3081454248931906  1.0000
  C   C108      1.0  0.3712174285969922  0.1725718413703348  0.30398939262782687  1.0000
  C   C109      1.0  0.8677727207453145  0.11792406369545459  0.7186927880435975  1.0000
  C   C110      1.0  0.8391237152500751  0.1000061008491855  0.7875567543535597  1.0000
  C   C111      1.0  0.7720968294062159  0.05821114347873651  0.7902077365744306  1.0000
  C   C112      1.0  0.7372368471129747  0.03207353835832551  0.724734412240018  1.0000
  C   C113      1.0  0.7709414183576797  0.0408450438935759  0.6566247344390775  1.0000
  C   C114      1.0  0.8371479784188977  0.08456060549292492  0.6547332418709644  1.0000
  C   C115      1.0  0.7942044595913202  0.07079054372727  0.28317581725473673  1.0000
  C   C116      1.0  0.8713025778532212  0.06436909022330183  0.27987601127527745  1.0000
  C   C117      1.0  0.9085473363470554  0.031218671924854398  0.33678567393640446  1.0000
  C   C118      1.0  0.8696664135176632  0.9968998286021105  0.39225718939538723  1.0000
  C   C119      1.0  0.790382539997367  0.004257993172430503  0.39824791894136524  1.0000
  C   C120      1.0  0.7545207471047346  0.04215236611663191  0.34208032686005657  1.0000
  C   C121      1.0  0.523027249142288  0.0624742404531773  0.5188986919121704  1.0000
  C   C122      1.0  0.5190368299110516  0.1362120685013366  0.5458771254374781  1.0000
  C   C123      1.0  0.5871814105337947  0.17663564224476858  0.5532017653906182  1.0000
  C   C124      1.0  0.6561491715728209  0.1429577866752538  0.5395967021103516  1.0000
  C   C125      1.0  0.6602829291043193  0.0662265798065391  0.5248699226634487  1.0000
  C   C126      1.0  0.5918918802053597  0.026565859374699102  0.5154888607694943  1.0000
  Br  Br1       1.0  0.2731580157695532  0.9468219601325315  0.2731079788094847  1.0000
  Br  Br2       1.0  0.2737823033443405  0.8654721923959555  0.4285450838812467  1.0000
  Br  Br3       1.0  0.9561789054248991  0.8563035500129885  0.2550839358323956  1.0000
  Br  Br4       1.0  0.9949424947614602  0.7368362062093325  0.37504753856128303  1.0000
  Br  Br5       1.0  0.2487751124631217  0.4510859818032387  0.396207243094601  1.0000
  Br  Br6       1.0  0.20928810205191442  0.30513563819404504  0.28421106882137087  1.0000
  Br  Br7       1.0  0.09010265871434339  0.6345889706211736  0.20652556974978611  1.0000
  Br  Br8       1.0  0.0482713991656709  0.49098530425992243  0.09692192631829502  1.0000
  Br  Br9       1.0  0.13220910973515027  0.8258037378545708  0.9044775894826886  1.0000
  Br  Br10      1.0  0.1015580337579323  0.6604968534464533  0.830420925260171  1.0000
  Br  Br11      1.0  0.005358414711935199  0.954842963355915  0.654538781625341  1.0000
  Br  Br12      1.0  0.9943302483933253  0.7855311749678578  0.5702791788022809  1.0000
  Br  Br13      1.0  0.860318237041369  0.4152099268413849  0.6800031787654676  1.0000
  Br  Br14      1.0  0.8737004409344351  0.3410504754628292  0.8383213004083104  1.0000
  Br  Br15      1.0  0.16853319652097548  0.46888423217310293  0.6716224906881864  1.0000
  Br  Br16      1.0  0.19267072893138248  0.34366619782582575  0.7918783308679026  1.0000
  Br  Br17      1.0  0.0031543126151234  0.5489025028097531  0.37485731549061546  1.0000
  Br  Br18      1.0  0.9348989516709099  0.5318038353934044  0.5371361686788774  1.0000
  Br  Br19      1.0  0.27075089194534735  0.6713515283185741  0.5010790951852827  1.0000
  Br  Br20      1.0  0.20297131429797588  0.6577561442560623  0.66362832223507  1.0000
  Br  Br21      1.0  0.9236484529801602  0.3956078442315629  0.21784610636328242  1.0000
  Br  Br22      1.0  0.8203281359165118  0.5405766802447546  0.22040768236634992  1.0000
  Br  Br23      1.0  0.7559269168724754  0.28714844767024067  0.9612755177748086  1.0000
  Br  Br24      1.0  0.6875590142393051  0.4512751077920427  0.9538174379472654  1.0000
  Br  Br25      1.0  0.5691549387735079  0.31921572219906835  0.08747655912006283  1.0000
  Br  Br26      1.0  0.41967903994168404  0.22892126270638607  0.03583386488100611  1.0000
  Br  Br27      1.0  0.4043229679967125  0.5785104660217186  0.14865602568198  1.0000
  Br  Br28      1.0  0.2536369216655459  0.496302573945087  0.073431334046397  1.0000
  Br  Br29      1.0  0.7734717521315417  0.6718371810288273  0.874682019351326  1.0000
  Br  Br30      1.0  0.9332928939810188  0.7570510333284872  0.9273114590967567  1.0000
  Br  Br31      1.0  0.6223563340273444  0.9235047173774544  0.9947128476818108  1.0000
  Br  Br32      1.0  0.7613040392847877  0.9537849734481229  0.1068806845687575  1.0000
  Br  Br33      1.0  0.3783552466586002  0.6997243179826  0.9785644088761744  1.0000
  Br  Br34      1.0  0.2501354776053191  0.8082046301555437  0.053795830889157514  1.0000
  Br  Br35      1.0  0.5090772751776881  0.9630643506535678  0.8549528516946269  1.0000
  Br  Br36      1.0  0.4002697127158328  0.060242725057833  0.9569724175154519  1.0000
  Br  Br37      1.0  0.5089914782619758  0.4767646457962655  0.9480382028790546  1.0000
  Br  Br38      1.0  0.5303280374916639  0.6201112358475668  0.8489407138694461  1.0000
  Br  Br39      1.0  0.6227686198000412  0.6455125113415576  0.19608978609368682  1.0000
  Br  Br40      1.0  0.573229656892657  0.7931895107487533  0.11347129634287971  1.0000
  Br  Br41      1.0  0.30360241782482694  0.005908588793971602  0.7858683217049106  1.0000
  Br  Br42      1.0  0.4240549662287805  0.0290739228460239  0.6625988076132786  1.0000
  Br  Br43      1.0  0.35637427474378564  0.3165927413505186  0.8769040233761416  1.0000
  Br  Br44      1.0  0.4910205046671407  0.3164867905426476  0.7620496854096573  1.0000
  Br  Br45      1.0  0.4129589200688102  0.1980606196860606  0.21384935404706343  1.0000
  Br  Br46      1.0  0.5092841491972918  0.23419419538257805  0.36547855856680667  1.0000
  Br  Br47      1.0  0.17713922937674914  0.07743617607582821  0.39275907315729347  1.0000
  Br  Br48      1.0  0.2729015509382506  0.12452490129175688  0.5349660036336488  1.0000
  Br  Br49      1.0  0.8933560520768464  0.08881853107138937  0.5681193706556728  1.0000
  Br  Br50      1.0  0.9467274819092636  0.18793209649087572  0.709885431611994  1.0000
  Br  Br51      1.0  0.6442646374521033  0.9802540029815177  0.7246484807806227  1.0000
  Br  Br52      1.0  0.7301601171351281  0.0319527949866014  0.8802484381560377  1.0000
  Br  Br53      1.0  0.6498002585997327  0.0516103701890316  0.34357351297413896  1.0000
  Br  Br54      1.0  0.7461092688444778  0.12009561574860331  0.20673723720418744  1.0000
  Br  Br55      1.0  0.9300311319910929  0.941224967137508  0.45478639682279726  1.0000
  Br  Br56      1.0  0.013981474107119097  0.04002922830110829  0.3364598252193148  1.0000
  Br  Br57      1.0  0.5903624651141682  0.9228600719181725  0.5000114960999086  1.0000
  Br  Br58      1.0  0.4364758918706285  0.0117766394133341  0.48217690223046367  1.0000
  Br  Br59      1.0  0.7440287097300384  0.20158070941191403  0.5372474158454638  1.0000
  Br  Br60      1.0  0.5852600511178849  0.27918002896449684  0.5756025665867526  1.0000
  N   N1        1.0  0.7309398486184762  0.028566208500606604  0.5233753106064327  1.0000
  N   N2        1.0  0.4494077918756361  0.1723546249314154  0.5616067098310822  1.0000
  N   N3        1.0  0.5668626220630202  0.7661316553206277  0.9418225529551664  1.0000
  N   N4        1.0  0.5996639405085773  0.5014438974742532  0.10174588925904972  1.0000
  N   N5        1.0  0.0382608877206323  0.595871211357945  0.6628581899314838  1.0000
  N   N6        1.0  0.15309289701997386  0.6475404369541806  0.37758557987005054  1.0000
  O   O1        1.0  0.9243596555428153  0.030911814055784196  0.1674011246613247  1.0000
  O   O2        1.0  0.1292894201865238  0.33648333394672386  0.09000742333646632  1.0000
  O   O3        1.0  0.18129315433487386  0.1232677332456547  0.24372434709112412  1.0000
  O   O4        1.0  0.929047448232623  0.2618464954324509  0.12731763051863962  1.0000
  O   O5        1.0  0.9055252146392119  0.2585232619327442  0.006768917988075901  1.0000
  O   O6        1.0  0.28200105425747785  0.1076574947888176  0.17848661668418234  1.0000
  O   O7        1.0  0.06289664785006718  0.29430728947414037  0.18549020801843602  1.0000
  O   O8        1.0  0.9488895532331866  0.14718843755463243  0.21394258460691873  1.0000
  O   O9        1.0  0.0482378882739525  0.2162615693151295  0.0327527956254201  1.0000
  O   O10       1.0  0.06384573591138579  0.08901063597924258  0.13038735306772511  1.0000
  O   O11       1.0  0.15017198816913438  0.197646222316493  0.1282104078555335  1.0000
  O   O12       1.0  0.940422667843684  0.1236599558270655  0.06274120611377751  1.0000
  O   O13       1.0  0.2415748400345237  0.21383528041194205  0.9180538816260012  1.0000
  O   O14       1.0  0.9765384657526607  0.9537251461705056  0.8381926214552565  1.0000
  O   O15       1.0  0.26078634906465226  0.26216612977761866  0.06852291965642371  1.0000
  O   O16       1.0  0.9923512345474422  0.2575074889852046  0.8911723667403353  1.0000
  O   O17       1.0  0.8933521202930593  0.9802831073862563  0.017321294053047612  1.0000
  O   O18       1.0  0.15952810145040527  0.9853880041805141  0.17973464305995182  1.0000
  O   O19       1.0  0.2277162783210969  0.9833457905400987  0.9543898041243113  1.0000
  O   O20       1.0  0.9567657622318465  0.11364369907201416  0.8475837346247986  1.0000
  O   O21       1.0  0.2620551591388605  0.0037582176255100013  0.07310906883218142  1.0000
  O   O22       1.0  0.8599969869691791  0.1400773694018582  0.9159875862596395  1.0000
  O   O23       1.0  0.2313596638659234  0.34553135928022266  0.9897746186992081  1.0000
  O   O24       1.0  0.043845107139212296  0.9413513284330082  0.16017890272303253  1.0000
  O   O25       1.0  0.9696318280074508  0.890405042548508  0.0404886804276003  1.0000
  O   O26       1.0  0.1028509940218783  0.31053511035000975  0.9222631078346667  1.0000
  O   O27       1.0  0.21567417676693879  0.1013281875760725  0.8678728110639186  1.0000
  O   O28       1.0  0.0984874948897954  0.988242025088937  0.8471632178775651  1.0000
  O   O29       1.0  0.0242305717779985  0.06332897819928009  0.9761920808651684  1.0000
  O   O30       1.0  0.1781484808618643  0.12306634051505227  0.0176928492383652  1.0000
  O   O31       1.0  0.1115123534574778  0.9869160668049943  0.0357922089288607  1.0000
  O   O32       1.0  0.0924527970772431  0.16048674075523192  0.9111527024319486  1.0000
