data_image0
_chemical_formula_structural       Cu2H16C24N8Cl4
_chemical_formula_sum              "Cu2 H16 C24 N8 Cl4"
_cell_length_a       3.771437950416052
_cell_length_b       6.880451851483568
_cell_length_c       25.823850447744388
_cell_angle_alpha    90.00017799704789
_cell_angle_beta     90.00117766721058
_cell_angle_gamma    97.74970059680574

_space_group_name_H-M_alt    "P 1"
_space_group_IT_number       1

loop_
  _space_group_symop_operation_xyz
  'x, y, z'

loop_
  _atom_site_type_symbol
  _atom_site_label
  _atom_site_symmetry_multiplicity
  _atom_site_fract_x
  _atom_site_fract_y
  _atom_site_fract_z
  _atom_site_occupancy
  Cu  Cu1       1.0  1.6206801646523475e-05  0.49999584987873674  4.7462208390000007e-07  1.0000
  Cu  Cu2       1.0  0.5000198653709589  3.095476451199867e-06  0.5000008879673175  1.0000
  H   H1        1.0  0.2872931144398265  0.6084198353314677  0.19093446912437173  1.0000
  H   H2        1.0  0.21266912316211528  0.8915475041664325  0.6909322752289739  1.0000
  H   H3        1.0  0.712681672727463  0.3915815724133154  0.8090659324846428  1.0000
  H   H4        1.0  0.787303440190982  0.10844363737967913  0.3090661901805092  1.0000
  H   H5        1.0  0.2216574598324357  0.42534440126849665  0.10619407715298482  1.0000
  H   H6        1.0  0.2783572519470354  0.0746412875841003  0.6061927316204958  1.0000
  H   H7        1.0  0.7783626987587197  0.5746705875530225  0.8938063245221812  1.0000
  H   H8        1.0  0.7216384737994515  0.9253588444287216  0.3938080572566491  1.0000
  H   H9        1.0  0.8608724978154995  0.894158497914617  0.0313197015670212  1.0000
  H   H10       1.0  0.6391988873440083  0.6058348521963312  0.5313210734771303  1.0000
  H   H11       1.0  0.1391439639955649  0.10582718275794892  0.9686745042750857  1.0000
  H   H12       1.0  0.36086049146992133  0.39417756132143467  0.46868126444733343  1.0000
  H   H13       1.0  0.9072570399907177  0.09599726173080114  0.1109715755985405  1.0000
  H   H14       1.0  0.5927965765531694  0.4039921602422325  0.610971759532049  1.0000
  H   H15       1.0  0.09268002889359649  0.9039891698610206  0.8890253408045226  1.0000
  H   H16       1.0  0.4072462245547683  0.5960171769001336  0.3890278676961216  1.0000
  C   C1        1.0  0.13894244584942333  0.9808109484081984  0.20397769422024228  1.0000
  C   C2        1.0  0.361048929652398  0.5191716630782609  0.7039734639402296  1.0000
  C   C3        1.0  0.8609861034990657  0.019197362948567304  0.7960269669531072  1.0000
  C   C4        1.0  0.6389279949083502  0.4808151264243818  0.2960269376692324  1.0000
  C   C5        1.0  0.10228283798382175  0.8670263737853221  0.1576204770088481  1.0000
  C   C6        1.0  0.397738658529839  0.6329683563235164  0.6576171640927199  1.0000
  C   C7        1.0  0.8976869526133625  0.13297645280579934  0.8423776011598533  1.0000
  C   C8        1.0  0.6022753486777929  0.3670304760826681  0.34238285033205784  1.0000
  C   C9        1.0  0.1891794583834994  0.6749598705939236  0.1564518785537743  1.0000
  C   C10       1.0  0.3108102016576737  0.8250111203410172  0.6564480011287871  1.0000
  C   C11       1.0  0.8108222167791511  0.3250432423305015  0.8435492975711797  1.0000
  C   C12       1.0  0.6891825494871497  0.17498752123633213  0.3435539494606843  1.0000
  C   C13       1.0  0.1523269906844362  0.5733972827523602  0.10992853770929399  1.0000
  C   C14       1.0  0.3476801145103253  0.9265886357315057  0.6099259611411583  1.0000
  C   C15       1.0  0.8477101785821475  0.42661054005663596  0.8900695405550108  1.0000
  C   C16       1.0  0.652326874645226  0.07341452489576741  0.3900744405134233  1.0000
  C   C17       1.0  0.9564414198529505  0.8369152887250808  0.0672741853255658  1.0000
  C   C18       1.0  0.543603091206741  0.6630759206199173  0.5672714360890936  1.0000
  C   C19       1.0  0.04357790119556171  0.16308359135491912  0.9327231184342324  1.0000
  C   C20       1.0  0.4564523598858301  0.33693060265215286  0.432730514589899  1.0000
  C   C21       1.0  0.9821037463357952  0.9486923788042748  0.1122694674375211  1.0000
  C   C22       1.0  0.5179362493938058  0.551295685402664  0.6122697048878223  1.0000
  C   C23       1.0  0.017882102060354996  0.0512988820105846  0.8877278362738892  1.0000
  C   C24       1.0  0.48209921611763207  0.44871651338836943  0.38773185852515  1.0000
  N   N1        1.0  0.1709289835120984  0.07910781841525961  0.24093798776029726  1.0000
  N   N2        1.0  0.3290277247216551  0.4208592462567893  0.7409310971889268  1.0000
  N   N3        1.0  0.828933053409884  0.920875012005887  0.7590604774923406  1.0000
  N   N4        1.0  0.6709313513473845  0.5791186004645609  0.25906504476574094  1.0000
  N   N5        1.0  0.04025071500494453  0.653246053537096  0.066226932825721  1.0000
  N   N6        1.0  0.4597840692559458  0.8467388638948493  0.5662258052486138  1.0000
  N   N7        1.0  0.9597762596101233  0.3467514315479861  0.9337723071392077  1.0000
  N   N8        1.0  0.5402517139823287  0.15327480150346418  0.4337765326428951  1.0000
  Cl  Cl1       1.0  0.42592908419469216  0.7283881812017089  0.9624342737826908  1.0000
  Cl  Cl2       1.0  0.07407310039403815  0.7716238738524978  0.462435150630867  1.0000
  Cl  Cl3       1.0  0.574071319999824  0.27160906528197165  0.0375630299502347  1.0000
  Cl  Cl4       1.0  0.9259557806124262  0.22838241088207673  0.5375691234442641  1.0000
