data_image0
_chemical_formula_structural       Er4H24C20O32
_chemical_formula_sum              "Er4 H24 C20 O32"
_cell_length_a       9.65254016646139
_cell_length_b       9.65261664619734
_cell_length_c       13.386893090498464
_cell_angle_alpha    100.12270717834117
_cell_angle_beta     100.12329505998859
_cell_angle_gamma    120.91909491060427

_space_group_name_H-M_alt    "P 1"
_space_group_IT_number       1

loop_
  _space_group_symop_operation_xyz
  'x, y, z'

loop_
  _atom_site_type_symbol
  _atom_site_label
  _atom_site_symmetry_multiplicity
  _atom_site_fract_x
  _atom_site_fract_y
  _atom_site_fract_z
  _atom_site_occupancy
  Er  Er1       1.0  0.2500424009052152  0.9999858407061311  0.9997850889057034  1.0000
  Er  Er2       1.0  0.5000253141455885  0.2499555049654703  0.5002174848263434  1.0000
  Er  Er3       1.0  0.7499507532800535  1.579951013039821e-05  0.00021058096962175984  1.0000
  Er  Er4       1.0  0.4999824311050815  0.7500456832353847  0.49978661172428207  1.0000
  H   H1        1.0  0.08570449066284166  0.5129874454515644  0.9340916786302884  1.0000
  H   H2        1.0  0.34798350012650286  0.4209016364537419  0.9342087279834741  1.0000
  H   H3        1.0  0.9870074041737665  0.4142714951768838  0.5659085021284795  1.0000
  H   H4        1.0  0.07909355820263635  0.15199953149796386  0.5657854160964391  1.0000
  H   H5        1.0  0.9142850264271868  0.4870114339338301  0.06589873807806865  1.0000
  H   H6        1.0  0.652013583746118  0.5790992111241379  0.06579777950749124  1.0000
  H   H7        1.0  0.01299438617700589  0.5857305245802068  0.43408900044824605  1.0000
  H   H8        1.0  0.9209053367564123  0.8480010630771487  0.4342093248454617  1.0000
  H   H9        1.0  0.953938165236515  0.6738673607164216  0.848165055528284  1.0000
  H   H10       1.0  0.39452762802250857  0.17469427590776118  0.8483711178595357  1.0000
  H   H11       1.0  0.8261204844112698  0.5460450967115166  0.6518631411049043  1.0000
  H   H12       1.0  0.32533550429972985  0.10550568251070301  0.6516525719222984  1.0000
  H   H13       1.0  0.04604918434984023  0.3261192832197749  0.15183408685616226  1.0000
  H   H14       1.0  0.605489073893416  0.825325810426939  0.15163184979462577  1.0000
  H   H15       1.0  0.17389592532524728  0.4539625653967078  0.3481390425484817  1.0000
  H   H16       1.0  0.6746604458113622  0.8944851513374772  0.3483518462036627  1.0000
  H   H17       1.0  0.9079912506803819  0.8065436941934788  0.8411270068314635  1.0000
  H   H18       1.0  0.4329275294096958  0.03458405247789639  0.8410654455379003  1.0000
  H   H19       1.0  0.6934538158753012  0.5919707169545347  0.6588829565930467  1.0000
  H   H20       1.0  0.46539771279507375  0.06707635440515959  0.6589321313436542  1.0000
  H   H21       1.0  0.09198291278159586  0.19344984061009277  0.15887063040062796  1.0000
  H   H22       1.0  0.5670817633450579  0.9654083330903304  0.1589318003752068  1.0000
  H   H23       1.0  0.3065534515309379  0.40803546545736674  0.34112317802485137  1.0000
  H   H24       1.0  0.5346049050456256  0.9329133287089774  0.3410662268650809  1.0000
  C   C1        1.0  0.3466647361930127  0.702725925935084  0.9389115861225362  1.0000
  C   C2        1.0  0.09201456969790905  0.2360153912446492  0.9391272553466478  1.0000
  C   C3        1.0  0.7972688812313676  0.15332226594809842  0.5610923152618028  1.0000
  C   C4        1.0  0.2639863987270203  0.40797456496528645  0.5608675129807635  1.0000
  C   C5        1.0  0.653327804764423  0.29727450708323033  0.06108610596503884  1.0000
  C   C6        1.0  0.9079769586532576  0.7639850612325956  0.0608725585617974  1.0000
  C   C7        1.0  0.20273335132307568  0.8466785699690931  0.4389065922877649  1.0000
  C   C8        1.0  0.7360176737876498  0.5920276727758349  0.4391347734430227  1.0000
  C   C9        1.0  0.20634993408244637  0.5301491237864154  0.933058383226978  1.0000
  C   C10       1.0  0.2263231903107154  0.402642533903304  0.9331422652732471  1.0000
  C   C11       1.0  0.9698532860750572  0.2936512233073073  0.5669407381456961  1.0000
  C   C12       1.0  0.09734860539659707  0.27366347179939515  0.5668515983951679  1.0000
  C   C13       1.0  0.7936483048235418  0.46985022077377175  0.06693687534571069  1.0000
  C   C14       1.0  0.7736702564666658  0.5973555528437019  0.06685898905075756  1.0000
  C   C15       1.0  0.030150736429931303  0.7063471184287097  0.43305509607503717  1.0000
  C   C16       1.0  0.9026565153651159  0.7263349361116552  0.4331451231676339  1.0000
  C   C17       1.0  0.3291533178051153  0.17084954943146605  0.24999959488920348  1.0000
  C   C18       1.0  0.42094078703857446  0.07909214111525388  0.2500004293700257  1.0000
  C   C19       1.0  0.6708526303105486  0.8291502797624375  0.7500026273686728  1.0000
  C   C20       1.0  0.5790642124319232  0.92090999153298  0.7499967260699592  1.0000
  O   O1        1.0  0.3129917071050412  0.814881208540278  0.9440428272904313  1.0000
  O   O2        1.0  0.13105222263376956  0.1292218741991604  0.944445181226797  1.0000
  O   O3        1.0  0.6851093829009398  0.1869922673840207  0.5559606257630206  1.0000
  O   O4        1.0  0.37078844061369404  0.36894599281902885  0.555566225822723  1.0000
  O   O5        1.0  0.6870070237375644  0.18512306795504677  0.05595084294719746  1.0000
  O   O6        1.0  0.8689515930703136  0.8707916447959648  0.055562168282207794  1.0000
  O   O7        1.0  0.3148861464191056  0.8129997717125477  0.4440431396808222  1.0000
  O   O8        1.0  0.6292130719265856  0.6310513090878374  0.44444038799638713  1.0000
  O   O9        1.0  0.49165717018033905  0.731764467791578  0.9418275051484953  1.0000
  O   O10       1.0  0.9498736163553758  0.2097511208790905  0.941956774352839  1.0000
  O   O11       1.0  0.7682337332866068  0.008332794711321905  0.558177418700609  1.0000
  O   O12       1.0  0.2902438387302693  0.5501096061576616  0.5580319608447226  1.0000
  O   O13       1.0  0.5083421741668274  0.2682387961317686  0.05817358838783797  1.0000
  O   O14       1.0  0.050118247136389016  0.7902480407158023  0.05804068307478619  1.0000
  O   O15       1.0  0.2317696759905415  0.9916643398267408  0.4418204377323675  1.0000
  O   O16       1.0  0.7097676932271924  0.44989671250341706  0.44197320939704093  1.0000
  O   O17       1.0  0.24733975714244125  0.15732821395047125  0.15979266440783843  1.0000
  O   O18       1.0  0.412931531111532  0.0028031937036985042  0.15980161518335476  1.0000
  O   O19       1.0  0.34268039419688273  0.25266386651836825  0.34020416775696555  1.0000
  O   O20       1.0  0.49722746295953607  0.087098837366149  0.3401988132282767  1.0000
  O   O21       1.0  0.752658574598456  0.8426750694317986  0.8402105509493651  1.0000
  O   O22       1.0  0.5870728551311257  0.9971977317465813  0.8401975624688801  1.0000
  O   O23       1.0  0.6573265522969007  0.7473397749962415  0.6598001280109  1.0000
  O   O24       1.0  0.5027762814582245  0.9128970062895618  0.6597966867238936  1.0000
  O   O25       1.0  0.002865672146946019  0.789743905318808  0.8461845565603809  1.0000
  O   O26       1.0  0.3433331580153335  0.05673979750000059  0.8462337528207158  1.0000
  O   O27       1.0  0.7102658434523192  0.4971548664015089  0.6538339395231673  1.0000
  O   O28       1.0  0.44325599508071883  0.15662996631405687  0.6537693232321117  1.0000
  O   O29       1.0  0.9971430072440054  0.2102610309772786  0.15381935662803406  1.0000
  O   O30       1.0  0.6566420466499917  0.9432575924412487  0.1537674625028273  1.0000
  O   O31       1.0  0.2897386714019844  0.5028324295739068  0.346165106810396  1.0000
  O   O32       1.0  0.5567476138176701  0.8433734338584742  0.3462308059280943  1.0000
