data_image0
_chemical_formula_structural       ZnNi2H30C18O24
_chemical_formula_sum              "Zn1 Ni2 H30 C18 O24"
_cell_length_a       6.293276967499751
_cell_length_b       10.84125110532526
_cell_length_c       10.841247683595393
_cell_angle_alpha    72.98085614629534
_cell_angle_beta     72.42898345607355
_cell_angle_gamma    72.42881076434351

_space_group_name_H-M_alt    "P 1"
_space_group_IT_number       1

loop_
  _space_group_symop_operation_xyz
  'x, y, z'

loop_
  _atom_site_type_symbol
  _atom_site_label
  _atom_site_symmetry_multiplicity
  _atom_site_fract_x
  _atom_site_fract_y
  _atom_site_fract_z
  _atom_site_occupancy
  Zn  Zn1       1.0  1.0044238294013136e-06  0.017897640789222204  0.9821016108061047  1.0000
  Ni  Ni1       1.0  0.22558602717920448  0.4785094154790955  0.002913073140028571  1.0000
  Ni  Ni2       1.0  0.774414762529133  0.9970880660196857  0.5214892307114952  1.0000
  H   H1        1.0  0.560061545514614  0.6145052882638851  0.8702648698703828  1.0000
  H   H2        1.0  0.4399439606018801  0.12973189705130747  0.3854931821470729  1.0000
  H   H3        1.0  0.642605442506152  0.5128425817319098  0.9971680054606227  1.0000
  H   H4        1.0  0.3574003709351387  0.0028291616005447005  0.4871576692605617  1.0000
  H   H5        1.0  0.41939466664641156  0.2695477962327857  0.13100390725428923  1.0000
  H   H6        1.0  0.5806063342027199  0.8689962469137172  0.7304487507779102  1.0000
  H   H7        1.0  0.579814005345696  0.27066099436362384  0.9808691923096338  1.0000
  H   H8        1.0  0.420181155441682  0.019130296740947003  0.7293394505915601  1.0000
  H   H9        1.0  0.9365488672662464  0.3389603509654223  0.9912832348599995  1.0000
  H   H10       1.0  0.0634486820903035  0.008716304864961399  0.6610423702482751  1.0000
  H   H11       1.0  0.8904313989056616  0.35340455448574215  0.14088010251154512  1.0000
  H   H12       1.0  0.1095689765488005  0.8591196417719686  0.6465970539746452  1.0000
  H   H13       1.0  0.8570313827005548  0.6814011142177208  0.030311008025506746  1.0000
  H   H14       1.0  0.14296814484740142  0.9696898495738396  0.3185985966629303  1.0000
  H   H15       1.0  0.033847330255937946  0.6920973157685283  0.8785941042108976  1.0000
  H   H16       1.0  0.9661528398339098  0.12140696848048556  0.30790256518989173  1.0000
  H   H17       1.0  0.2962583359607719  0.15812983265328745  0.023586010199210177  1.0000
  H   H18       1.0  0.7037396202536923  0.9764126261754673  0.8418706502418021  1.0000
  H   H19       1.0  0.318852422597061  0.0098306370347956  0.10681344670472734  1.0000
  H   H20       1.0  0.6811463958971444  0.893186178180976  0.9901707894784979  1.0000
  H   H21       1.0  0.15487934957828742  0.7644558227080224  0.9912116499500316  1.0000
  H   H22       1.0  0.8451209882603763  0.008788155250556401  0.2355426888826884  1.0000
  H   H23       1.0  0.35603236668604393  0.8046170770047996  0.024693578864365382  1.0000
  H   H24       1.0  0.6439679264847552  0.9753076945185275  0.1953808676035038  1.0000
  H   H25       1.0  0.30368264688996044  0.7815590768944533  0.47955336004920224  1.0000
  H   H26       1.0  0.6963132402436043  0.5204478530448924  0.21844084476465758  1.0000
  H   H27       1.0  0.4999987882059143  0.3619422283765844  0.6380573430621156  1.0000
  H   H28       1.0  0.2022237446507233  0.2149795617765591  0.525361336686217  1.0000
  H   H29       1.0  0.7977724361592846  0.4746414936126229  0.7850182897139676  1.0000
  H   H30       1.0  2.3060779170554786e-06  0.6342761677650018  0.3657196429382239  1.0000
  C   C1        1.0  0.3877064006661755  0.5735193672095564  0.5742612731022093  1.0000
  C   C2        1.0  0.6122887047077298  0.42574123563129984  0.42648027204107575  1.0000
  C   C3        1.0  0.3895385365688995  0.6817910261483675  0.46587974782847413  1.0000
  C   C4        1.0  0.6104619973738464  0.5341226414217106  0.31820853040053976  1.0000
  C   C5        1.0  0.5000042222540484  0.6623374652414783  0.3376619447829725  1.0000
  C   C6        1.0  0.4999983848585997  0.44617925906253236  0.5538204335550745  1.0000
  C   C7        1.0  0.2666373612057028  0.589961101906134  0.7122957488817577  1.0000
  C   C8        1.0  0.7333590603707734  0.2877047181522486  0.4100402526349357  1.0000
  C   C9        1.0  0.500000075967897  0.777883659716295  0.22211932366391812  1.0000
  C   C10       1.0  0.10969715822756845  0.42146101110587614  0.4297293048705058  1.0000
  C   C11       1.0  0.8903009988808321  0.570271410320764  0.5785350761116917  1.0000
  C   C12       1.0  0.11299690487933836  0.31438392871713466  0.5389249249768541  1.0000
  C   C13       1.0  0.8870013384565992  0.4610749916728383  0.6856142523981603  1.0000
  C   C14       1.0  0.9999972813666671  0.333493434446325  0.6665065506996443  1.0000
  C   C15       1.0  2.023083084235179e-06  0.5499069670955237  0.45009182993272406  1.0000
  C   C16       1.0  0.2174034796519351  0.3946036699768314  0.29307205058783137  1.0000
  C   C17       1.0  0.7826003258477241  0.7069294125557805  0.6053910356419366  1.0000
  C   C18       1.0  0.9999964912853655  0.21913568322909782  0.7808680783504942  1.0000
  O   O1        1.0  0.2922776757503769  0.48637790685793914  0.8050071627154413  1.0000
  O   O2        1.0  0.7077151560862234  0.1949945368794843  0.5136236063163652  1.0000
  O   O3        1.0  0.14232770378235665  0.7039699456739329  0.730044038159548  1.0000
  O   O4        1.0  0.8576754434619217  0.269959497839679  0.2960287692278101  1.0000
  O   O5        1.0  0.5903905619200458  0.7576454802182584  0.10475506109065678  1.0000
  O   O6        1.0  0.40960985105038344  0.8952470285246225  0.24235567693992985  1.0000
  O   O7        1.0  0.1594168454809335  0.48666588561970053  0.19679703459393497  1.0000
  O   O8        1.0  0.8405875220854495  0.8032041054502345  0.5133301633568196  1.0000
  O   O9        1.0  0.3546803710377091  0.2821399104318729  0.2811151047778467  1.0000
  O   O10       1.0  0.6453222947894374  0.7188844844527795  0.7178567081379301  1.0000
  O   O11       1.0  0.11172943455666477  0.10205820094041944  0.7646931906547608  1.0000
  O   O12       1.0  0.8882635596437466  0.23531388600305556  0.8979443816727727  1.0000
  O   O13       1.0  0.5061944063349413  0.5646568596939691  0.9625361457610001  1.0000
  O   O14       1.0  0.4938096103589942  0.037460898016554715  0.435341828453936  1.0000
  O   O15       1.0  0.41944015740346435  0.28267714723042303  0.03328953234159116  1.0000
  O   O16       1.0  0.5805580260827694  0.9667099621397458  0.7173214577693444  1.0000
  O   O17       1.0  0.9198697373570891  0.40272346716749763  0.04483585932671016  1.0000
  O   O18       1.0  0.08012838781175446  0.9551645643053348  0.5972776117011946  1.0000
  O   O19       1.0  0.019383795662676586  0.6659518035265108  0.9793043479684801  1.0000
  O   O20       1.0  0.9806160254855171  0.020697116746504207  0.33404644743578166  1.0000
  O   O21       1.0  0.24078480137105626  0.0769789938547873  0.0399758207635088  1.0000
  O   O22       1.0  0.759216639923828  0.9600229079545247  0.9230217899954456  1.0000
  O   O23       1.0  0.22415842689238724  0.8396529749548877  0.9829835011443467  1.0000
  O   O24       1.0  0.7758431613555458  0.017016180941851602  0.1603463434470669  1.0000
