data_image0
_chemical_formula_structural       Zn16H40C96S16N16Cl8O52
_chemical_formula_sum              "Zn16 H40 C96 S16 N16 Cl8 O52"
_cell_length_a       19.692942526300843
_cell_length_b       19.67967097724195
_cell_length_c       33.41102812497806
_cell_angle_alpha    79.14833256675294
_cell_angle_beta     79.11513046583553
_cell_angle_gamma    63.88451211042715

_space_group_name_H-M_alt    "P 1"
_space_group_IT_number       1

loop_
  _space_group_symop_operation_xyz
  'x, y, z'

loop_
  _atom_site_type_symbol
  _atom_site_label
  _atom_site_symmetry_multiplicity
  _atom_site_fract_x
  _atom_site_fract_y
  _atom_site_fract_z
  _atom_site_occupancy
  Zn  Zn1       1.0  0.05510314040247981  0.40060124286943477  0.47817525075125633  1.0000
  Zn  Zn2       1.0  0.9839258451274372  0.4833280929308118  0.5603475264791413  1.0000
  Zn  Zn3       1.0  0.05931524179433719  0.5599099516147278  0.4818490459194322  1.0000
  Zn  Zn4       1.0  0.901260402663496  0.5568555575701879  0.47962644655574854  1.0000
  Zn  Zn5       1.0  0.6940485038257407  0.34931262986192724  0.2723265312152279  1.0000
  Zn  Zn6       1.0  0.6892959772182862  0.1897096744891301  0.2666671101065532  1.0000
  Zn  Zn7       1.0  0.768222623576541  0.2678578462156195  0.19056166317549386  1.0000
  Zn  Zn8       1.0  0.8479425621292548  0.19336059979605846  0.27079492317324855  1.0000
  Zn  Zn9       1.0  0.2664469951496287  0.7661547632099613  0.6899985781833848  1.0000
  Zn  Zn10      1.0  0.3489194347331335  0.6955840624842153  0.7717951797462561  1.0000
  Zn  Zn11      1.0  0.1920900456523356  0.8494148972430151  0.7708885819844938  1.0000
  Zn  Zn12      1.0  0.1905718858377128  0.6901579066790617  0.768593377137023  1.0000
  Zn  Zn13      1.0  0.5596938071131489  0.06074496298041521  0.9837247558291223  1.0000
  Zn  Zn14      1.0  0.4017693666270575  0.05453825725697205  0.9778885384791707  1.0000
  Zn  Zn15      1.0  0.557610665048024  0.9006008963789757  0.9793969123772043  1.0000
  Zn  Zn16      1.0  0.4813227636999642  0.9818633450945882  0.05970348794184588  1.0000
  H   H1        1.0  0.7504705334566067  0.44801209384700513  0.3488519142528618  1.0000
  H   H2        1.0  0.9994292626780987  0.3023937265377085  0.40115767005330133  1.0000
  H   H3        1.0  0.2006917236363464  0.6996635399453339  0.6017913183539249  1.0000
  H   H4        1.0  0.049777228880500984  0.5494789718625414  0.6487304542792386  1.0000
  H   H5        1.0  0.6473733332282662  0.14896136276374242  0.04996416921719769  1.0000
  H   H6        1.0  0.60186440371681  0.10076529469102978  0.20056006404796992  1.0000
  H   H7        1.0  0.30220639338300254  0.9998238020015505  0.9008495287231993  1.0000
  H   H8        1.0  0.4481550598869859  0.750596110873623  0.8487632969718959  1.0000
  H   H9        1.0  0.3152046597411342  0.5546216970775433  0.3955798800541146  1.0000
  H   H10       1.0  0.23363487192982288  0.5520679630572899  0.4261278793243903  1.0000
  H   H11       1.0  0.4252153268330615  0.2029658441264814  0.3449898696470939  1.0000
  H   H12       1.0  0.5137639817722501  0.1995488507307711  0.3217290153856426  1.0000
  H   H13       1.0  0.7649844657447387  0.5245932593151182  0.6857651107149108  1.0000
  H   H14       1.0  0.8347453504274114  0.5172765693103472  0.6438009774645792  1.0000
  H   H15       1.0  0.4845281394775681  0.7035163462407611  0.5644514958994193  1.0000
  H   H16       1.0  0.41533638658182065  0.7272385367868279  0.6068071172326484  1.0000
  H   H17       1.0  0.046677916757282396  0.2655712623662296  0.6856767294713748  1.0000
  H   H18       1.0  0.022887700520115597  0.33468513381870924  0.6433426597252917  1.0000
  H   H19       1.0  0.22530603065357713  0.9849381302442455  0.5643360433269606  1.0000
  H   H20       1.0  0.23286150262561012  0.9150539353327218  0.6062785754525989  1.0000
  H   H21       1.0  0.7435247724223116  0.8040572427821289  0.38499952278212396  1.0000
  H   H22       1.0  0.7957755270151453  0.7253417883862096  0.41789848646375566  1.0000
  H   H23       1.0  0.014078940599141297  0.9359110389290849  0.3557986415680005  1.0000
  H   H24       1.0  0.9550484015080016  0.022741064245550932  0.330563499766221  1.0000
  H   H25       1.0  0.7232103737623845  0.4848348381865151  0.06501124657187057  1.0000
  H   H26       1.0  0.7328543050925305  0.4146160628006401  0.10711775341398773  1.0000
  H   H27       1.0  0.5443706927112542  0.7663109574307543  0.18594679604127862  1.0000
  H   H28       1.0  0.521218859860788  0.8353780118592056  0.14339666922679584  1.0000
  H   H29       1.0  0.14527882348770757  0.08720285930242258  0.22559723318055802  1.0000
  H   H30       1.0  0.04732354402280949  0.11842356544304523  0.2388358983243748  1.0000
  H   H31       1.0  0.1038596914161829  0.1852173575157892  0.024578902857690814  1.0000
  H   H32       1.0  0.2018259801298541  0.13718164342877506  0.010565263998636  1.0000
  H   H33       1.0  0.5162284685050622  0.4351130465824156  0.85577967470536  1.0000
  H   H34       1.0  0.4576609112446804  0.521563891687805  0.8300739928257315  1.0000
  H   H35       1.0  0.24524276671397158  0.3040534213843173  0.8839645051464584  1.0000
  H   H36       1.0  0.2967032183951304  0.22573194268145605  0.9171098571255101  1.0000
  H   H37       1.0  0.9242624822827067  0.7039257086536638  0.8449624041334616  1.0000
  H   H38       1.0  0.013007985377072397  0.7000431399454358  0.8219292399831701  1.0000
  H   H39       1.0  0.815600825842388  0.0559108565078574  0.8951709839541451  1.0000
  H   H40       1.0  0.7340490852999935  0.05360946122855374  0.9258126611664323  1.0000
  C   C1        1.0  0.0601582829094554  0.3158030520622149  0.5624414121503919  1.0000
  C   C2        1.0  0.06935861832738509  0.5700402517334028  0.5684341602805175  1.0000
  C   C3        1.0  0.18488694318391197  0.4385439651296891  0.4385008078479444  1.0000
  C   C4        1.0  0.937198293170155  0.6853278129950195  0.43821296484297523  1.0000
  C   C5        1.0  0.9290640161340845  0.43325451142057875  0.43097855487702225  1.0000
  C   C6        1.0  0.8159705218137318  0.5622828386481588  0.5630442641629827  1.0000
  C   C7        1.0  0.5650941558669018  0.3103320521085564  0.3120985374808356  1.0000
  C   C8        1.0  0.6826458231364824  0.18061472537461026  0.18041796111101155  1.0000
  C   C9        1.0  0.6885447363967002  0.4346240572242052  0.18836742527969363  1.0000
  C   C10       1.0  0.9359772523384463  0.1874351033489034  0.1887969571327872  1.0000
  C   C11       1.0  0.8214575450111994  0.31764854393827585  0.318461143750369  1.0000
  C   C12       1.0  0.8118053841189337  0.06496696055937415  0.3117175053403614  1.0000
  C   C13       1.0  0.4341733508241177  0.6893160576570382  0.6877508508568296  1.0000
  C   C14       1.0  0.31753274380857016  0.8209701476734637  0.8187493529531052  1.0000
  C   C15       1.0  0.18720276510713055  0.9339401205963117  0.6871393168935143  1.0000
  C   C16       1.0  0.06451853117193448  0.8106400431090535  0.8121838355460084  1.0000
  C   C17       1.0  0.1803550529194382  0.6798726570784125  0.6820855297757973  1.0000
  C   C18       1.0  0.3137062944202071  0.5652394374701828  0.8120750285426225  1.0000
  C   C19       1.0  0.4370574754972623  0.18511644526295618  0.9385859602301707  1.0000
  C   C20       1.0  0.4327351704758442  0.9296241374920412  0.9308203024927265  1.0000
  C   C21       1.0  0.6854304363802725  0.9400038071151043  0.9392025675325684  1.0000
  C   C22       1.0  0.5608116710479294  0.8149221356490628  0.06250413781095435  1.0000
  C   C23       1.0  0.5674778130445404  0.0682124414012151  0.07010935963189274  1.0000
  C   C24       1.0  0.3136717205384371  0.06129312472852895  0.0604658646309986  1.0000
  C   C25       1.0  0.8983447393351794  0.40643462788593615  0.402176251076277  1.0000
  C   C26       1.0  0.851922919059369  0.3443420826939916  0.34746787365534  1.0000
  C   C27       1.0  0.8269917784259347  0.4476467413604441  0.3870969134616615  1.0000
  C   C28       1.0  0.9230653428442535  0.30297262013547777  0.3627431040341945  1.0000
  C   C29       1.0  0.8055140219684771  0.41617677472488873  0.3603659339255358  1.0000
  C   C30       1.0  0.9446128009921605  0.33444173247529124  0.3894202076842319  1.0000
  C   C31       1.0  0.09949032720014368  0.5995864554594804  0.5961506385089378  1.0000
  C   C32       1.0  0.1505342896439501  0.6500072063758251  0.6543627046039617  1.0000
  C   C33       1.0  0.1429010889802456  0.6426028985609236  0.5829789655659994  1.0000
  C   C34       1.0  0.10729857391998371  0.6068296072509438  0.667540317194664  1.0000
  C   C35       1.0  0.16721421365839004  0.6666085296474052  0.6120121675268776  1.0000
  C   C36       1.0  0.08298828718812247  0.5828160320091771  0.6385121581982105  1.0000
  C   C37       1.0  0.30408091310033564  0.45406764153665347  0.40170200949189194  1.0000
  C   C38       1.0  0.4464406491573171  0.29430122901948863  0.34952065669254745  1.0000
  C   C39       1.0  0.2587455982678861  0.4132470672676761  0.4144283104195452  1.0000
  C   C40       1.0  0.49185484107273686  0.3349846886819918  0.3368949389720797  1.0000
  C   C41       1.0  0.3775551412487417  0.3387833944066331  0.37301552722233566  1.0000
  C   C42       1.0  0.3724516787791643  0.41002575593347496  0.3776939317174737  1.0000
  C   C43       1.0  0.7264572312000367  0.5768027030240219  0.6301513919854286  1.0000
  C   C44       1.0  0.5236934713173226  0.6752091016708447  0.620628415613666  1.0000
  C   C45       1.0  0.7420920994517457  0.5872339984642565  0.5871710840901726  1.0000
  C   C46       1.0  0.5080774036297342  0.6651218997616438  0.6636238242594743  1.0000
  C   C47       1.0  0.6039112452521066  0.6420161718033698  0.6087139468528591  1.0000
  C   C48       1.0  0.6462181377645706  0.60868985101812  0.6419949358234618  1.0000
  C   C49       1.0  0.07460716297429569  0.22628796620345787  0.629539467451643  1.0000
  C   C50       1.0  0.17316464169020657  0.023416036769120296  0.6200142935468804  1.0000
  C   C51       1.0  0.08458454479240632  0.24183075036627605  0.5865378500264881  1.0000
  C   C52       1.0  0.16254942223304877  0.00781192586998002  0.6629970124321858  1.0000
  C   C53       1.0  0.14122259310884286  0.10369377169177342  0.6081657370759359  1.0000
  C   C54       1.0  0.1078288956114122  0.1460617056752582  0.6414573510626198  1.0000
  C   C55       1.0  0.8428799193487108  0.800712152664957  0.39790013317578854  1.0000
  C   C56       1.0  0.9051651096453167  0.9502813896667919  0.35302852074011076  1.0000
  C   C57       1.0  0.912708256938117  0.7590940063857874  0.4141365402682453  1.0000
  C   C58       1.0  0.8354128045190308  0.9919936659798765  0.3366769616634003  1.0000
  C   C59       1.0  0.9075010808276005  0.8799169957353284  0.3749532981048135  1.0000
  C   C60       1.0  0.8412004469628939  0.8703296224293878  0.3751505641444411  1.0000
  C   C61       1.0  0.6544345795893277  0.1533268039274987  0.1506006657940659  1.0000
  C   C62       1.0  0.5953729772320386  0.09585080395742553  0.09991970003027008  1.0000
  C   C63       1.0  0.6670708787321118  0.16696110843293613  0.1073874875355116  1.0000
  C   C64       1.0  0.5824850573004525  0.08248459326151894  0.14313503410470224  1.0000
  C   C65       1.0  0.6376393105394341  0.1382896165833074  0.08324044593927481  1.0000
  C   C66       1.0  0.6119429226392228  0.1111104464172072  0.16728207342637796  1.0000
  C   C67       1.0  0.6733798377690546  0.5232616933644252  0.12102575318575501  1.0000
  C   C68       1.0  0.5743388724706904  0.7264653154457008  0.12980336537132334  1.0000
  C   C69       1.0  0.6629596393295998  0.5082624012199161  0.16410214169836482  1.0000
  C   C70       1.0  0.5848190858810723  0.7413033123301034  0.08675800554514272  1.0000
  C   C71       1.0  0.6075997817127288  0.6463039467326724  0.1419936932924628  1.0000
  C   C72       1.0  0.6412040881452512  0.6034721323887308  0.10890849757348062  1.0000
  C   C73       1.0  0.0811910025577305  0.12305112075331685  0.1777659539452401  1.0000
  C   C74       1.0  0.168354288349164  0.1250845808898049  0.07163361430583139  1.0000
  C   C75       1.0  0.0090394926578625  0.16254917640014105  0.163958449762525  1.0000
  C   C76       1.0  0.2405919897525876  0.08532175099695391  0.08532638527802308  1.0000
  C   C77       1.0  0.11050998598071968  0.13926386844736532  0.10583376581843139  1.0000
  C   C78       1.0  0.13922172214715542  0.11030133616188213  0.14364367153850569  1.0000
  C   C79       1.0  0.3442004345860923  0.8517403567326909  0.8475733555087358  1.0000
  C   C80       1.0  0.40612561043828066  0.8986880146202549  0.902060359562597  1.0000
  C   C81       1.0  0.30270754332617855  0.923133208460392  0.8626916416987669  1.0000
  C   C82       1.0  0.4475682749348024  0.8272376797437317  0.88700195713718  1.0000
  C   C83       1.0  0.3342243923988519  0.9448165438898855  0.8892758324198057  1.0000
  C   C84       1.0  0.4160914834363467  0.80557830329019  0.8603632235047839  1.0000
  C   C85       1.0  0.4071727206656348  0.4497307070227023  0.8530345028869489  1.0000
  C   C86       1.0  0.3434948244403913  0.30113442993609846  0.8979734896257198  1.0000
  C   C87       1.0  0.33750628231261  0.4918538175905525  0.8366718415196601  1.0000
  C   C88       1.0  0.412993341410683  0.25904825083537725  0.9144398888928861  1.0000
  C   C89       1.0  0.34229942120629886  0.37059803879220965  0.8752903603046178  1.0000
  C   C90       1.0  0.4088901795793092  0.3796479126658952  0.8751596789773614  1.0000
  C   C91       1.0  0.9457671736441994  0.7950308262680398  0.8495904687152134  1.0000
  C   C92       1.0  0.8041978814212313  0.9554607774097763  0.9015501685898285  1.0000
  C   C93       1.0  0.9913026551351506  0.835568962443496  0.8368173808356475  1.0000
  C   C94       1.0  0.7587830390300496  0.9148938230545414  0.9146206578562328  1.0000
  C   C95       1.0  0.8722213711385932  0.9111429822792023  0.8774478449951671  1.0000
  C   C96       1.0  0.8769821749537741  0.8398725424433454  0.8730273269105239  1.0000
  S   S1        1.0  0.2997801244167491  0.3229255992824349  0.3976800972620538  1.0000
  S   S2        1.0  0.45111464752029906  0.4250787918729627  0.3539046033759162  1.0000
  S   S3        1.0  0.660234239236324  0.6357450386024157  0.5621380984891218  1.0000
  S   S4        1.0  0.5899430014579748  0.6169060212766552  0.6886431033766698  1.0000
  S   S5        1.0  0.13290458849666462  0.15989204091429343  0.5615098818448416  1.0000
  S   S6        1.0  0.11390724676653718  0.08978183146617622  0.68804763050953  1.0000
  S   S7        1.0  0.9739494090432003  0.8047766644662461  0.40219636553609206  1.0000
  S   S8        1.0  0.7741682877950635  0.9462574784304895  0.3486361795057178  1.0000
  S   S9        1.0  0.613964704173469  0.5906218967401812  0.18878218672272598  1.0000
  S   S10       1.0  0.6334772001744469  0.6590176238741992  0.06206196685115368  1.0000
  S   S11       1.0  0.012501389625207096  0.18273266060851506  0.11054965943723968  1.0000
  S   S12       1.0  0.23722387880897594  0.06508273448648792  0.13877320842727406  1.0000
  S   S13       1.0  0.27564464164508  0.4467957158454112  0.8486841351580948  1.0000
  S   S14       1.0  0.4746658347461831  0.304274052200782  0.9026921534441641  1.0000
  S   S15       1.0  0.9508807607243028  0.9259064494705883  0.8534427936432323  1.0000
  S   S16       1.0  0.7991827153546182  0.824449907753873  0.8980558978232978  1.0000
  N   N1        1.0  0.2867946939022943  0.524180828196073  0.4117123896089865  1.0000
  N   N2        1.0  0.4660860185644892  0.22217777211568554  0.3417098544406798  1.0000
  N   N3        1.0  0.7799869470332439  0.5435004353995652  0.6566856325790766  1.0000
  N   N4        1.0  0.4702612408911334  0.7134578459301297  0.5941793872278325  1.0000
  N   N5        1.0  0.036313463727914594  0.27981005787835755  0.6560187188225227  1.0000
  N   N6        1.0  0.20664068886028988  0.9698552509338396  0.5934541354870079  1.0000
  N   N7        1.0  0.7846083446486247  0.7790818274149771  0.4039205054824109  1.0000
  N   N8        1.0  0.9613547974309139  0.9741533951412861  0.34964010389976613  1.0000
  N   N9        1.0  0.7070843139528903  0.46965155908502965  0.09459872651744658  1.0000
  N   N10       1.0  0.536215558012877  0.7802744952339471  0.15598123528329916  1.0000
  N   N11       1.0  0.0938963579867647  0.09834978765003652  0.2177629494677689  1.0000
  N   N12       1.0  0.15527254530918808  0.1449617868999198  0.031624717590915515  1.0000
  N   N13       1.0  0.46361830760501027  0.47330813933618987  0.8494101851464394  1.0000
  N   N14       1.0  0.28460297892621605  0.2801243565568328  0.9039326342093333  1.0000
  N   N15       1.0  0.9653029253387757  0.7228615500679749  0.8418752694813635  1.0000
  N   N16       1.0  0.7872220368718671  0.025570030410016004  0.9114664408668531  1.0000
  Cl  Cl1       1.0  0.7615959810798641  0.5365684720937339  0.39971623475184254  1.0000
  Cl  Cl2       1.0  0.9876674289234157  0.21304583893453352  0.3510826184978555  1.0000
  Cl  Cl3       1.0  0.16970150380540622  0.6682749318759419  0.5322295873053733  1.0000
  Cl  Cl4       1.0  0.08190429636565  0.5796980736479114  0.7183119555541637  1.0000
  Cl  Cl5       1.0  0.7171234446319019  0.21837367055972118  0.08110882328768554  1.0000
  Cl  Cl6       1.0  0.5309082499544431  0.03251942581927372  0.16946215753855404  1.0000
  Cl  Cl7       1.0  0.2134403804428828  0.9878640998553507  0.8505152523121495  1.0000
  Cl  Cl8       1.0  0.536911931094771  0.7627462100766491  0.8991057469973568  1.0000
  O   O1        1.0  0.00017712353638899995  0.4992334154335367  0.5004822982921482  1.0000
  O   O2        1.0  0.07562396879203702  0.3174075328011767  0.523320301825983  1.0000
  O   O3        1.0  0.03498456651067979  0.5283298565892097  0.5860427306978622  1.0000
  O   O4        1.0  0.1575611271865256  0.505529433385938  0.4504272114888295  1.0000
  O   O5        1.0  0.024546041113673294  0.37480345522848074  0.582333398331329  1.0000
  O   O6        1.0  0.15175602567629906  0.39323303020010764  0.4462064109569894  1.0000
  O   O7        1.0  0.0800033805990736  0.5888027895494119  0.5301198627600954  1.0000
  O   O8        1.0  0.004852239281667901  0.6554082346128425  0.448600873982393  1.0000
  O   O9        1.0  0.8885006395474092  0.4993678635655527  0.4416982511127401  1.0000
  O   O10       1.0  0.8890938186052963  0.6548175935008659  0.44743993428203055  1.0000
  O   O11       1.0  0.993941650685123  0.3869624762190896  0.4422123383764145  1.0000
  O   O12       1.0  0.8752509519936211  0.5273100623749374  0.5826588782478339  1.0000
  O   O13       1.0  0.8171504120257821  0.5766888921179427  0.523888979824072  1.0000
  O   O14       1.0  0.7490044882358545  0.250250102503877  0.250465181849421  1.0000
  O   O15       1.0  0.5971067102311807  0.3566024723226845  0.30374504329619617  1.0000
  O   O16       1.0  0.6617916561687167  0.16637616758689683  0.21846970069464794  1.0000
  O   O17       1.0  0.7238787322363576  0.37554936713148396  0.16853589027082452  1.0000
  O   O18       1.0  0.5926656725545242  0.24334201671685923  0.300173758873072  1.0000
  O   O19       1.0  0.6747203487938406  0.4330555584221616  0.22758399080691308  1.0000
  O   O20       1.0  0.7247451314273688  0.21519670635915844  0.16565350178753852  1.0000
  O   O21       1.0  0.8767033040683928  0.22624526979438295  0.17012777583098426  1.0000
  O   O22       1.0  0.8649772639629844  0.25450471576478867  0.3048519657520785  1.0000
  O   O23       1.0  0.935856337847305  0.16877765422326965  0.22806489853869744  1.0000
  O   O24       1.0  0.7540774878728128  0.3611488122423907  0.3098192505320725  1.0000
  O   O25       1.0  0.7463323096235045  0.09283741890851613  0.29879273554510627  1.0000
  O   O26       1.0  0.8589900986209216  0.0966585229561474  0.304160611746866  1.0000
  O   O27       1.0  0.2505827001464808  0.7499446819547869  0.7498812825395831  1.0000
  O   O28       1.0  0.3751655588063442  0.7254413203889176  0.6680025251057272  1.0000
  O   O29       1.0  0.36366801701480966  0.7555757302067505  0.8078713188069102  1.0000
  O   O30       1.0  0.1722173922637324  0.9328228564125352  0.7262553324647669  1.0000
  O   O31       1.0  0.432684716993016  0.673054286254235  0.7268575707511147  1.0000
  O   O32       1.0  0.2225291084241192  0.8745710029742425  0.6675024798184523  1.0000
  O   O33       1.0  0.2519731395057576  0.8617899433990317  0.8075688831391048  1.0000
  O   O34       1.0  0.09583674395624797  0.8574995061004812  0.8029260307474502  1.0000
  O   O35       1.0  0.16186399448392308  0.6689402221376993  0.7204148764676644  1.0000
  O   O36       1.0  0.0930917222085554  0.7428159618509653  0.8012517216066327  1.0000
  O   O37       1.0  0.22199469225680704  0.7143121758085158  0.6644748362946727  1.0000
  O   O38       1.0  0.3606421047666331  0.5971627395251885  0.804168662785841  1.0000
  O   O39       1.0  0.2475696112253374  0.5931982919489229  0.7998697759731428  1.0000
  O   O40       1.0  0.4995637789533872  0.0006282157053192266  0.9998223777564091  1.0000
  O   O41       1.0  0.5038596901291612  0.15584643964243827  0.949971578012466  1.0000
  O   O42       1.0  0.388463124184568  0.9969586610415603  0.9397244590244399  1.0000
  O   O43       1.0  0.65330816069563  0.8938354052491989  0.9473001151848734  1.0000
  O   O44       1.0  0.3893292240601339  0.15407485623556746  0.9467605610346935  1.0000
  O   O45       1.0  0.6576776970828033  0.007004403298381688  0.9511590276663782  1.0000
  O   O46       1.0  0.4962357537827202  0.8870685289644132  0.9439938218095846  1.0000
  O   O47       1.0  0.578114805997771  0.8162693501455466  0.02344318209258491  1.0000
  O   O48       1.0  0.5317294741273243  0.027207479369060605  0.08494347405673612  1.0000
  O   O49       1.0  0.5236628156855189  0.8741354850084877  0.08206953165976222  1.0000
  O   O50       1.0  0.5824941839971344  0.08831508267594765  0.032047891856954905  1.0000
  O   O51       1.0  0.3139286836729553  0.07661989046476948  0.0210129019370768  1.0000
  O   O52       1.0  0.37293378515522585  0.026575775186600557  0.07948877625457129  1.0000
