data_image0
_chemical_formula_structural       Na2H22Pd2C14N4O16
_chemical_formula_sum              "Na2 H22 Pd2 C14 N4 O16"
_cell_length_a       7.296289033352348
_cell_length_b       7.594891708233183
_cell_length_c       11.049342878814176
_cell_angle_alpha    103.88716108322626
_cell_angle_beta     107.7260504556275
_cell_angle_gamma    92.3535305933626

_space_group_name_H-M_alt    "P 1"
_space_group_IT_number       1

loop_
  _space_group_symop_operation_xyz
  'x, y, z'

loop_
  _atom_site_type_symbol
  _atom_site_label
  _atom_site_symmetry_multiplicity
  _atom_site_fract_x
  _atom_site_fract_y
  _atom_site_fract_z
  _atom_site_occupancy
  Na  Na1       1.0  0.2600900107010418  0.261446585343883  0.035988076934785264  1.0000
  Na  Na2       1.0  0.7399292040514214  0.7385900867038869  0.9640306449461276  1.0000
  H   H1        1.0  0.7109032167901007  0.3771862589070381  0.07744799941494313  1.0000
  H   H2        1.0  0.2890741628372737  0.622814396505781  0.9225458112972404  1.0000
  H   H3        1.0  0.42045379491678164  0.6585671675565123  0.11416969275652629  1.0000
  H   H4        1.0  0.5795681359369098  0.34144476756462444  0.8858385247633931  1.0000
  H   H5        1.0  0.1929154372692851  0.6439356416493499  0.08702384976673737  1.0000
  H   H6        1.0  0.807085923904012  0.356084232669062  0.9129759842040882  1.0000
  H   H7        1.0  0.43549328461211456  0.948977722619837  0.1367029157722541  1.0000
  H   H8        1.0  0.5645257892875436  0.051033913447170696  0.8632929085407567  1.0000
  H   H9        1.0  0.22031432618658192  0.947037588560825  0.1373668782884607  1.0000
  H   H10       1.0  0.7796938071217667  0.0529906065940651  0.8626392346228682  1.0000
  H   H11       1.0  0.4722409718339905  0.2844589513297109  0.2927394097443567  1.0000
  H   H12       1.0  0.527732547701966  0.7154997607175843  0.707264346834691  1.0000
  H   H13       1.0  0.597615853916274  0.4647777405698433  0.4356372243035621  1.0000
  H   H14       1.0  0.4023780219727727  0.5352287583234768  0.5643726042807273  1.0000
  H   H15       1.0  0.5899080086199293  0.057692008382339614  0.4255993786935902  1.0000
  H   H16       1.0  0.4100935095834617  0.9423194570407176  0.5744471633484451  1.0000
  H   H17       1.0  0.4136574719942774  0.19108675458404892  0.4661419064670511  1.0000
  H   H18       1.0  0.5863117999665662  0.8089077396176519  0.5338791776791324  1.0000
  H   H19       1.0  0.6763382709492021  0.39983571263658746  0.6584312970657891  1.0000
  H   H20       1.0  0.3236961257559443  0.6000088119068749  0.3415165241303768  1.0000
  H   H21       1.0  0.6437881715034808  0.17231655448683367  0.6683300098215597  1.0000
  H   H22       1.0  0.3562145981088137  0.8277503423022736  0.3317018005751535  1.0000
  Pd  Pd1       1.0  0.00963425716759051  0.2557754020492808  0.4904155073818615  1.0000
  Pd  Pd2       1.0  0.990356144388862  0.744191323242532  0.5095811461151667  1.0000
  C   C1        1.0  0.005422469267657003  0.3092765760110154  0.24488657504495853  1.0000
  C   C2        1.0  0.9945285648653199  0.6907321788884104  0.7551058503224725  1.0000
  C   C3        1.0  0.8019357694563994  0.3234134816576884  0.2515528156018689  1.0000
  C   C4        1.0  0.19813286190665746  0.6765682160233552  0.7484403088764466  1.0000
  C   C5        1.0  0.593702322857233  0.3199003980441404  0.38534182936434996  1.0000
  C   C6        1.0  0.40630122608079944  0.680147428886812  0.614631984377844  1.0000
  C   C7        1.0  0.5653279012646167  0.19672138921666962  0.46985138538615695  1.0000
  C   C8        1.0  0.4346482846330774  0.8033263160971132  0.5301186634497981  1.0000
  C   C9        1.0  0.6922970264145151  0.2574429920513452  0.6136813171267547  1.0000
  C   C10       1.0  0.30765675815889193  0.7425172915077242  0.3862752271541865  1.0000
  C   C11       1.0  0.01436438118396671  0.21987217101245451  0.741146750899965  1.0000
  C   C12       1.0  0.9856091019415488  0.7800636733612264  0.25886795423147646  1.0000
  C   C13       1.0  0.222576816171987  0.20926786774686687  0.7382388347730923  1.0000
  C   C14       1.0  0.7773986609752229  0.7906348467052525  0.26169875430586836  1.0000
  N   N1        1.0  0.7755586958392513  0.30006207220613845  0.3578826278413771  1.0000
  N   N2        1.0  0.22450608324046334  0.6998542727231934  0.6421086877575206  1.0000
  N   N3        1.0  0.8958253970873002  0.24294107027883877  0.6301129377743564  1.0000
  N   N4        1.0  0.10421359218890563  0.7572666746772256  0.3699470427261248  1.0000
  O   O1        1.0  0.12650479283908572  0.2711521292355883  0.3455027278654157  1.0000
  O   O2        1.0  0.8734071744271577  0.7288552413677678  0.6544906024467281  1.0000
  O   O3        1.0  0.04350890380308672  0.3372155853019052  0.148531065487596  1.0000
  O   O4        1.0  0.9564575543866312  0.6627547670894174  0.851447708066452  1.0000
  O   O5        1.0  0.66508225270848  0.3623692794498155  0.15558413456137998  1.0000
  O   O6        1.0  0.33497044416349553  0.6375901701184288  0.8444466756198423  1.0000
  O   O7        1.0  0.9724459016182296  0.2107699822176059  0.8435456460882164  1.0000
  O   O8        1.0  0.02755399361124232  0.7892635823427981  0.15651483611188868  1.0000
  O   O9        1.0  0.25305027195280166  0.2201056430052617  0.6313867853832136  1.0000
  O   O10       1.0  0.7470003688182703  0.7798808013845003  0.36857807365825573  1.0000
  O   O11       1.0  0.3544448429200529  0.19560760908311883  0.8392113275249001  1.0000
  O   O12       1.0  0.6455559156296218  0.8044658648515791  0.1608111321200809  1.0000
  O   O13       1.0  0.2954305261112539  0.5853639788218246  0.0558746254222626  1.0000
  O   O14       1.0  0.7045766002636072  0.414655865218272  0.9441236591359042  1.0000
  O   O15       1.0  0.3199668186128832  0.011963743711398002  0.11519080946284528  1.0000
  O   O16       1.0  0.6800320066549048  0.9880354803393273  0.8847989890105054  1.0000
