data_image0
_chemical_formula_structural       Cd4H40C24S8N16
_chemical_formula_sum              "Cd4 H40 C24 S8 N16"
_cell_length_a       7.651580831168225
_cell_length_b       7.726189722055162
_cell_length_c       16.596438241350032
_cell_angle_alpha    90.00039266433056
_cell_angle_beta     89.99929852769814
_cell_angle_gamma    90.00009788988864

_space_group_name_H-M_alt    "P 1"
_space_group_IT_number       1

loop_
  _space_group_symop_operation_xyz
  'x, y, z'

loop_
  _atom_site_type_symbol
  _atom_site_label
  _atom_site_symmetry_multiplicity
  _atom_site_fract_x
  _atom_site_fract_y
  _atom_site_fract_z
  _atom_site_occupancy
  Cd  Cd1       1.0  0.9103113329942262  0.33059662400000167  0.1222794635548752  1.0000
  Cd  Cd2       1.0  0.5896946185345443  0.6694084348051844  0.6222786585798661  1.0000
  Cd  Cd3       1.0  0.08971088940176489  0.8305918857952148  0.37772135082544633  1.0000
  Cd  Cd4       1.0  0.41030849797697755  0.16942230859523014  0.8777144797947828  1.0000
  H   H1        1.0  0.5610613572668797  0.9827715393545658  0.10993923151125533  1.0000
  H   H2        1.0  0.9389514321797139  0.017228173732632992  0.6099298582813617  1.0000
  H   H3        1.0  0.4389637484961071  0.4827571542707857  0.3900669239251471  1.0000
  H   H4        1.0  0.06103442473371251  0.5172390884964172  0.8900657720469243  1.0000
  H   H5        1.0  0.4814531045530615  0.18044740002302712  0.1476208842754261  1.0000
  H   H6        1.0  0.018551026102969107  0.8195584757991977  0.6476101789990097  1.0000
  H   H7        1.0  0.5185583964290857  0.6804352561250864  0.35238303152058853  1.0000
  H   H8        1.0  0.9814432079310222  0.3195496466942557  0.8523858833598938  1.0000
  H   H9        1.0  0.11097360717693765  0.9546177654876611  0.1377037343711507  1.0000
  H   H10       1.0  0.389021618350796  0.04538409224621628  0.6377230796485378  1.0000
  H   H11       1.0  0.8890279242668413  0.4546011536840736  0.362293286701835  1.0000
  H   H12       1.0  0.6109734367003697  0.5453838843641916  0.8622865053826418  1.0000
  H   H13       1.0  0.3373861343154304  0.7329086580785782  0.9328094139832788  1.0000
  H   H14       1.0  0.16260445380661542  0.2671101714407412  0.43283078549140447  1.0000
  H   H15       1.0  0.6625909563120944  0.23290576486532893  0.5671821341340504  1.0000
  H   H16       1.0  0.8373954384290274  0.7671179561787225  0.0671752345662924  1.0000
  H   H17       1.0  0.11157545349855272  0.7788741351192099  0.9220476273143066  1.0000
  H   H18       1.0  0.3884167059349863  0.22114195890578964  0.4220722920273517  1.0000
  H   H19       1.0  0.8883899562639714  0.27885364039791216  0.577944680649388  1.0000
  H   H20       1.0  0.6115844117515864  0.7211404586721031  0.0779353783160133  1.0000
  H   H21       1.0  0.4526193760772588  0.06581094673449427  0.2840705346824492  1.0000
  H   H22       1.0  0.04738532253907831  0.9341929090041885  0.7840600467985582  1.0000
  H   H23       1.0  0.5473906148576049  0.5657918103116085  0.2159353989552812  1.0000
  H   H24       1.0  0.9526051938232172  0.43418216961295275  0.7159364078680215  1.0000
  H   H25       1.0  0.431184635500678  0.8658232842151532  0.23165469764347082  1.0000
  H   H26       1.0  0.06882788567269672  0.1341837388384803  0.7316431495460451  1.0000
  H   H27       1.0  0.568828500822626  0.36581003986642446  0.2683492499964331  1.0000
  H   H28       1.0  0.9311568715419727  0.6341672441951471  0.7683492657481426  1.0000
  H   H29       1.0  0.712233915334771  0.8697329336407119  0.3246738106091556  1.0000
  H   H30       1.0  0.7877762114617328  0.13025806236508689  0.8246723691700312  1.0000
  H   H31       1.0  0.28777792103667826  0.36972442816302464  0.17532713772771305  1.0000
  H   H32       1.0  0.2122098457548418  0.6302585285210891  0.67531822509811  1.0000
  H   H33       1.0  0.0969798521731207  0.6593681709376394  0.056287007453065016  1.0000
  H   H34       1.0  0.4029912354401405  0.34064422400935945  0.5563127011814545  1.0000
  H   H35       1.0  0.903004166254114  0.15935010505089756  0.4437084007343516  1.0000
  H   H36       1.0  0.5970056496532054  0.8406412216342785  0.943694881578118  1.0000
  H   H37       1.0  0.3151149387707265  0.7225924287793076  0.0794914329669183  1.0000
  H   H38       1.0  0.18486080633588386  0.27740345707022834  0.5795170284440871  1.0000
  H   H39       1.0  0.6848652710012787  0.22258015842344742  0.4204969611397048  1.0000
  H   H40       1.0  0.8151385805585891  0.7774095571262049  0.9204909404410985  1.0000
  C   C1        1.0  0.19506789859157445  0.05558143214975078  0.0274782909713167  1.0000
  C   C2        1.0  0.3049300354147563  0.9444176264556318  0.5274927874811369  1.0000
  C   C3        1.0  0.8049446882160896  0.5555636340629844  0.47251495433624074  1.0000
  C   C4        1.0  0.695080102738345  0.4444267916922653  0.9725145478514039  1.0000
  C   C5        1.0  0.5666273858785902  0.07098352120716095  0.1620855905247893  1.0000
  C   C6        1.0  0.9333893500188142  0.9290337296291181  0.6620697307571604  1.0000
  C   C7        1.0  0.43339176267367924  0.5709671567252168  0.3379191557135499  1.0000
  C   C8        1.0  0.06660377115585452  0.42902578551770876  0.8379176681668385  1.0000
  C   C9        1.0  0.8119574450837135  0.03370971092161308  0.23621996647988652  1.0000
  C   C10       1.0  0.6880535482543878  0.9663085521027309  0.7362201834250044  1.0000
  C   C11       1.0  0.18805118204069518  0.5336932247679512  0.2637876649270723  1.0000
  C   C12       1.0  0.3119435596096097  0.4663064711580772  0.7637763811419163  1.0000
  C   C13       1.0  0.22855999844765765  0.8058360276522902  0.9590781556705397  1.0000
  C   C14       1.0  0.27143517184790517  0.1942025750083828  0.4591040403258192  1.0000
  C   C15       1.0  0.771445973469554  0.3057941260953425  0.5409220774079346  1.0000
  C   C16       1.0  0.7285724326815244  0.6941942903311612  0.040905345411594914  1.0000
  C   C17       1.0  0.5172883972438458  0.977610732349447  0.24085479455774111  1.0000
  C   C18       1.0  0.9827054924346825  0.022406299536420687  0.7408403532325708  1.0000
  C   C19       1.0  0.48272885787093145  0.4776011035555142  0.2591507407104815  1.0000
  C   C20       1.0  0.017265997565942805  0.522381703254865  0.7591504744876333  1.0000
  C   C21       1.0  0.19411552724280776  0.7620397609969415  0.04805921954068992  1.0000
  C   C22       1.0  0.30585576264883235  0.23797252156433044  0.5480761130605245  1.0000
  C   C23       1.0  0.8058882768589231  0.26204106203770994  0.45193895013621  1.0000
  C   C24       1.0  0.6941383267739526  0.7379659086151801  0.9519256954900046  1.0000
  S   S1        1.0  0.19553964864049087  0.2757534842178798  0.047250378447792216  1.0000
  S   S2        1.0  0.30447478968928726  0.7242639644126071  0.5472496633981905  1.0000
  S   S3        1.0  0.8044759420034711  0.7757392983675399  0.45274904317553694  1.0000
  S   S4        1.0  0.6955310377446298  0.22425732903520407  0.952750290586778  1.0000
  S   S5        1.0  0.02637433256233381  0.05576800873619449  0.2663716269643643  1.0000
  S   S6        1.0  0.4736477907138197  0.944217485298182  0.7663748562618837  1.0000
  S   S7        1.0  0.9736408682094864  0.5557524043177082  0.23363849006732104  1.0000
  S   S8        1.0  0.5263453572292178  0.44422828867554626  0.7336246454340839  1.0000
  N   N1        1.0  0.7484655085943146  0.12596429297953188  0.17568624415292086  1.0000
  N   N2        1.0  0.7515417446064349  0.8740453777659096  0.6756755170714613  1.0000
  N   N3        1.0  0.2515432819639117  0.6259409719705501  0.32432170295363966  1.0000
  N   N4        1.0  0.24845650674425468  0.37405178463865235  0.8243195266874679  1.0000
  N   N5        1.0  0.2592479370958429  0.9940219596161268  0.9594230368583895  1.0000
  N   N6        1.0  0.2407380763873235  0.0059791129998955994  0.45943822046616134  1.0000
  N   N7        1.0  0.7407466060236559  0.49403306906320665  0.5405748276569896  1.0000
  N   N8        1.0  0.7592731155157751  0.505988994450881  0.040565700845512316  1.0000
  N   N9        1.0  0.1319268559906632  0.9300476941235228  0.07767026586318343  1.0000
  N   N10       1.0  0.36805938938498184  0.06994946108054023  0.5776825918808444  1.0000
  N   N11       1.0  0.8680733250266215  0.430030573087876  0.42232486351305454  1.0000
  N   N12       1.0  0.6319448577062874  0.5699514016447864  0.9223204492651009  1.0000
  N   N13       1.0  0.6908560514296128  0.9263244727268825  0.26975435719638347  1.0000
  N   N14       1.0  0.8091436627333763  0.07368130500543658  0.7697393366107123  1.0000
  N   N15       1.0  0.30914935054275366  0.426306397837834  0.23025100258252001  1.0000
  N   N16       1.0  0.19084098731882906  0.5736760144357402  0.7302516665749084  1.0000
