data_image0
_chemical_formula_structural       Zn2H40C28S4N8O8
_chemical_formula_sum              "Zn2 H40 C28 S4 N8 O8"
_cell_length_a       8.539315215843585
_cell_length_b       9.47800865870297
_cell_length_c       12.883067522406222
_cell_angle_alpha    98.25354830066065
_cell_angle_beta     107.0679015882691
_cell_angle_gamma    98.97036866417145

_space_group_name_H-M_alt    "P 1"
_space_group_IT_number       1

loop_
  _space_group_symop_operation_xyz
  'x, y, z'

loop_
  _atom_site_type_symbol
  _atom_site_label
  _atom_site_symmetry_multiplicity
  _atom_site_fract_x
  _atom_site_fract_y
  _atom_site_fract_z
  _atom_site_occupancy
  Zn  Zn1       1.0  0.8342208871078186  0.754650400079811  0.23778713104266563  1.0000
  Zn  Zn2       1.0  0.16578092066838215  0.24535634374715437  0.762214380656367  1.0000
  H   H1        1.0  0.7403906237236697  0.299293445641112  0.27460750366752507  1.0000
  H   H2        1.0  0.2596140268194915  0.7007099913441196  0.7253949802440047  1.0000
  H   H3        1.0  0.973033439454568  0.024840209940862196  0.3389880506008893  1.0000
  H   H4        1.0  0.026964930301495715  0.97515782394246  0.661010324178676  1.0000
  H   H5        1.0  0.8253864499354505  0.555023311411034  0.8377072167527189  1.0000
  H   H6        1.0  0.17461452128488017  0.4449801613725626  0.16229223486192978  1.0000
  H   H7        1.0  0.03370392930889917  0.788001803554799  0.09587199221680008  1.0000
  H   H8        1.0  0.9662952592462942  0.2119995005356756  0.9041253342737433  1.0000
  H   H9        1.0  0.5479525404708312  0.1452766662994378  0.05402511977044359  1.0000
  H   H10       1.0  0.45204641214451874  0.8547235494641041  0.9459790319277062  1.0000
  H   H11       1.0  0.5029518692535929  0.28817073597496556  0.1395049614018689  1.0000
  H   H12       1.0  0.49704584360326715  0.7118294910941929  0.8604958482506007  1.0000
  H   H13       1.0  0.43616928361178964  0.1013208617654584  0.1457800461112839  1.0000
  H   H14       1.0  0.5638327832238446  0.8986771371557156  0.8542244693385753  1.0000
  H   H15       1.0  0.03394372134010839  0.3359523786030039  0.3670538588678268  1.0000
  H   H16       1.0  0.9660571146153955  0.6640456320419049  0.632948868723055  1.0000
  H   H17       1.0  0.0971229384451036  0.23050384779522656  0.4708419091065466  1.0000
  H   H18       1.0  0.9028785632879774  0.7694919700819439  0.5291599377981342  1.0000
  H   H19       1.0  0.902095676608191  0.28511581476647757  0.4454995378220659  1.0000
  H   H20       1.0  0.0979018743487359  0.7148789489096785  0.5544998852465284  1.0000
  H   H21       1.0  0.7060736610090144  0.3083794986406687  0.9035203854608511  1.0000
  H   H22       1.0  0.29393398532267406  0.6916260944777334  0.09648290306034817  1.0000
  H   H23       1.0  0.5987387048869977  0.3631751364676887  0.7806845626374822  1.0000
  H   H24       1.0  0.4012648420861638  0.6368239396838575  0.2193172467437989  1.0000
  H   H25       1.0  0.5504812048938845  0.4142408823153474  0.9046963741664911  1.0000
  H   H26       1.0  0.4495201739682527  0.5857593083282994  0.09530513650280169  1.0000
  H   H27       1.0  0.05522527302424162  0.7234824477596578  0.878436349197969  1.0000
  H   H28       1.0  0.9447783923806767  0.2765122554163639  0.12156501932534516  1.0000
  H   H29       1.0  0.08950457545393681  0.8995045604983362  0.9605901393591055  1.0000
  H   H30       1.0  0.9104983886599385  0.10049233377299063  0.039405893103591355  1.0000
  H   H31       1.0  0.8849397805421333  0.8168808865182272  0.8680341825721598  1.0000
  H   H32       1.0  0.1150637442351155  0.183118188588054  0.1319637413423678  1.0000
  H   H33       1.0  0.5591261706797752  0.7530952181646242  0.4702004886970528  1.0000
  H   H34       1.0  0.4408716641243515  0.2469104704160685  0.5297947136991255  1.0000
  H   H35       1.0  0.6119084847577128  0.30797514294577166  0.4094341182376908  1.0000
  H   H36       1.0  0.388088250915601  0.6920261850102775  0.5905611867215937  1.0000
  H   H37       1.0  0.22997267710441346  0.9497595461306928  0.5373715063899667  1.0000
  H   H38       1.0  0.7700250535091725  0.050240681774681696  0.46263241163591556  1.0000
  H   H39       1.0  0.5022589260802092  0.9582512133948954  0.3052925119632519  1.0000
  H   H40       1.0  0.49774136252947443  0.0417446170422267  0.6947106554558645  1.0000
  C   C1        1.0  0.7747199527504023  0.08779195978184622  0.24104322053040042  1.0000
  C   C2        1.0  0.225283309451889  0.9122060257431738  0.7589568660316175  1.0000
  C   C3        1.0  0.536543672452467  0.18101793851857914  0.1358607768960098  1.0000
  C   C4        1.0  0.46345471062115  0.818980095991904  0.8641399291636134  1.0000
  C   C5        1.0  0.9907728785069168  0.24848248711025891  0.40609585133221054  1.0000
  C   C6        1.0  0.009226170344277288  0.751513354632486  0.5939039740412184  1.0000
  C   C7        1.0  0.8543819209558876  0.6110830983743727  0.0006996408639424307  1.0000
  C   C8        1.0  0.1456166195784689  0.3889203993200567  0.9993016746862082  1.0000
  C   C9        1.0  0.6514442451620327  0.39675349298323687  0.8709127961365014  1.0000
  C   C10       1.0  0.34855796137760825  0.6032499682856739  0.1290892204304726  1.0000
  C   C11       1.0  0.9990269416854857  0.7957345168476735  0.9252187818122266  1.0000
  C   C12       1.0  0.0009720894089682023  0.20426132405885514  0.0747779351877824  1.0000
  C   C13       1.0  0.7017883147134256  0.5735072060859566  0.3611674686273574  1.0000
  C   C14       1.0  0.29820720783649074  0.4264941344300439  0.6388291568463628  1.0000
  C   C15       1.0  0.5964257195979813  0.5349985424985205  0.4321488324845149  1.0000
  C   C16       1.0  0.4035746820806096  0.465002749032017  0.567847173491593  1.0000
  C   C17       1.0  0.5325496646352762  0.6425003524083053  0.4836787048018394  1.0000
  C   C18       1.0  0.4674451566235972  0.3575031792030003  0.5163125846112492  1.0000
  C   C19       1.0  0.562945952440721  0.3921389422437401  0.44910920936902704  1.0000
  C   C20       1.0  0.4370535031286166  0.6078634516370583  0.550886731567374  1.0000
  C   C21       1.0  0.1890787288302107  0.8917438937798893  0.3172991265046932  1.0000
  C   C22       1.0  0.810921161016033  0.10825521921528039  0.6827035360464747  1.0000
  C   C23       1.0  0.3496048892945396  0.9488350264791736  0.4117697306730932  1.0000
  C   C24       1.0  0.6503935070966236  0.05116300865846309  0.5882333066665879  1.0000
  C   C25       1.0  0.3489264256826132  0.9708386328521782  0.5216963958726097  1.0000
  C   C26       1.0  0.6510720935794936  0.029155029518989302  0.47830697770245917  1.0000
  C   C27       1.0  0.5020364048551614  0.9785952243066589  0.39063268523352684  1.0000
  C   C28       1.0  0.497960489202562  0.021401732555339892  0.6093691727079715  1.0000
  S   S1        1.0  0.6961671375630374  0.92116423793005  0.15065424401242214  1.0000
  S   S2        1.0  0.3038347708881801  0.0788381320851812  0.8493437184552307  1.0000
  S   S3        1.0  0.8127751302910085  0.5479932651929573  0.11127995412975619  1.0000
  S   S4        1.0  0.18721769011961703  0.4520070102345104  0.8887191437402606  1.0000
  N   N1        1.0  0.6935103279546269  0.1962086863141579  0.2240845565854244  1.0000
  N   N2        1.0  0.3064928335726406  0.8037936730226035  0.7759190792079735  1.0000
  N   N3        1.0  0.9166573453940998  0.11160228643780808  0.3269464786648584  1.0000
  N   N4        1.0  0.08334224636372774  0.8883957353036751  0.6730521297869885  1.0000
  N   N5        1.0  0.776267320042656  0.5317172419013049  0.8976657979200481  1.0000
  N   N6        1.0  0.22373270062922762  0.46828733302349707  0.10233281156153144  1.0000
  N   N7        1.0  0.9639202184016396  0.7350184708189786  0.015219857339374695  1.0000
  N   N8        1.0  0.0360804724870079  0.2649839115471337  0.9847786485493585  1.0000
  O   O1        1.0  0.7125651509177826  0.7045088839567126  0.34240369718468594  1.0000
  O   O2        1.0  0.2874302141713869  0.2954869933753344  0.6575923187985069  1.0000
  O   O3        1.0  0.7747275853773132  0.4820314677194446  0.3249127659653723  1.0000
  O   O4        1.0  0.22528108998191954  0.5179686484007463  0.6750839299907554  1.0000
  O   O5        1.0  0.056848837198060706  0.8568717956311502  0.34678350580212225  1.0000
  O   O6        1.0  0.9431515999940031  0.14312949757180604  0.6532187169208116  1.0000
  O   O7        1.0  0.18877243113602302  0.8818700138274239  0.21920499485980827  1.0000
  O   O8        1.0  0.8112286718336179  0.11812908660779442  0.780796347176924  1.0000
