data_image0
_chemical_formula_structural       Zn8H168C192N40O32
_chemical_formula_sum              "Zn8 H168 C192 N40 O32"
_cell_length_a       14.129124202084215
_cell_length_b       15.939667562075636
_cell_length_c       23.46067144204493
_cell_angle_alpha    89.99990263527353
_cell_angle_beta     89.99979677548477
_cell_angle_gamma    90.00033903421425

_space_group_name_H-M_alt    "P 1"
_space_group_IT_number       1

loop_
  _space_group_symop_operation_xyz
  'x, y, z'

loop_
  _atom_site_type_symbol
  _atom_site_label
  _atom_site_symmetry_multiplicity
  _atom_site_fract_x
  _atom_site_fract_y
  _atom_site_fract_z
  _atom_site_occupancy
  Zn  Zn1       1.0  0.9542825059479227  0.9460025572377188  0.6891901243680322  1.0000
  Zn  Zn2       1.0  0.4542822026209167  0.05399691342699238  0.31081113146932887  1.0000
  Zn  Zn3       1.0  0.9542833719964606  0.553997510730724  0.18918931784853746  1.0000
  Zn  Zn4       1.0  0.45427992106609594  0.44600446939342925  0.8108115117436154  1.0000
  Zn  Zn5       1.0  0.5548873703920735  0.846350158287663  0.6596590602560324  1.0000
  Zn  Zn6       1.0  0.05488472806869989  0.15365160924329754  0.3403413469781781  1.0000
  Zn  Zn7       1.0  0.5548881939695747  0.6536497702750523  0.15966026885807588  1.0000
  Zn  Zn8       1.0  0.05488461223827559  0.346349487794086  0.8403409908673536  1.0000
  H   H1        1.0  0.9469823029884453  0.9518086353980875  0.8278668929467227  1.0000
  H   H2        1.0  0.4469827745687454  0.04819142435044199  0.1721318210708772  1.0000
  H   H3        1.0  0.9469824225143384  0.5481929326862482  0.327868650663376  1.0000
  H   H4        1.0  0.4469826550407916  0.451808381790947  0.6721321945798022  1.0000
  H   H5        1.0  0.8313718508312674  0.11206575383391029  0.7031852263272709  1.0000
  H   H6        1.0  0.331373658308415  0.8879330722145862  0.2968145880702408  1.0000
  H   H7        1.0  0.8313671609572921  0.38793850078202036  0.2031870144587485  1.0000
  H   H8        1.0  0.33136914734452455  0.6120653441670639  0.7968132261909627  1.0000
  H   H9        1.0  0.8022737168581032  0.1828512103648237  0.811447676135266  1.0000
  H   H10       1.0  0.3022728559334809  0.8171462083351811  0.18855262690293978  1.0000
  H   H11       1.0  0.8022706776618309  0.31714634967746486  0.31144954674093117  1.0000
  H   H12       1.0  0.3022695253132213  0.6828529511022763  0.6885511825482734  1.0000
  H   H13       1.0  0.8626972596879127  0.949404864982078  0.9178980822931845  1.0000
  H   H14       1.0  0.36269544451763386  0.05059224325298568  0.08209995996072908  1.0000
  H   H15       1.0  0.8626952719772946  0.5505954105543935  0.41790196843851374  1.0000
  H   H16       1.0  0.36269601670652923  0.4494029524040427  0.5820994837782647  1.0000
  H   H17       1.0  0.8888116620832277  0.24406202510565578  0.992646112733254  1.0000
  H   H18       1.0  0.3888065013431331  0.7559327106174362  0.007353152267313597  1.0000
  H   H19       1.0  0.8888075064814842  0.2559361670893948  0.4926472021658695  1.0000
  H   H20       1.0  0.3888007483394277  0.7440610780692792  0.5073529153343868  1.0000
  H   H21       1.0  0.8876837082259996  0.21717953136540297  0.8896848820541406  1.0000
  H   H22       1.0  0.38768166164653184  0.782816453181965  0.11031395911564344  1.0000
  H   H23       1.0  0.8876818553715538  0.2828189100940078  0.38968551391811695  1.0000
  H   H24       1.0  0.38767572917397797  0.7171802112612295  0.6103133272581827  1.0000
  H   H25       1.0  0.8617564679156616  0.0383039594620627  0.18430665176360606  1.0000
  H   H26       1.0  0.3617536001387833  0.9616937712007142  0.8156922449988213  1.0000
  H   H27       1.0  0.8617486290604364  0.46169736446132953  0.6843087187410857  1.0000
  H   H28       1.0  0.36175506918835504  0.5383047577448679  0.3156897517803542  1.0000
  H   H29       1.0  0.8451170353047105  0.8840298201066827  0.19631691586351954  1.0000
  H   H30       1.0  0.34512487024222344  0.11596782331503866  0.8036828690560112  1.0000
  H   H31       1.0  0.8451196279829533  0.6159690303048888  0.6963146969381737  1.0000
  H   H32       1.0  0.3451173232649793  0.3840279857418806  0.3036821042702086  1.0000
  H   H33       1.0  0.8537223572051148  0.8442538306875916  0.014461094585335794  1.0000
  H   H34       1.0  0.35372160532852354  0.15573695682185465  0.9855382456507439  1.0000
  H   H35       1.0  0.853720261122433  0.6557448881774092  0.5144605343031755  1.0000
  H   H36       1.0  0.35371733161558444  0.3442521729740163  0.4855371009550351  1.0000
  H   H37       1.0  0.8291626479083262  0.17234247479098738  0.1469820161806297  1.0000
  H   H38       1.0  0.32915937403346623  0.8276532028330902  0.8530148192442791  1.0000
  H   H39       1.0  0.8291602839957691  0.32765626123982355  0.646987649283936  1.0000
  H   H40       1.0  0.32916103017599607  0.6723406711068376  0.3530147273293807  1.0000
  H   H41       1.0  0.8499491844370298  0.23773857184099964  0.08734385023766576  1.0000
  H   H42       1.0  0.34994653956596267  0.762256587436731  0.9126533668619741  1.0000
  H   H43       1.0  0.8499456761645234  0.2622591662753989  0.5873512645167338  1.0000
  H   H44       1.0  0.34994367800693743  0.7377378750757371  0.4126514937770123  1.0000
  H   H45       1.0  0.0011034192458794  0.14774692646479076  0.15972893027609555  1.0000
  H   H46       1.0  0.5011007947394361  0.852255186356295  0.8402694610542907  1.0000
  H   H47       1.0  0.0011019273286053002  0.3522593550462574  0.659731551001009  1.0000
  H   H48       1.0  0.5011029944155396  0.6477452672361395  0.34026939779872106  1.0000
  H   H49       1.0  0.9773178673051391  0.25684461100408373  0.15878965431213027  1.0000
  H   H50       1.0  0.4773190528789613  0.743156235211515  0.8412089946592117  1.0000
  H   H51       1.0  0.9773213090913374  0.24315989172880131  0.658793254632897  1.0000
  H   H52       1.0  0.4773177343620532  0.7568422092199754  0.34120837805226495  1.0000
  H   H53       1.0  0.026601492854531696  0.20816426583099454  0.09701710761199678  1.0000
  H   H54       1.0  0.5265980970375282  0.7918367259842752  0.9029820815378212  1.0000
  H   H55       1.0  0.026598182065861  0.29184105009499445  0.5970189462410713  1.0000
  H   H56       1.0  0.5265957457550883  0.7081599417022557  0.4029828003863754  1.0000
  H   H57       1.0  0.7369049853071347  0.7281600867800363  0.0550172452136692  1.0000
  H   H58       1.0  0.23691232402554624  0.27183259754496447  0.944983624226367  1.0000
  H   H59       1.0  0.7369114496037098  0.7718347820991764  0.5550178283996842  1.0000
  H   H60       1.0  0.2369023209496888  0.22816103904482785  0.4449830410423201  1.0000
  H   H61       1.0  0.9479871355333459  0.7548843754305063  0.18392081615780848  1.0000
  H   H62       1.0  0.4479900978880167  0.24511819905717397  0.8160778957011129  1.0000
  H   H63       1.0  0.9479877593675923  0.7451150452125503  0.6839210042386055  1.0000
  H   H64       1.0  0.44798098094786104  0.2548825103302548  0.3160755764060496  1.0000
  H   H65       1.0  0.7831088955360174  0.572075341495612  0.09970185595386737  1.0000
  H   H66       1.0  0.28310692210420296  0.4279182124915123  0.9003010456522489  1.0000
  H   H67       1.0  0.7831064932761721  0.9279209136740362  0.5997001260681285  1.0000
  H   H68       1.0  0.2831072011190159  0.07207640450832288  0.4002972343496936  1.0000
  H   H69       1.0  0.7341614078005209  0.811485940677187  0.7372206071148779  1.0000
  H   H70       1.0  0.23415945329762172  0.18851300288877576  0.26278197319525276  1.0000
  H   H71       1.0  0.7341638796524137  0.6885147358943797  0.23722262758498394  1.0000
  H   H72       1.0  0.23415981250179393  0.31148922660742767  0.7627773952476243  1.0000
  H   H73       1.0  0.7574084057553917  0.8959738344718317  0.8400760716978509  1.0000
  H   H74       1.0  0.25740507517863886  0.10402648574641658  0.15992475378606488  1.0000
  H   H75       1.0  0.7574096057935621  0.604026081741672  0.3400781906065048  1.0000
  H   H76       1.0  0.2574052906790029  0.39598176686710207  0.6599234873620217  1.0000
  H   H77       1.0  0.5289166539973421  0.0032188444009122  0.7492154133845188  1.0000
  H   H78       1.0  0.0289102573792377  0.9967827869127744  0.2507850495397931  1.0000
  H   H79       1.0  0.5289162295795009  0.49678245514373737  0.24921750094100042  1.0000
  H   H80       1.0  0.028909974037063097  0.5032204308967677  0.7507850932096428  1.0000
  H   H81       1.0  0.6167029985919753  0.13531273391360088  0.7990117710701409  1.0000
  H   H82       1.0  0.1167052131049431  0.8646824568115787  0.20098679863756522  1.0000
  H   H83       1.0  0.6167031077951036  0.3646845110672955  0.2990152912666274  1.0000
  H   H84       1.0  0.11670085736420081  0.6353163259339565  0.7009862621591619  1.0000
  H   H85       1.0  0.607752792048885  0.23549914274087766  0.8787481443658718  1.0000
  H   H86       1.0  0.10776329864449959  0.7644997652571276  0.12125214950270186  1.0000
  H   H87       1.0  0.607755063438475  0.26450099452042497  0.3787505025496427  1.0000
  H   H88       1.0  0.1077560729613793  0.7355004229288014  0.6212485125870086  1.0000
  H   H89       1.0  0.6308682382224619  0.9255518174049652  0.9157969555987148  1.0000
  H   H90       1.0  0.1308609079243865  0.07445097597484106  0.08420158374190827  1.0000
  H   H91       1.0  0.6308678252876235  0.5744510116766433  0.4157991089686773  1.0000
  H   H92       1.0  0.13086132085635432  0.4255542911610347  0.5842032665778304  1.0000
  H   H93       1.0  0.6136030898757527  0.19389446560516171  0.11766593822875387  1.0000
  H   H94       1.0  0.113601623406133  0.8061082372418722  0.8823313593895176  1.0000
  H   H95       1.0  0.6136027053786464  0.30611011357629536  0.6176694652104329  1.0000
  H   H96       1.0  0.11360413117756  0.6938957261003651  0.38233124236581517  1.0000
  H   H97       1.0  0.6113504054419892  0.06757556479644215  0.17799037466096473  1.0000
  H   H98       1.0  0.1113473052075449  0.9324277535974088  0.8220069277888694  1.0000
  H   H99       1.0  0.6113494487468429  0.43242822569765577  0.67799460696024  1.0000
  H   H100      1.0  0.11134967739983641  0.5675750926919888  0.3220090891669755  1.0000
  H   H101      1.0  0.6211249427598631  0.9057306438426236  0.030317631812167185  1.0000
  H   H102      1.0  0.12112599679642241  0.09427272581933008  0.9696851908631599  1.0000
  H   H103      1.0  0.621126682825782  0.5942755989627884  0.5303158644122944  1.0000
  H   H104      1.0  0.1211228412266934  0.4057283980653351  0.46968354830210035  1.0000
  H   H105      1.0  0.6502343371275856  0.28557222559427936  0.04243781960170168  1.0000
  H   H106      1.0  0.1502459723481451  0.7144237683804776  0.9575615306885934  1.0000
  H   H107      1.0  0.650239710379786  0.21442457641116155  0.5424388959238227  1.0000
  H   H108      1.0  0.1502384758363107  0.7855745543878853  0.4575591756311326  1.0000
  H   H109      1.0  0.6624277448179612  0.2970148874707447  0.9680826627432065  1.0000
  H   H110      1.0  0.16243270281427163  0.702983052533142  0.0319170876534542  1.0000
  H   H111      1.0  0.662433852065064  0.2029834330544276  0.4680838138600618  1.0000
  H   H112      1.0  0.1624336731634131  0.7970176437989377  0.5319138053008884  1.0000
  H   H113      1.0  0.48414848823991  0.2921793268799603  0.9567622088299784  1.0000
  H   H114      1.0  0.9841587767723184  0.7078203004529654  0.0432359992409488  1.0000
  H   H115      1.0  0.48415675105244554  0.20782122352312626  0.45676292806405866  1.0000
  H   H116      1.0  0.9841540527457866  0.7921784038175018  0.5432365587388543  1.0000
  H   H117      1.0  0.5198806032843777  0.37535046855903414  0.0021475000906435  1.0000
  H   H118      1.0  0.019887156191174395  0.6246467238385877  0.9978525559520717  1.0000
  H   H119      1.0  0.5198853771731465  0.12464825910181787  0.5021478285222898  1.0000
  H   H120      1.0  0.019883797825833903  0.8753508153970202  0.49785180127254575  1.0000
  H   H121      1.0  0.47201311764524684  0.2818000488422284  0.03200566012874619  1.0000
  H   H122      1.0  0.9720222961745364  0.7181976327444699  0.967993000210235  1.0000
  H   H123      1.0  0.4720199316001796  0.21819772641028118  0.5320067320538014  1.0000
  H   H124      1.0  0.9720190210022609  0.7817993278179283  0.46799363326279303  1.0000
  H   H125      1.0  0.6198909276168648  0.9630496569508791  0.22951223965671366  1.0000
  H   H126      1.0  0.1198899366898871  0.0369524515045256  0.7704888806864502  1.0000
  H   H127      1.0  0.619885915171672  0.5369529488602964  0.7295130965200727  1.0000
  H   H128      1.0  0.11988928707062031  0.46304853221513287  0.27048759758426394  1.0000
  H   H129      1.0  0.5955660563448718  0.7978867610533694  0.2617838168352336  1.0000
  H   H130      1.0  0.09556635741319042  0.20211647455855797  0.7382194868891929  1.0000
  H   H131      1.0  0.5955586077707196  0.7021168919300251  0.761782350043205  1.0000
  H   H132      1.0  0.09556106635002948  0.29788508892141147  0.23821754373352622  1.0000
  H   H133      1.0  0.5929295036645073  0.8062045900566087  0.08259414369403117  1.0000
  H   H134      1.0  0.09293152885945229  0.19379424017350286  0.9174083131938456  1.0000
  H   H135      1.0  0.5929326159132985  0.693794474295302  0.5825926865844478  1.0000
  H   H136      1.0  0.09293053989873812  0.3062074927702411  0.417408491563549  1.0000
  H   H137      1.0  0.22987048436701232  0.868136311678981  0.779753571789463  1.0000
  H   H138      1.0  0.7298716426194788  0.13186511885705696  0.22024603399958653  1.0000
  H   H139      1.0  0.22987187026507172  0.6318666335744891  0.2797548057721712  1.0000
  H   H140      1.0  0.7298702567473968  0.36814295271455677  0.7202452262573897  1.0000
  H   H141      1.0  0.22723307954935018  0.7608273165016538  0.7594669202224579  1.0000
  H   H142      1.0  0.7272312963931996  0.23917284546467232  0.240531412489794  1.0000
  H   H143      1.0  0.22723164307002014  0.7391762925552853  0.25946802918222284  1.0000
  H   H144      1.0  0.7272306096234047  0.2608320251579457  0.7405311560180721  1.0000
  H   H145      1.0  0.23035220523682648  0.9111825075462007  0.6768882038312326  1.0000
  H   H146      1.0  0.7303489337746427  0.08881955286980768  0.3231118271745642  1.0000
  H   H147      1.0  0.23034976497097404  0.5888225772570265  0.17688906172460145  1.0000
  H   H148      1.0  0.7303499585430303  0.4111857568107807  0.8231118217695792  1.0000
  H   H149      1.0  0.24455095356965018  0.8056533933339053  0.6562396509516544  1.0000
  H   H150      1.0  0.7445496810046635  0.19434999628671076  0.3437599233612331  1.0000
  H   H151      1.0  0.2445499255899932  0.6943511897503072  0.15623953340143965  1.0000
  H   H152      1.0  0.7445429236644542  0.3056578461402778  0.8437604671617647  1.0000
  H   H153      1.0  0.5086072834467359  0.9895175730302481  0.5112604604444541  1.0000
  H   H154      1.0  0.0086063534048932  0.010482697052424297  0.4887387672860441  1.0000
  H   H155      1.0  0.5086092744907377  0.5104812258651135  0.011260983359569795  1.0000
  H   H156      1.0  0.0086001158106441  0.48951716211104196  0.9887369656407966  1.0000
  H   H157      1.0  0.6059487806424784  0.9553760131593234  0.46990606084343506  1.0000
  H   H158      1.0  0.10595066692724942  0.044624140087556385  0.5300929581660154  1.0000
  H   H159      1.0  0.6059516047595183  0.5446252964056271  0.969907335003853  1.0000
  H   H160      1.0  0.10594571954388952  0.45537673893318237  0.03009125776151219  1.0000
  H   H161      1.0  0.4096702316874641  0.871536860356997  0.4709237675483278  1.0000
  H   H162      1.0  0.9096709707488201  0.1284655131622543  0.5290780101884138  1.0000
  H   H163      1.0  0.40967290777609827  0.6284640446422428  0.9709219603114291  1.0000
  H   H164      1.0  0.9096668791446589  0.37153581941436886  0.029076833711478397  1.0000
  H   H165      1.0  0.5102249308079438  0.8350615038623342  0.43344990270960426  1.0000
  H   H166      1.0  0.010230945210643902  0.16493814735425613  0.5665514527715699  1.0000
  H   H167      1.0  0.5102328047194221  0.6649412761278412  0.9334493317044303  1.0000
  H   H168      1.0  0.010225194597275302  0.3350633940227397  0.06654946629998898  1.0000
  C   C1        1.0  0.9099804415807143  0.003763069326978999  0.8081301981323744  1.0000
  C   C2        1.0  0.40998075681717683  0.996235541627861  0.1918685952250455  1.0000
  C   C3        1.0  0.9099828445549749  0.4962363185667014  0.3081322863210189  1.0000
  C   C4        1.0  0.40997906159670805  0.5037629197530078  0.6918686382615744  1.0000
  C   C5        1.0  0.8503961882121372  0.0904348108216553  0.7455032741966362  1.0000
  C   C6        1.0  0.3503955573690618  0.9095653697288737  0.25449564692049614  1.0000
  C   C7        1.0  0.8503973047916985  0.4095656745091744  0.24550802083872003  1.0000
  C   C8        1.0  0.35039302526275407  0.5904338786682926  0.7544938839971135  1.0000
  C   C9        1.0  0.8361107639572368  0.12539842349742258  0.7981594773455284  1.0000
  C   C10       1.0  0.3361123319052978  0.8745991726730862  0.2018403268918546  1.0000
  C   C11       1.0  0.8361137704045944  0.37460311115258094  0.2981600022684319  1.0000
  C   C12       1.0  0.3361114487410148  0.6253976218512491  0.7018402282101022  1.0000
  C   C13       1.0  0.8738607190554076  0.08177201840801018  0.8979954795906334  1.0000
  C   C14       1.0  0.3738596252400868  0.9182251483763719  0.10200339121647768  1.0000
  C   C15       1.0  0.8738604779576562  0.4182275846917278  0.3979976586701141  1.0000
  C   C16       1.0  0.37385845082236807  0.5817708368186698  0.6020024908735591  1.0000
  C   C17       1.0  0.8681735470726509  0.013054088315548999  0.9346249121427302  1.0000
  C   C18       1.0  0.3681695881496411  0.9869405391730338  0.0653726921274966  1.0000
  C   C19       1.0  0.8681730569830962  0.4869460215390404  0.43462914238531153  1.0000
  C   C20       1.0  0.36817078600346065  0.5130523701426951  0.5653705931082625  1.0000
  C   C21       1.0  0.8684593578252374  0.0277004948745869  0.9933742874982624  1.0000
  C   C22       1.0  0.3684499837406037  0.9722903699027223  0.006625021148167297  1.0000
  C   C23       1.0  0.8684524001283265  0.472295706670522  0.4933755510977419  1.0000
  C   C24       1.0  0.3684463250912772  0.5277020591011662  0.506623757556049  1.0000
  C   C25       1.0  0.8742618791608052  0.11172480564321316  0.0143221170993755  1.0000
  C   C26       1.0  0.3742490307462845  0.8882667169228637  0.9856771791087267  1.0000
  C   C27       1.0  0.8742521346073246  0.3882707314875232  0.5143225646437697  1.0000
  C   C28       1.0  0.3742474511934901  0.6117270647054195  0.48567673157281616  1.0000
  C   C29       1.0  0.8807642857365464  0.1800625704049708  0.977240376209245  1.0000
  C   C30       1.0  0.3807580463551544  0.8199308683782716  0.022758906048295592  1.0000
  C   C31       1.0  0.8807605574051252  0.31993624513147256  0.47724181732061044  1.0000
  C   C32       1.0  0.3807554048775757  0.6800609578290134  0.5227574649415698  1.0000
  C   C33       1.0  0.8803355030186566  0.16438979265213044  0.9189794786729305  1.0000
  C   C34       1.0  0.38033327298953884  0.8356061533543835  0.08102065698875549  1.0000
  C   C35       1.0  0.8803340025981754  0.33560853766844184  0.4189791965408176  1.0000
  C   C36       1.0  0.3803284035984972  0.6643892904199189  0.5810196603908223  1.0000
  C   C37       1.0  0.8618973119739979  0.9741385835483597  0.0427990737813744  1.0000
  C   C38       1.0  0.3618958592459336  0.025855383661813388  0.9572006751702485  1.0000
  C   C39       1.0  0.8618985953056396  0.5258607353318181  0.5428007960501162  1.0000
  C   C40       1.0  0.36188962162579236  0.4741376234260172  0.45719810041374115  1.0000
  C   C41       1.0  0.8645063457595866  0.028013402940317192  0.09140095919157426  1.0000
  C   C42       1.0  0.36450795587317236  0.9719818326932097  0.9085983579165172  1.0000
  C   C43       1.0  0.8645042376653863  0.4719856562116147  0.5914017354389357  1.0000
  C   C44       1.0  0.36450227864582263  0.5280139709616164  0.4085971554296889  1.0000
  C   C45       1.0  0.8593151816170134  0.9970755633159879  0.14707698234482788  1.0000
  C   C46       1.0  0.35931631086553756  0.0029190177242312994  0.852922772140239  1.0000
  C   C47       1.0  0.8593071109688354  0.5029234835627037  0.6470770263665597  1.0000
  C   C48       1.0  0.35930739535510975  0.49707925318861595  0.3529210231509196  1.0000
  C   C49       1.0  0.8508755682142138  0.9107443723982839  0.15369364685697914  1.0000
  C   C50       1.0  0.35087731264197697  0.0892507917447674  0.8463074044589545  1.0000
  C   C51       1.0  0.8508666584117749  0.5892546138181839  0.6536927378047606  1.0000
  C   C52       1.0  0.350867113010267  0.4107474513001461  0.34630575605607544  1.0000
  C   C53       1.0  0.8483686494811735  0.8569358998003336  0.10612598860370068  1.0000
  C   C54       1.0  0.3483655197463094  0.14305987854873342  0.8938742156018761  1.0000
  C   C55       1.0  0.8483650532182166  0.6430644459010392  0.6061262955885878  1.0000
  C   C56       1.0  0.34836557724000994  0.35693635136558294  0.3938726298820753  1.0000
  C   C57       1.0  0.8537231035284093  0.8874918270409323  0.05051374598274088  1.0000
  C   C58       1.0  0.353718027977621  0.11250021519240505  0.9494855942556409  1.0000
  C   C59       1.0  0.8537263808422537  0.6125068024895054  0.5505145148071902  1.0000
  C   C60       1.0  0.35372041274747806  0.3874908860501164  0.44948439917656896  1.0000
  C   C61       1.0  0.8770836655309181  0.18318979744335445  0.11083550794209877  1.0000
  C   C62       1.0  0.37707939940021623  0.8168067588729355  0.8891612247318786  1.0000
  C   C63       1.0  0.8770798136874233  0.3168099068617636  0.6108411536846388  1.0000
  C   C64       1.0  0.3770797124473262  0.6831891589015341  0.3891606939347908  1.0000
  C   C65       1.0  0.9771202884355076  0.19963516863722924  0.13268983808723078  1.0000
  C   C66       1.0  0.4771174562682035  0.8003669312629141  0.8673088113113392  1.0000
  C   C67       1.0  0.9771170345808002  0.30036939772630683  0.6326933717604815  1.0000
  C   C68       1.0  0.47711717132774123  0.6996333295270458  0.3673078351130741  1.0000
  C   C69       1.0  0.789098443503825  0.7104791381149268  0.08668679613477077  1.0000
  C   C70       1.0  0.2891082093496991  0.289516956775543  0.9133186500861467  1.0000
  C   C71       1.0  0.7891071491413514  0.7895203175829407  0.5866835225083163  1.0000
  C   C72       1.0  0.2890952572074781  0.21048079623272994  0.4133129725637728  1.0000
  C   C73       1.0  0.8967942865884097  0.7268297397108794  0.15491788115414096  1.0000
  C   C74       1.0  0.39679231174805096  0.27316754735035426  0.8450805142347941  1.0000
  C   C75       1.0  0.8967894356459779  0.7731701116694081  0.6549218727614698  1.0000
  C   C76       1.0  0.3967929161382385  0.22683031220262959  0.3450816375733081  1.0000
  C   C77       1.0  0.8108043484572464  0.6337536014804426  0.10971002903739448  1.0000
  C   C78       1.0  0.3108119305892528  0.3662444893396496  0.8902966493790313  1.0000
  C   C79       1.0  0.8108114430638622  0.8662484204579073  0.6097053872825595  1.0000
  C   C80       1.0  0.31079917397873663  0.13375594402026536  0.39028807753322053  1.0000
  C   C81       1.0  0.694762767449589  0.8635508910931261  0.7550372446487327  1.0000
  C   C82       1.0  0.19476198539999254  0.1364472184769667  0.24496627262908519  1.0000
  C   C83       1.0  0.6947634761946375  0.6364507894166209  0.2550397520262138  1.0000
  C   C84       1.0  0.19476198443508247  0.36355359381241914  0.744963339001934  1.0000
  C   C85       1.0  0.7071216237566205  0.9042857126165842  0.8058324290650558  1.0000
  C   C86       1.0  0.20711945227759543  0.09571246177043237  0.19416893048824585  1.0000
  C   C87       1.0  0.7071227682974666  0.5957127699958491  0.3058349839040274  1.0000
  C   C88       1.0  0.20711972327737274  0.4042935601473515  0.6941672281335298  1.0000
  C   C89       1.0  0.5893390066213017  0.9636549568984729  0.758219220223502  1.0000
  C   C90       1.0  0.08933332839665549  0.03634385448315669  0.24178111314503062  1.0000
  C   C91       1.0  0.5893390470567111  0.5363461628129895  0.25822141798789017  1.0000
  C   C92       1.0  0.0893339957292625  0.46365641276337743  0.741779767868209  1.0000
  C   C93       1.0  0.6278206415123365  0.025299108949262492  0.8533823898769695  1.0000
  C   C94       1.0  0.12781400090132422  0.9747017863486248  0.14661871347018968  1.0000
  C   C95       1.0  0.6278193619289212  0.4747024511493762  0.3533836506693858  1.0000
  C   C96       1.0  0.1278159882627961  0.5253040904417927  0.6466170264284656  1.0000
  C   C97       1.0  0.6189945122271183  0.1117494591923744  0.8426281810664518  1.0000
  C   C98       1.0  0.1189872313663258  0.8882501350856912  0.15737038373544004  1.0000
  C   C99       1.0  0.6189884089373123  0.3882520812545707  0.3426308213230341  1.0000
  C   C100      1.0  0.11899404242878121  0.6117537866792658  0.657369874700741  1.0000
  C   C101      1.0  0.6143155824952872  0.16868031502487918  0.8876076839855924  1.0000
  C   C102      1.0  0.1143159708032115  0.8313198820990519  0.11239131708546775  1.0000
  C   C103      1.0  0.6143126379141747  0.3313204620505203  0.38761039056930696  1.0000
  C   C104      1.0  0.11431962315234757  0.6686834992681552  0.612389462989327  1.0000
  C   C105      1.0  0.618546999307256  0.1372674314462614  0.9432109656783748  1.0000
  C   C106      1.0  0.11854792356766812  0.8627309057744269  0.05678802632026248  1.0000
  C   C107      1.0  0.6185435566813453  0.3627326026498706  0.4432140619092022  1.0000
  C   C108      1.0  0.11855278172372861  0.6372707534987255  0.5567857825755168  1.0000
  C   C109      1.0  0.6223211477603671  0.049335230432070894  0.9538385859260924  1.0000
  C   C110      1.0  0.12232413692868252  0.9506612444890549  0.04616210295998969  1.0000
  C   C111      1.0  0.6223253697651857  0.45066354241131973  0.45383902222817324  1.0000
  C   C112      1.0  0.1223220382257537  0.5493398335397044  0.5461599616705681  1.0000
  C   C113      1.0  0.6276255378944526  0.9930795749921795  0.9085729150694205  1.0000
  C   C114      1.0  0.12762337644404914  0.006921946662494299  0.09142605746460927  1.0000
  C   C115      1.0  0.6276296284394861  0.5069226276328394  0.40857472086616997  1.0000
  C   C116      1.0  0.12762282469633854  0.49308265822293845  0.5914259566429151  1.0000
  C   C117      1.0  0.6207844942914064  0.03882550597293029  0.014683887298446097  1.0000
  C   C118      1.0  0.12078628986434133  0.9611728429833516  0.9853163786374279  1.0000
  C   C119      1.0  0.6207893915916286  0.4611737198228523  0.5146855286258827  1.0000
  C   C120      1.0  0.12078563912061213  0.5388265112425829  0.48531388481382  1.0000
  C   C121      1.0  0.6183648733684208  0.12094324264564447  0.03875007568316849  1.0000
  C   C122      1.0  0.11837121623477032  0.8790576030972231  0.9612484904534495  1.0000
  C   C123      1.0  0.618373468993113  0.37905904765202075  0.5387530914159128  1.0000
  C   C124      1.0  0.11836474387853001  0.6209424254588994  0.4612480321896227  1.0000
  C   C125      1.0  0.6158868763694445  0.13201616674716374  0.09784812470621768  1.0000
  C   C126      1.0  0.11588641447777091  0.8679840386164911  0.9021500205060915  1.0000
  C   C127      1.0  0.6158890282463717  0.3679859640714581  0.597851579592273  1.0000
  C   C128      1.0  0.11588567811721621  0.6320173781199685  0.40214997557877297  1.0000
  C   C129      1.0  0.6150634147068602  0.06039104007644618  0.13196100172215347  1.0000
  C   C130      1.0  0.1150579690789044  0.9396097883189114  0.8680388502418307  1.0000
  C   C131      1.0  0.6150589671927238  0.4396122565961419  0.6319626681832202  1.0000
  C   C132      1.0  0.11506170884180732  0.5603917086240598  0.3680384625154786  1.0000
  C   C133      1.0  0.6164304015113089  0.9793387201072147  0.1081951604495046  1.0000
  C   C134      1.0  0.11642859002123632  0.020660860733620688  0.8918063935612821  1.0000
  C   C135      1.0  0.6164281113457264  0.5206622861309924  0.6081956100439851  1.0000
  C   C136      1.0  0.11642734140666282  0.47933792206939063  0.39180338649866536  1.0000
  C   C137      1.0  0.6200068372690524  0.9680092060264086  0.049344332649141585  1.0000
  C   C138      1.0  0.1199998018208532  0.031992275654865  0.9506572136975959  1.0000
  C   C139      1.0  0.6200024994738982  0.5319938469132452  0.549344769044623  1.0000
  C   C140      1.0  0.11999989307245332  0.4680070073938792  0.4506546460807355  1.0000
  C   C141      1.0  0.6167850576397881  0.2702287068270691  0.0014411690428417997  1.0000
  C   C142      1.0  0.11679513926276291  0.7297727580067245  0.9985565479863038  1.0000
  C   C143      1.0  0.6167933643745656  0.22977304028484716  0.501442653727487  1.0000
  C   C144      1.0  0.11679178682779681  0.7702277971946998  0.49855634203249355  1.0000
  C   C145      1.0  0.5171745258169338  0.3068572093927528  0.9979067673355997  1.0000
  C   C146      1.0  0.0171831318869806  0.6931418509158361  0.0020924420156304994  1.0000
  C   C147      1.0  0.5171812751292677  0.19314403961374177  0.4979057986910361  1.0000
  C   C148      1.0  0.0171806291265497  0.8068562754372974  0.5020934106549146  1.0000
  C   C149      1.0  0.6121578516865257  0.9068226488363532  0.20390048176101053  1.0000
  C   C150      1.0  0.11216699448034008  0.093181301183705  0.7961019338871365  1.0000
  C   C151      1.0  0.6121602922125788  0.5931824893761474  0.7038999943691095  1.0000
  C   C152      1.0  0.1121581841335342  0.4068202058980076  0.2961007163055598  1.0000
  C   C153      1.0  0.6000216060829403  0.8245668045349743  0.21938816421459248  1.0000
  C   C154      1.0  0.1000285578705515  0.17543770919510843  0.7806138512126635  1.0000
  C   C155      1.0  0.60002176472819  0.6754388590020566  0.7193884334791603  1.0000
  C   C156      1.0  0.100019906123606  0.32456377260878355  0.28061358195829195  1.0000
  C   C157      1.0  0.598975822698101  0.8276071309585616  0.12642620357163276  1.0000
  C   C158      1.0  0.09896876134582298  0.17239612251869113  0.873575814113728  1.0000
  C   C159      1.0  0.5989738377675594  0.6723968753834696  0.6264260501364872  1.0000
  C   C160      1.0  0.09897640833913361  0.3276057507435011  0.3735755412979102  1.0000
  C   C161      1.0  0.10049090535888182  0.829337848615978  0.7390085224438179  1.0000
  C   C162      1.0  0.6004892525171356  0.1706560023409196  0.2609900820305242  1.0000
  C   C163      1.0  0.1004897192087668  0.6706544812076983  0.23901141621246313  1.0000
  C   C164      1.0  0.6004868998951238  0.32934689812462636  0.7609897457328499  1.0000
  C   C165      1.0  0.20746211298352082  0.8244873291260646  0.7460691633194114  1.0000
  C   C166      1.0  0.7074584106973987  0.17551335650742314  0.2539304905229613  1.0000
  C   C167      1.0  0.2074609592581496  0.675514954714238  0.2460690677140675  1.0000
  C   C168      1.0  0.707458148933256  0.3244932593039421  0.7539301598801698  1.0000
  C   C169      1.0  0.2582227599078664  0.8500997332241054  0.6911358835979582  1.0000
  C   C170      1.0  0.75822139535245  0.14990247336726972  0.30886494013662247  1.0000
  C   C171      1.0  0.2582221429564129  0.6499042077154655  0.19113496534153995  1.0000
  C   C172      1.0  0.7582184735367433  0.35010364515912323  0.8088645796577721  1.0000
  C   C173      1.0  0.36474458704010715  0.8597269287395902  0.6990558269656258  1.0000
  C   C174      1.0  0.8647439124427195  0.1402758365242605  0.3009443421202177  1.0000
  C   C175      1.0  0.3647439058099807  0.6402762965084035  0.19905619866210594  1.0000
  C   C176      1.0  0.8647396393617726  0.35972709610494036  0.800946527900244  1.0000
  C   C177      1.0  0.5693558015231374  0.8737028600672118  0.5397460072688531  1.0000
  C   C178      1.0  0.06935793508203152  0.1262971012622742  0.4602535164477926  1.0000
  C   C179      1.0  0.5693592735126815  0.6262943047419538  0.039747247738269195  1.0000
  C   C180      1.0  0.06935163204436631  0.373701892384588  0.9602535547193793  1.0000
  C   C181      1.0  0.5415447941231051  0.9339613176180847  0.49197200698839066  1.0000
  C   C182      1.0  0.0415441218081867  0.06603912520952798  0.5080284288534216  1.0000
  C   C183      1.0  0.541547053446351  0.5660389721162672  0.9919732561997773  1.0000
  C   C184      1.0  0.04153903145273571  0.43396209806851965  0.008028032135221998  1.0000
  C   C185      1.0  0.47498155810514225  0.8918166529577218  0.44954194473415027  1.0000
  C   C186      1.0  0.9749855751056984  0.10818418100793538  0.5504601192057236  1.0000
  C   C187      1.0  0.4749883453574526  0.6081859023107936  0.9495397348745837  1.0000
  C   C188      1.0  0.9749823266631806  0.39181681376692973  0.05045764036253789  1.0000
  C   C189      1.0  0.4461527787641302  0.9443691795883281  0.39845602436324856  1.0000
  C   C190      1.0  0.9461540218920489  0.055626484249422986  0.60154482266104  1.0000
  C   C191      1.0  0.4461599229115123  0.5556308416274331  0.8984560069599608  1.0000
  C   C192      1.0  0.9461539553467729  0.44437046852136314  0.10154356131767628  1.0000
  N   N1        1.0  0.8968743801073628  0.014765842917483996  0.7523832931912932  1.0000
  N   N2        1.0  0.3968735870512318  0.985234581394664  0.24761552826807068  1.0000
  N   N3        1.0  0.8968752941144656  0.4852342417623488  0.2523845417099224  1.0000
  N   N4        1.0  0.3968712575186331  0.5147655551772631  0.7476168372228853  1.0000
  N   N5        1.0  0.8735607668601234  0.06984900807933771  0.837669421446783  1.0000
  N   N6        1.0  0.3735629374823404  0.9301481571404648  0.16232944999998009  1.0000
  N   N7        1.0  0.8735641441469114  0.4301494882337309  0.33767201287680837  1.0000
  N   N8        1.0  0.3735602679539482  0.569848931717658  0.6623281373042429  1.0000
  N   N9        1.0  0.8712728401041262  0.11048128596682716  0.07331915371860728  1.0000
  N   N10       1.0  0.3712638849390544  0.8895102209345609  0.9266788701585963  1.0000
  N   N11       1.0  0.8712652271233667  0.38951408927694325  0.5733204523025037  1.0000
  N   N12       1.0  0.37126512811293827  0.6104836912616631  0.4266797028041721  1.0000
  N   N13       1.0  0.8438783104542152  0.7687452037228011  0.11573744916230307  1.0000
  N   N14       1.0  0.34388290346725375  0.23125180582649554  0.8842636171529035  1.0000
  N   N15       1.0  0.8438788417553694  0.7312557219838708  0.6157380796368199  1.0000
  N   N16       1.0  0.3438781256301198  0.268744424383101  0.3842625604358572  1.0000
  N   N17       1.0  0.8781530928397389  0.64488695668296  0.15195042937438785  1.0000
  N   N18       1.0  0.37815518643708396  0.35511148735100306  0.8480501372059589  1.0000
  N   N19       1.0  0.8781544510340139  0.8551140590360189  0.651951768031388  1.0000
  N   N20       1.0  0.378149581709323  0.14488752181667042  0.348047519815907  1.0000
  N   N21       1.0  0.6207307874857693  0.9007786110025503  0.7259814416882688  1.0000
  N   N22       1.0  0.12072604763271501  0.09921911028715158  0.27402052935117627  1.0000
  N   N23       1.0  0.6207298321754493  0.5992221258760322  0.22598356619679547  1.0000
  N   N24       1.0  0.1207262952030845  0.40078061433759155  0.7740179785952248  1.0000
  N   N25       1.0  0.6403554864732398  0.9680955241291541  0.8071759885318526  1.0000
  N   N26       1.0  0.1403528968825682  0.03190418219002569  0.19282423544412805  1.0000
  N   N27       1.0  0.6403569127795877  0.5319051144532166  0.3071773389782137  1.0000
  N   N28       1.0  0.14035430163440313  0.4681021202617897  0.692822458745077  1.0000
  N   N29       1.0  0.6184443633753888  0.17940375404098316  0.9949153437778332  1.0000
  N   N30       1.0  0.1184474329775185  0.8205964647455983  0.005082369701696599  1.0000
  N   N31       1.0  0.6184470092687989  0.3205980334884301  0.49491848909408975  1.0000
  N   N32       1.0  0.11844691035799572  0.679404067398046  0.505081355608368  1.0000
  N   N33       1.0  0.6109973065600728  0.9079996572550753  0.14459399557045316  1.0000
  N   N34       1.0  0.11099901594128879  0.0920030319269927  0.855408848820076  1.0000
  N   N35       1.0  0.610997615950673  0.5920043671158195  0.6445935095528126  1.0000
  N   N36       1.0  0.11099729104437728  0.40799894943135934  0.35540677736730675  1.0000
  N   N37       1.0  0.5925795115163481  0.7758519021769742  0.17067561351649363  1.0000
  N   N38       1.0  0.09257800961271562  0.22414880830632458  0.8293259916340006  1.0000
  N   N39       1.0  0.5925792876168928  0.7241494514948598  0.6706758260263113  1.0000
  N   N40       1.0  0.09257964902932508  0.2758512589926737  0.3293253528774045  1.0000
  O   O1        1.0  0.069797139807811  0.9049811395520204  0.7291976241335901  1.0000
  O   O2        1.0  0.5698027097090091  0.09501066834074826  0.2708074398261927  1.0000
  O   O3        1.0  0.0698032340155663  0.5950110536384229  0.2291916548759544  1.0000
  O   O4        1.0  0.5697987388269681  0.40499141948293255  0.7708078678869582  1.0000
  O   O5        1.0  0.0507827153176166  0.7646839189636977  0.7424249691590745  1.0000
  O   O6        1.0  0.5507758521221221  0.23530653446483993  0.25756095454854483  1.0000
  O   O7        1.0  0.0507748831842108  0.7353050048318931  0.24243844374011295  1.0000
  O   O8        1.0  0.5507758989040213  0.2646936043123346  0.7575615460646855  1.0000
  O   O9        1.0  0.4151355918564974  0.8375365644347921  0.6553332520728005  1.0000
  O   O10       1.0  0.9151341011088335  0.16246521037846406  0.3446672352121638  1.0000
  O   O11       1.0  0.41513647428118367  0.6624645239975989  0.15533359791488266  1.0000
  O   O12       1.0  0.9151310954002554  0.3375353687115349  0.8446681681092371  1.0000
  O   O13       1.0  0.5784589542244091  0.9083879873670496  0.5894623719466237  1.0000
  O   O14       1.0  0.0784590246496677  0.09161202170044187  0.4105367060081021  1.0000
  O   O15       1.0  0.5784593636186343  0.5916097293271815  0.08946450532112488  1.0000
  O   O16       1.0  0.0784522454171608  0.40838714289268546  0.9105367038685653  1.0000
  O   O17       1.0  0.39722285301993315  0.8882168865916709  0.7446482473010289  1.0000
  O   O18       1.0  0.8972187169402517  0.1117866763670818  0.2553509996581623  1.0000
  O   O19       1.0  0.3972184427926281  0.6117857686232139  0.2446495046859737  1.0000
  O   O20       1.0  0.8972195883736375  0.38821842168927384  0.7553518735029454  1.0000
  O   O21       1.0  0.5122866070190853  0.9879650228738724  0.3739152834622103  1.0000
  O   O22       1.0  0.012290543549184501  0.012034639149518996  0.6260864938458324  1.0000
  O   O23       1.0  0.5122927523645018  0.5120366607408825  0.8739144643619736  1.0000
  O   O24       1.0  0.012287937003968403  0.48796425602574073  0.12608518171524707  1.0000
  O   O25       1.0  0.5810894963276142  0.7972132284169715  0.5291598119693643  1.0000
  O   O26       1.0  0.0810934939443371  0.20278679445604547  0.470840112831297  1.0000
  O   O27       1.0  0.5810956022474018  0.7027833968100053  0.029160110827774588  1.0000
  O   O28       1.0  0.08108809576659581  0.297212234504748  0.9708402402199493  1.0000
  O   O29       1.0  0.3619041464490492  0.9422773427540533  0.3813551560704909  1.0000
  O   O30       1.0  0.8619053032012332  0.05771474240342658  0.6186433141289951  1.0000
  O   O31       1.0  0.3619105967946084  0.5577210242541426  0.8813564149674985  1.0000
  O   O32       1.0  0.861904514949444  0.44228047140250476  0.11864248146570586  1.0000
