data_image0
_chemical_formula_structural       Cd2H34C36N10O14
_chemical_formula_sum              "Cd2 H34 C36 N10 O14"
_cell_length_a       9.448240945698634
_cell_length_b       10.680404997076115
_cell_length_c       10.65218780526895
_cell_angle_alpha    106.8566986198047
_cell_angle_beta     104.24715348003237
_cell_angle_gamma    95.4956742182156

_space_group_name_H-M_alt    "P 1"
_space_group_IT_number       1

loop_
  _space_group_symop_operation_xyz
  'x, y, z'

loop_
  _atom_site_type_symbol
  _atom_site_label
  _atom_site_symmetry_multiplicity
  _atom_site_fract_x
  _atom_site_fract_y
  _atom_site_fract_z
  _atom_site_occupancy
  Cd  Cd1       1.0  0.5613919798803623  0.9658784651487834  0.1937510851938811  1.0000
  Cd  Cd2       1.0  0.4386047567492497  0.0341245310526688  0.8062457807613939  1.0000
  H   H1        1.0  0.896500093712355  0.9372720850852618  0.20399140501209712  1.0000
  H   H2        1.0  0.10350702976668201  0.06272805290780781  0.7960144059469912  1.0000
  H   H3        1.0  0.04489604054356287  0.7625865354136397  0.14097503778577203  1.0000
  H   H4        1.0  0.9551061407417974  0.23741058531766876  0.8590297720402232  1.0000
  H   H5        1.0  0.6847269655700075  0.03691184409471761  0.48922368297830593  1.0000
  H   H6        1.0  0.3152689700193321  0.9630812198806212  0.5107710950257031  1.0000
  H   H7        1.0  0.6318986559048625  0.4908041890051039  0.9046305329617255  1.0000
  H   H8        1.0  0.368100681072093  0.5092008743340557  0.09538157317428644  1.0000
  H   H9        1.0  0.5002493117491228  0.6798504160381287  0.9775983857316249  1.0000
  H   H10       1.0  0.4997501794299878  0.3201555786534058  0.022399000879055136  1.0000
  H   H11       1.0  0.852675374949186  0.4035353914059244  0.9148838252026579  1.0000
  H   H12       1.0  0.14731680556042193  0.5964665884969237  0.08511551453438682  1.0000
  H   H13       1.0  0.22814298561019095  0.9999198532353478  0.1666604924029685  1.0000
  H   H14       1.0  0.771849777338616  8.513403759739791e-05  0.8333454703049056  1.0000
  H   H15       1.0  0.07762936279802801  0.17596942785126404  0.2221933322614191  1.0000
  H   H16       1.0  0.9223711013321961  0.8240415830740133  0.7778160330329842  1.0000
  H   H17       1.0  0.7465066831031136  0.9055431319162967  0.41798456747554996  1.0000
  H   H18       1.0  0.25349858328299046  0.09445301056558013  0.5820178150110138  1.0000
  H   H19       1.0  0.4873510167231104  0.46267774909385656  0.38818329708245614  1.0000
  H   H20       1.0  0.5126581446805075  0.5373273631656661  0.6118225076120041  1.0000
  H   H21       1.0  0.621507011678318  0.27340352353071756  0.3291423808210752  1.0000
  H   H22       1.0  0.37849463603290456  0.7265965556824556  0.6708594077467538  1.0000
  H   H23       1.0  0.2679631019041723  0.5424402497640203  0.41027734363036933  1.0000
  H   H24       1.0  0.7320316212555439  0.4575636945702969  0.5897127859130221  1.0000
  H   H25       1.0  0.9731651308424887  0.3449585850351937  0.2597723167174735  1.0000
  H   H26       1.0  0.026837874624014497  0.6550315293704115  0.7402156391895787  1.0000
  H   H27       1.0  0.7520751692706539  0.43731385350491797  0.24650249333666358  1.0000
  H   H28       1.0  0.24791604494522096  0.5626831220149173  0.7534876889137012  1.0000
  H   H29       1.0  0.6246961027250536  0.6325668340517155  0.3041727159294538  1.0000
  H   H30       1.0  0.3753064935269208  0.36743821794255654  0.6958307069329309  1.0000
  H   H31       1.0  0.026844252239385493  0.8857150600650244  0.5239295009108744  1.0000
  H   H32       1.0  0.97317390809593  0.11427424648942261  0.47607465706727936  1.0000
  H   H33       1.0  0.16849825578543695  0.7062646954302995  0.4757476276694065  1.0000
  H   H34       1.0  0.8314999083419323  0.2937114803668167  0.5242362121342126  1.0000
  C   C1        1.0  0.8426591909254243  0.8367769346379323  0.13768628650499454  1.0000
  C   C2        1.0  0.1573433830909821  0.16322219890726336  0.8623248194329206  1.0000
  C   C3        1.0  0.9244013862594612  0.7381260460379553  0.1024704495453222  1.0000
  C   C4        1.0  0.07560081055977012  0.2618711023450403  0.8975409430737784  1.0000
  C   C5        1.0  0.8505076074284118  0.6089791913062329  0.018490955520654506  1.0000
  C   C6        1.0  0.14949059351877034  0.391019908645852  0.9815201298609041  1.0000
  C   C7        1.0  0.6945436086210038  0.588665591219126  0.9714771687751522  1.0000
  C   C8        1.0  0.30545387126301193  0.41133547660884784  0.028531508888342258  1.0000
  C   C9        1.0  0.620986229958227  0.693141106949547  0.011032928077327217  1.0000
  C   C10       1.0  0.3790114374148175  0.3068609514844028  0.9889751360460578  1.0000
  C   C11       1.0  0.9258520374915165  0.49751774865612947  0.9798955960968456  1.0000
  C   C12       1.0  0.07414396249674131  0.5024813088228441  0.02010936641293176  1.0000
  C   C13       1.0  0.2808639725157392  0.10401303323423866  0.21668717320786612  1.0000
  C   C14       1.0  0.7191364405303062  0.8959920078888431  0.7833176499748689  1.0000
  C   C15       1.0  0.1979829050842099  0.20265917559101615  0.2481122941813325  1.0000
  C   C16       1.0  0.8020187892729423  0.7973468655238708  0.7518921557001337  1.0000
  C   C17       1.0  0.27069653407077965  0.33592590836688885  0.3139117853658462  1.0000
  C   C18       1.0  0.7293078681899416  0.6640771693363734  0.6860905238573807  1.0000
  C   C19       1.0  0.4260653333937726  0.361003102012532  0.3413672401697525  1.0000
  C   C20       1.0  0.5739383588994116  0.639001963317817  0.6586373633304916  1.0000
  C   C21       1.0  0.5009878630467597  0.25656170092745617  0.3075556180870507  1.0000
  C   C22       1.0  0.49901307025867675  0.7434403580123218  0.6924465839597572  1.0000
  C   C23       1.0  0.1950390027054354  0.4467182755960337  0.3533120492920574  1.0000
  C   C24       1.0  0.8049593413482867  0.553281735957235  0.646679614569095  1.0000
  C   C25       1.0  0.04627747016814963  0.4399681924171902  0.32011565939657066  1.0000
  C   C26       1.0  0.9537226376866386  0.5600238908438301  0.6798741103098108  1.0000
  C   C27       1.0  0.9724368618598832  0.553120651002246  0.3566034926648742  1.0000
  C   C28       1.0  0.027552823595179615  0.44686834831664163  0.6433793727191244  1.0000
  C   C29       1.0  0.8166662346016836  0.5353923605018666  0.3097635590961192  1.0000
  C   C30       1.0  0.1833242652083982  0.46460659474457344  0.6902270366332317  1.0000
  C   C31       1.0  0.7451417208006746  0.6432871329815699  0.3414165750370159  1.0000
  C   C32       1.0  0.2548608732321682  0.3567179150624612  0.6585859074263496  1.0000
  C   C33       1.0  0.9677746381929921  0.7848550506458454  0.46366927909134154  1.0000
  C   C34       1.0  0.032236999198360615  0.21514014964458997  0.5363332775703498  1.0000
  C   C35       1.0  0.04793000441299712  0.6828002012268471  0.43673744699952277  1.0000
  C   C36       1.0  0.9520691571201712  0.31718691320331527  0.5632516288113152  1.0000
  N   N1        1.0  0.755075619587096  0.15082818188813724  0.09659182745666335  1.0000
  N   N2        1.0  0.24492073540709922  0.8491728212506402  0.9034034443817731  1.0000
  N   N3        1.0  0.3983529511495121  0.7891876498306447  0.32094023889932544  1.0000
  N   N4        1.0  0.6016437876992242  0.21081535032104887  0.6790575674549615  1.0000
  N   N5        1.0  0.6928426901389032  0.8154906828672073  0.09378360832218403  1.0000
  N   N6        1.0  0.30716135267763883  0.18451044127577634  0.9062265107743599  1.0000
  N   N7        1.0  0.43039381125927895  0.12966080566834393  0.24685650571414897  1.0000
  N   N8        1.0  0.5696062223704674  0.870342246342297  0.7531476637507524  1.0000
  N   N9        1.0  0.8188172131979672  0.7671000078694024  0.41668374797625773  1.0000
  N   N10       1.0  0.18119390393399473  0.23289817460432977  0.5833214298213605  1.0000
  O   O1        1.0  0.6158103489260894  0.10162846677751254  0.04045548104687671  1.0000
  O   O2        1.0  0.3841861935571275  0.8983735269672413  0.9595391772514504  1.0000
  O   O3        1.0  0.8119072626092816  0.14603678506559706  0.21600108908827315  1.0000
  O   O4        1.0  0.1880874316575003  0.8539612289689205  0.7839939023335987  1.0000
  O   O5        1.0  0.8293718233818909  0.20113797298214564  0.03565954290756685  1.0000
  O   O6        1.0  0.17062600928893104  0.7988650365553842  0.9643385036855606  1.0000
  O   O7        1.0  0.4453102628458084  0.759317260690665  0.21445192949583722  1.0000
  O   O8        1.0  0.5546871948469628  0.24068376763490565  0.7855473441775018  1.0000
  O   O9        1.0  0.3966613827518159  0.709873944855005  0.38719422037303275  1.0000
  O   O10       1.0  0.6033337442345683  0.29013203204439014  0.6128069072773528  1.0000
  O   O11       1.0  0.35519823969448083  0.8997498336410675  0.3560206275844991  1.0000
  O   O12       1.0  0.6447999679543982  0.10025515710841404  0.6439761919284237  1.0000
  O   O13       1.0  0.7167307253602928  0.9922219445354944  0.4078322484763818  1.0000
  O   O14       1.0  0.28326649819752703  0.007772131282379702  0.5921649774234155  1.0000
