data_image0
_chemical_formula_structural       Cu4H68C32S4I4N12
_chemical_formula_sum              "Cu4 H68 C32 S4 I4 N12"
_cell_length_a       7.115831138
_cell_length_b       12.608561095160436
_cell_length_c       14.0659
_cell_angle_alpha    98.8405536529482
_cell_angle_beta     90.0
_cell_angle_gamma    90.0

_space_group_name_H-M_alt    "P 1"
_space_group_IT_number       1

loop_
  _space_group_symop_operation_xyz
  'x, y, z'

loop_
  _atom_site_type_symbol
  _atom_site_label
  _atom_site_symmetry_multiplicity
  _atom_site_fract_x
  _atom_site_fract_y
  _atom_site_fract_z
  _atom_site_occupancy
  Cu  Cu1       1.0  0.4329459117639871  0.8345719846154509  0.21718993190543054  1.0000
  Cu  Cu2       1.0  0.9329479397772644  0.6654340936332802  0.2828069952820583  1.0000
  Cu  Cu3       1.0  0.5670511176764776  0.16543206755036985  0.7828070716339327  1.0000
  Cu  Cu4       1.0  0.0670476843459937  0.3345667479426027  0.7171938315945494  1.0000
  H   H1        1.0  0.7698960098622862  0.9664453608763922  0.2276832266714734  1.0000
  H   H2        1.0  0.2699192775588912  0.5335583094298855  0.2723162125493417  1.0000
  H   H3        1.0  0.2300925876748963  0.0335522701095599  0.772318579785498  1.0000
  H   H4        1.0  0.7300932103709528  0.4664449400884507  0.7276821022939473  1.0000
  H   H5        1.0  0.9859593157759932  0.8923128392908526  0.22508187917842554  1.0000
  H   H6        1.0  0.4859741515693088  0.6076996601377473  0.2749209091797837  1.0000
  H   H7        1.0  0.0140334977128305  0.10768719963754592  0.7749174152452126  1.0000
  H   H8        1.0  0.514028499140025  0.3923140237978799  0.7250845306460575  1.0000
  H   H9        1.0  0.9149683113236335  0.9147725211770208  0.4133635567514915  1.0000
  H   H10       1.0  0.4149761205308664  0.5852319517767413  0.08663812586150502  1.0000
  H   H11       1.0  0.08503293406847938  0.08522671510389303  0.5866349161584096  1.0000
  H   H12       1.0  0.5850279354956811  0.4147704950941105  0.913364344042584  1.0000
  H   H13       1.0  0.736537995120706  0.840343822670036  0.4646361940849033  1.0000
  H   H14       1.0  0.2365415883762907  0.6596574396937954  0.035365046230005207  1.0000
  H   H15       1.0  0.2634660609058415  0.159655413610885  0.5353644116426607  1.0000
  H   H16       1.0  0.7634624676502568  0.3403434018820946  0.9646357806466028  1.0000
  H   H17       1.0  0.6706075379609473  0.9569299749582856  0.4141228829278916  1.0000
  H   H18       1.0  0.1706167524853939  0.5430720900530304  0.0858791789007611  1.0000
  H   H19       1.0  0.3293923021139591  0.0430692613226356  0.5858763009212281  1.0000
  H   H20       1.0  0.8293873035411536  0.4569287515228595  0.9141223589150655  1.0000
  H   H21       1.0  0.8636306681284296  0.8726190806331787  0.05900707551574414  1.0000
  H   H22       1.0  0.3636328560668005  0.627384589673099  0.4409923637050639  1.0000
  H   H23       1.0  0.136367766629256  0.1273817609427041  0.9409916185431939  1.0000
  H   H24       1.0  0.6363627680564576  0.3726186598452372  0.5590066620774437  1.0000
  H   H25       1.0  0.8415123804754927  0.7485803464596827  0.10328180680598112  1.0000
  H   H26       1.0  0.3415159737310773  0.7514233238466019  0.3967190542932712  1.0000
  H   H27       1.0  0.1584832436477654  0.2514188898212382  0.8967166661039201  1.0000
  H   H28       1.0  0.6584698131716706  0.2485799256717343  0.603282104306899  1.0000
  H   H29       1.0  0.9048458114212181  0.7195638372799636  0.9429531580410212  1.0000
  H   H30       1.0  0.4048522153112373  0.7804350171414215  0.5570477505503248  1.0000
  H   H31       1.0  0.0951526233364675  0.2804362016484419  0.0570468473218426  1.0000
  H   H32       1.0  0.5951448141292275  0.21956341649201513  0.4429541664811651  1.0000
  H   H33       1.0  0.7699494119164711  0.6454690401261516  0.8507217904652007  1.0000
  H   H34       1.0  0.269957221123704  0.8545322222376797  0.6492801607889332  1.0000
  H   H35       1.0  0.2300490228412144  0.3545309988022538  0.14927892583688868  1.0000
  H   H36       1.0  0.7300369976823333  0.1454670140432412  0.3507218668170751  1.0000
  H   H37       1.0  0.7201084315556442  0.6345755084786973  0.9726294578771757  1.0000
  H   H38       1.0  0.2201218620317391  0.8654249512376497  0.5273709609239887  1.0000
  H   H39       1.0  0.2798942191536895  0.3654269383921546  0.02737159014847632  1.0000
  H   H40       1.0  0.7798807886775876  0.1345758903382333  0.47262986595261935  1.0000
  H   H41       1.0  0.4560493267849068  0.6900111595811964  0.815801983838817  1.0000
  H   H42       1.0  0.9560541654326116  0.8099852868977353  0.6842021477250739  1.0000
  H   H43       1.0  0.5439561345588544  0.3099904846421779  0.1841961098554208  1.0000
  H   H44       1.0  0.0439400533734258  0.1900091334982861  0.31580134925147246  1.0000
  H   H45       1.0  0.583451169580016  0.8009595159446194  0.7788345788056006  1.0000
  H   H46       1.0  0.0834603841044625  0.6990345225918588  0.7211649553993951  1.0000
  H   H47       1.0  0.416555697080959  0.1990413256312635  0.2211662480710075  1.0000
  H   H48       1.0  0.9165464825565123  0.3009631083940931  0.2788354291791251  1.0000
  H   H49       1.0  0.3750693275655976  0.9304177259274057  0.8590326213335685  1.0000
  H   H50       1.0  0.8750797874821642  0.5695803258464878  0.6409617782302631  1.0000
  H   H51       1.0  0.6249319178265154  0.0695831156484772  0.1409653617861508  1.0000
  H   H52       1.0  0.12494113235096899  0.43041329190204897  0.3590359206579876  1.0000
  H   H53       1.0  0.2097506209822058  0.8215434106616115  0.8427271446554838  1.0000
  H   H54       1.0  0.7097568649471242  0.6784538384648046  0.6572735427868253  1.0000
  H   H55       1.0  0.7902562456787763  0.1784590362092402  0.15727034867406078  1.0000
  H   H56       1.0  0.29025000171385773  0.3215301475139327  0.3427306495386091  1.0000
  H   H57       1.0  0.24131123500530546  0.9198621088705466  0.11199303289970429  1.0000
  H   H58       1.0  0.7413160736530102  0.580141561435731  0.3880049844426665  1.0000
  H   H59       1.0  0.758692821021242  0.0801483644751428  0.8880048552358344  1.0000
  H   H60       1.0  0.2586823611046754  0.41984643778041436  0.6119976279377113  1.0000
  H   H61       1.0  0.0962543920333232  0.9278364116201416  0.009641402726941813  1.0000
  H   H62       1.0  0.5962606359982487  0.5721664560386586  0.4903557931016778  1.0000
  H   H63       1.0  0.9037482586760035  0.0721732590780633  0.9903570857732902  1.0000
  H   H64       1.0  0.40374201471108506  0.4278231484724628  0.5096477513669555  1.0000
  H   H65       1.0  0.2984022468803005  0.0117924968290879  0.03221200994821059  1.0000
  H   H66       1.0  0.7984070855280052  0.4882119371962688  0.4677861126058076  1.0000
  H   H67       1.0  0.701607430415109  0.9882139632791793  0.967782481557826  1.0000
  H   H68       1.0  0.201598375815756  0.511780075257299  0.5322191854648324  1.0000
  C   C1        1.0  0.8338435644311346  0.8863034175811253  0.2120827282589701  1.0000
  C   C2        1.0  0.3338555895900157  0.6137010553726441  0.28791682153636333  1.0000
  C   C3        1.0  0.166149249057689  0.1136942134048269  0.787917656319557  1.0000
  C   C4        1.0  0.6661442504848836  0.3863037994406612  0.7120831363344066  1.0000
  C   C5        1.0  0.7676980937374225  0.8886864779599364  0.4081901778533065  1.0000
  C   C6        1.0  0.2677016869930142  0.6113155870513722  0.0918097511576761  1.0000
  C   C7        1.0  0.2323031516546905  0.1113119556735001  0.5918088954212876  1.0000
  C   C8        1.0  0.7323009637163196  0.388686057171995  0.9081904753542247  1.0000
  C   C9        1.0  0.5262997290647604  0.8198602588884967  0.004951991458860016  1.0000
  C   C10       1.0  0.0263033223203522  0.680143411417788  0.4950481587011737  1.0000
  C   C11       1.0  0.47369870569292516  0.18013978003990871  0.9950494357824481  1.0000
  C   C12       1.0  0.9736866805340441  0.31985261427320216  0.5049562703636354  1.0000
  C   C13       1.0  0.7876367343892952  0.8316672033722909  0.111093717667174  1.0000
  C   C14       1.0  0.2876445435965351  0.6683372695814711  0.3889051211889409  1.0000
  C   C15       1.0  0.2123574844167422  0.16833283555611442  0.8889048658172525  1.0000
  C   C16       1.0  0.712351080526723  0.33166517728938066  0.6110937940190482  1.0000
  C   C17       1.0  0.7625447955086102  0.6904606421720132  0.9237020104912473  1.0000
  C   C18       1.0  0.2625554153502705  0.8095390148968493  0.5762975867961798  1.0000
  C   C19       1.0  0.2374550445662891  0.309541002051354  0.0763003488383234  1.0000
  C   C20       1.0  0.7374444247246288  0.19046022138407182  0.42370230799216557  1.0000
  C   C21       1.0  0.5067349027921821  0.7728941440329677  0.8381252267967126  1.0000
  C   C22       1.0  0.0067399013649805  0.7271063156833719  0.6618730591867886  1.0000
  C   C23       1.0  0.4932705585515791  0.2271099081328529  0.1618731986210946  1.0000
  C   C24       1.0  0.9932585333927051  0.2728921179500574  0.3381267250270312  1.0000
  C   C25       1.0  0.3461774109345086  0.8483911663406333  0.8740343655632827  1.0000
  C   C26       1.0  0.8461864655338616  0.6516052801382913  0.6259619456691681  1.0000
  C   C27       1.0  0.6538266450920389  0.1516096752352496  0.1259629066172181  1.0000
  C   C28       1.0  0.1538260223959824  0.34838432437282313  0.3740387550425836  1.0000
  C   C29       1.0  0.241425065699751  0.9312300051808151  0.036114357598101804  1.0000
  C   C30       1.0  0.7414313096646765  0.5687736651254696  0.46388365974426893  1.0000
  C   C31       1.0  0.7585747743751483  0.0687772575749435  0.9638830882393491  1.0000
  C   C32       1.0  0.2585671250930091  0.4312167420331292  0.5361192843596712  1.0000
  S   S1        1.0  0.7307017127252137  0.8041676979365775  0.2940655028598655  1.0000
  S   S2        1.0  0.2307053059807984  0.6958351697222156  0.20593311484719828  1.0000
  S   S3        1.0  0.2692953167152581  0.1958307356968518  0.7059328594755099  1.0000
  S   S4        1.0  0.7692917234596663  0.3041672771486361  0.7940665113000093  1.0000
  I   I1        1.0  0.3095098741506987  0.0056763230040389  0.32474703324359666  1.0000
  I   I2        1.0  0.8095175234328309  0.494324900431387  0.1752513579515664  1.0000
  I   I3        1.0  0.6904829393381249  0.9943253212193357  0.6752510604506482  1.0000
  I   I4        1.0  0.190489343228144  0.5056751384970113  0.8247486474112975  1.0000
  N   N1        1.0  0.5851544140450642  0.8365962615690918  0.09432701823953951  1.0000
  N   N2        1.0  0.0851622232522971  0.6634082113846702  0.40566826592046107  1.0000
  N   N3        1.0  0.414835588809332  0.1634061853017599  0.905666920393898  1.0000
  N   N4        1.0  0.9148362115053885  0.3365902222487663  0.5943300964149145  1.0000
  N   N5        1.0  0.6267728833786705  0.7776337774236453  0.9238505785056502  1.0000
  N   N6        1.0  0.1267750713170486  0.7223666822927017  0.5761469965386254  1.0000
  N   N7        1.0  0.3732283620134424  0.2223670641522446  0.0761481155532877  1.0000
  N   N8        1.0  0.8732177421717822  0.2776341592831884  0.4238509865810939  1.0000
  N   N9        1.0  0.3477049907476299  0.8471936162951013  0.9779963905598519  1.0000
  N   N10       1.0  0.8477098293953347  0.6528100540111837  0.5219994939648487  1.0000
  N   N11       1.0  0.6522906333756211  0.1528104358707196  0.021999191101066604  1.0000
  N   N12       1.0  0.1522857947279164  0.34718436638483763  0.4780011592548091  1.0000
