data_image0
_chemical_formula_structural       Cd4H16C28N12Cl4O8
_chemical_formula_sum              "Cd4 H16 C28 N12 Cl4 O8"
_cell_length_a       7.2876538939663975
_cell_length_b       10.641488442690067
_cell_length_c       10.930755999192193
_cell_angle_alpha    90.00092675224467
_cell_angle_beta     108.22874500948117
_cell_angle_gamma    89.99885571227954

_space_group_name_H-M_alt    "P 1"
_space_group_IT_number       1

loop_
  _space_group_symop_operation_xyz
  'x, y, z'

loop_
  _atom_site_type_symbol
  _atom_site_label
  _atom_site_symmetry_multiplicity
  _atom_site_fract_x
  _atom_site_fract_y
  _atom_site_fract_z
  _atom_site_occupancy
  Cd  Cd1       1.0  0.0087227113938937  0.07761416170527008  0.351299170802271  1.0000
  Cd  Cd2       1.0  0.9912734334888427  0.5776176729703053  0.14869802020973574  1.0000
  Cd  Cd3       1.0  0.9912792528856612  0.9223893561881978  0.6486981389699409  1.0000
  Cd  Cd4       1.0  0.008719870435697897  0.4223867846927191  0.8512984272934289  1.0000
  H   H1        1.0  0.8903696008732779  0.713283965191799  0.8782253965371254  1.0000
  H   H2        1.0  0.1096303359213024  0.21328846064793786  0.6217716968391471  1.0000
  H   H3        1.0  0.10963093406502367  0.2867167335694986  0.121773449631597  1.0000
  H   H4        1.0  0.8903730883118256  0.7867150572532252  0.37822774224653705  1.0000
  H   H5        1.0  0.6897678756014826  0.2706165410176665  0.1410447990290535  1.0000
  H   H6        1.0  0.31023073147743213  0.7706186260038808  0.3589513681545782  1.0000
  H   H7        1.0  0.3102210638317259  0.7293813386101177  0.8589470933608894  1.0000
  H   H8        1.0  0.6897784944167141  0.22937925358155545  0.6410520059982261  1.0000
  H   H9        1.0  0.49702151789063  0.273257248515378  0.9067527481330871  1.0000
  H   H10       1.0  0.5029755449364542  0.7732561054751484  0.5932492760369144  1.0000
  H   H11       1.0  0.5029602211066474  0.7267443900441606  0.09324041131644381  1.0000
  H   H12       1.0  0.49703368862514447  0.22673989468146513  0.4067550145370761  1.0000
  H   H13       1.0  0.5332327971918217  0.08917634530548917  0.7677362755328829  1.0000
  H   H14       1.0  0.46675433129768606  0.5891704668527495  0.7322617204189329  1.0000
  H   H15       1.0  0.466757602160463  0.910824353484493  0.23225774618569525  1.0000
  H   H16       1.0  0.5332535340783267  0.41082271423174177  0.26775143800185935  1.0000
  C   C1        1.0  0.6888372500228427  0.18932854463500354  0.08019047952184624  1.0000
  C   C2        1.0  0.3111518423970168  0.6893335003588205  0.4198088566931731  1.0000
  C   C3        1.0  0.3111574527685974  0.810670274666677  0.9198007658141734  1.0000
  C   C4        1.0  0.6888530495031374  0.31066437924855705  0.5801936281069402  1.0000
  C   C5        1.0  0.5856558424492063  0.19191686467174662  0.9479663972152822  1.0000
  C   C6        1.0  0.4143259283479351  0.6919181188857237  0.5520376096164412  1.0000
  C   C7        1.0  0.41434032020382716  0.8080894723829528  0.052026977474639594  1.0000
  C   C8        1.0  0.5856832898787516  0.3080816401285347  0.44796484811518417  1.0000
  C   C9        1.0  0.6054229555882459  0.09205131232533148  0.8716256023560618  1.0000
  C   C10       1.0  0.39456122848265807  0.592047514756075  0.6283736644930684  1.0000
  C   C11       1.0  0.3945645773335967  0.9079522056562866  0.1283705757697433  1.0000
  C   C12       1.0  0.6054292778230631  0.40795882244798776  0.3716331872938455  1.0000
  C   C13       1.0  0.7208763728056907  0.989729016805668  0.931062374856225  1.0000
  C   C14       1.0  0.27912691953957136  0.4897265919036044  0.5689406837248683  1.0000
  C   C15       1.0  0.279118383450971  0.010273561421222198  0.06893528551901802  1.0000
  C   C16       1.0  0.7208779952824641  0.5102722274444602  0.43106455037415975  1.0000
  C   C17       1.0  0.7624311317818738  0.8852906676118971  0.8570169116547249  1.0000
  C   C18       1.0  0.23754872748735778  0.3852956639435235  0.6429815202939082  1.0000
  C   C19       1.0  0.23755783818317155  0.11471097091857269  0.14297864648058578  1.0000
  C   C20       1.0  0.7624504087105207  0.6147003362792985  0.3570225279863666  1.0000
  C   C21       1.0  0.9109011240147211  0.8777255245724404  0.13111075200234282  1.0000
  C   C22       1.0  0.08910501299799019  0.377719338072815  0.3688932245956948  1.0000
  C   C23       1.0  0.08910230783987319  0.12227987277255888  0.8688896035247353  1.0000
  C   C24       1.0  0.9109070869940508  0.6222738428921417  0.6311089095710684  1.0000
  C   C25       1.0  0.8069529582222258  0.9900173063468998  0.06531416615289494  1.0000
  C   C26       1.0  0.19306052826556908  0.4900126801393441  0.4346912606435609  1.0000
  C   C27       1.0  0.19304901371327784  0.009985271835908796  0.9346840600455478  1.0000
  C   C28       1.0  0.8069486976860603  0.5099805008552564  0.5653121134839765  1.0000
  N   N1        1.0  0.7953130575267053  0.09096423993091919  0.137646327767044  1.0000
  N   N2        1.0  0.2046900222943648  0.5909612289664636  0.3623570712244586  1.0000
  N   N3        1.0  0.20468313578464864  0.9090355191266468  0.8623507126126456  1.0000
  N   N4        1.0  0.7953163601487033  0.4090357109604739  0.6376512086092205  1.0000
  N   N5        1.0  0.924730220393016  0.778398511699315  0.059723120076078925  1.0000
  N   N6        1.0  0.0752711391339176  0.2783974484694554  0.4402801387202544  1.0000
  N   N7        1.0  0.07526744810334661  0.2216059459717954  0.9402778825049224  1.0000
  N   N8        1.0  0.9247323004341227  0.7216023105740632  0.5597211332077876  1.0000
  N   N9        1.0  0.8544750687629301  0.7867104394342588  0.9283209669907465  1.0000
  N   N10       1.0  0.14552161898012628  0.2867098647557285  0.571675703307406  1.0000
  N   N11       1.0  0.14552978482294776  0.2132949578809118  0.0716769356933682  1.0000
  N   N12       1.0  0.8544789159696718  0.7132898942874065  0.42832314285626444  1.0000
  Cl  Cl1       1.0  0.2651761643343846  0.988996948346191  0.5544091403520213  1.0000
  Cl  Cl2       1.0  0.7348242565491745  0.4889983383478835  0.9455933174731045  1.0000
  Cl  Cl3       1.0  0.7348243706614069  0.010999051824278199  0.4455897057914342  1.0000
  Cl  Cl4       1.0  0.265179198284784  0.5110033001469814  0.0544097873276144  1.0000
  O   O1        1.0  0.9836719349616132  0.8739859691530613  0.25411538614515916  1.0000
  O   O2        1.0  0.016330005515555995  0.3739730986495431  0.2458931594264371  1.0000
  O   O3        1.0  0.0163286152311102  0.126017548777746  0.7458852929013061  1.0000
  O   O4        1.0  0.9836691383612787  0.6260200824262866  0.7541118052699576  1.0000
  O   O5        1.0  0.7240765414986895  0.8864204100288118  0.7360538353891641  1.0000
  O   O6        1.0  0.27590613368432315  0.3864174861924638  0.763939702983322  1.0000
  O   O7        1.0  0.27592829683276676  0.1135821681168494  0.2639422344172147  1.0000
  O   O8        1.0  0.7240930102270012  0.6135728757288703  0.2360652616979166  1.0000
