data_image0
_chemical_formula_structural       Cd2H40C56N8O8
_chemical_formula_sum              "Cd2 H40 C56 N8 O8"
_cell_length_a       7.517236965870809
_cell_length_b       13.441465857033661
_cell_length_c       13.441243846146728
_cell_angle_alpha    107.75067433427738
_cell_angle_beta     106.04026300311627
_cell_angle_gamma    106.040592009062

_space_group_name_H-M_alt    "P 1"
_space_group_IT_number       1

loop_
  _space_group_symop_operation_xyz
  'x, y, z'

loop_
  _atom_site_type_symbol
  _atom_site_label
  _atom_site_symmetry_multiplicity
  _atom_site_fract_x
  _atom_site_fract_y
  _atom_site_fract_z
  _atom_site_occupancy
  Cd  Cd1       1.0  0.2500016416931461  0.8548815916127667  0.1451230356855931  1.0000
  Cd  Cd2       1.0  0.7499925222123663  0.1451221078287972  0.8548839411189919  1.0000
  H   H1        1.0  0.3615452532130376  0.02969874316291771  0.552269713330972  1.0000
  H   H2        1.0  0.13845356559438945  0.4477368467590426  0.970307363855426  1.0000
  H   H3        1.0  0.6384730728789236  0.9703161756972776  0.44774658975352816  1.0000
  H   H4        1.0  0.8615338631544275  0.5522650960535672  0.029696569778749876  1.0000
  H   H5        1.0  0.6138266606407183  0.09670672665697569  0.31284808874639947  1.0000
  H   H6        1.0  0.8861644574144092  0.6871469794320362  0.9032960912351486  1.0000
  H   H7        1.0  0.38616430097304294  0.9032944133607187  0.6871501773962196  1.0000
  H   H8        1.0  0.11382092833502362  0.3128498802556762  0.09670448068042252  1.0000
  H   H9        1.0  0.7896759847189255  0.2859629085673916  0.31637836619477616  1.0000
  H   H10       1.0  0.7103139077125746  0.6836151142634748  0.7140375370788589  1.0000
  H   H11       1.0  0.21031598664790618  0.7140357142282668  0.6836140683850261  1.0000
  H   H12       1.0  0.2896811469512172  0.31637762847292816  0.2859609899649699  1.0000
  H   H13       1.0  0.36888417691707076  0.1634390234054806  0.9701974331945282  1.0000
  H   H14       1.0  0.13110842780293547  0.029793732240683796  0.836552419362015  1.0000
  H   H15       1.0  0.6310955233058948  0.8365535607035072  0.02979724545613046  1.0000
  H   H16       1.0  0.8688774579975557  0.9701997578853961  0.1634464456403535  1.0000
  H   H17       1.0  0.6575480828058885  0.3193110219058397  0.13940843760000385  1.0000
  H   H18       1.0  0.8424434757700681  0.8605799282156782  0.6806850744201399  1.0000
  H   H19       1.0  0.3424388223986557  0.680684172899419  0.8605821781031228  1.0000
  H   H20       1.0  0.15754680730042742  0.13941192213897585  0.3193109713387727  1.0000
  H   H21       1.0  0.7611560223624352  0.8968546113087613  0.2971052228605658  1.0000
  H   H22       1.0  0.7388399173369463  0.7029028550941588  0.10315279236972681  1.0000
  H   H23       1.0  0.23885415490691025  0.10315431495398292  0.702909495090239  1.0000
  H   H24       1.0  0.26114585238675403  0.29710075864795027  0.8968506623377908  1.0000
  H   H25       1.0  0.5162790611590253  0.30381766633565394  0.4059482949071481  1.0000
  H   H26       1.0  0.9837372081690602  0.5940540710075624  0.6961987487834023  1.0000
  H   H27       1.0  0.48371412867927444  0.6961868748336856  0.5940476346114779  1.0000
  H   H28       1.0  0.016270147864787535  0.40594048678656247  0.3038029333943086  1.0000
  H   H29       1.0  0.7500124059705371  0.6990705332990785  0.30094250782613596  1.0000
  H   H30       1.0  0.2500227010574534  0.300928542427478  0.6990506081288077  1.0000
  H   H31       1.0  0.9976446413249747  0.7809828333382571  0.5048131982171854  1.0000
  H   H32       1.0  0.5023908296678384  0.4951969171491797  0.2190273109509278  1.0000
  H   H33       1.0  0.002370568644167349  0.21901940377782841  0.49518756839896844  1.0000
  H   H34       1.0  0.4976404695464679  0.5048046472329303  0.7809704625344838  1.0000
  H   H35       1.0  0.7500020220398368  0.2769276979816411  0.7230614150311541  1.0000
  H   H36       1.0  0.24999866474935575  0.7230592040603058  0.2769257443321039  1.0000
  H   H37       1.0  0.5173728507578729  0.18759717806056395  0.5192954115412789  1.0000
  H   H38       1.0  0.9826278111491289  0.4806931975361692  0.8124046368840255  1.0000
  H   H39       1.0  0.4826265211033134  0.812398150693028  0.4806911702189682  1.0000
  H   H40       1.0  0.017366309642916657  0.5192961628671284  0.1875889874456647  1.0000
  C   C1        1.0  0.20374382402619057  0.017442596852454504  0.5300012068801295  1.0000
  C   C2        1.0  0.29625261687274224  0.4700059379528697  0.9825624861962654  1.0000
  C   C3        1.0  0.7962692307397391  0.9825705768544568  0.4700174849361575  1.0000
  C   C4        1.0  0.7037305798926566  0.5299959635217774  0.0174370776046118  1.0000
  C   C5        1.0  0.06934883852246548  0.9606155232724943  0.41550734010998985  1.0000
  C   C6        1.0  0.43065065392084284  0.5845016260150402  0.03938879788242391  1.0000
  C   C7        1.0  0.9306644214072007  0.0393959675973008  0.5845071440978346  1.0000
  C   C8        1.0  0.5693331023930168  0.4155011256395299  0.9606103681042202  1.0000
  C   C9        1.0  0.1444694399006253  0.9210159494014363  0.32507051509097107  1.0000
  C   C10       1.0  0.35553195668116205  0.6749363615220079  0.0789900387371604  1.0000
  C   C11       1.0  0.8555449391259556  0.0789972418282119  0.6749431734883943  1.0000
  C   C12       1.0  0.6444675280785004  0.3250733032463202  0.9210151130675331  1.0000
  C   C13       1.0  0.33711141462649846  0.04622015405039549  0.05158858074458549  1.0000
  C   C14       1.0  0.16287892389404143  0.9484124795497664  0.953770544986817  1.0000
  C   C15       1.0  0.6628758948091971  0.9537775716122496  0.9484095715881581  1.0000
  C   C16       1.0  0.8371106240538068  0.05158442449943831  0.04622917919250825  1.0000
  C   C17       1.0  0.5659169216731356  0.11518025979630409  0.23848171129507287  1.0000
  C   C18       1.0  0.9340768649530345  0.7615183232495893  0.8848173077383237  1.0000
  C   C19       1.0  0.4340723114488157  0.8848183318412666  0.7615140214548435  1.0000
  C   C20       1.0  0.06591098441086983  0.23847603112368893  0.11518211914953723  1.0000
  C   C21       1.0  0.6612014459218116  0.22081456398274926  0.2400196953560326  1.0000
  C   C22       1.0  0.8387886265838559  0.7599690354014186  0.7791882712883479  1.0000
  C   C23       1.0  0.3387899858351418  0.7791832077691085  0.7599746277721525  1.0000
  C   C24       1.0  0.1612036200500455  0.24002367920043352  0.22080833635605762  1.0000
  C   C25       1.0  0.42447759501268206  0.15038468761240864  0.047023610965226226  1.0000
  C   C26       1.0  0.07551543283260312  0.9529657675950034  0.849615194515579  1.0000
  C   C27       1.0  0.5755060223678045  0.8496096254229144  0.952971446089329  1.0000
  C   C28       1.0  0.9244718171056902  0.04702773832608641  0.15038164871819504  1.0000
  C   C29       1.0  0.5881200688296456  0.23791794987293002  0.1420716991222478  1.0000
  C   C30       1.0  0.9118729007400503  0.8579240357940139  0.7620747173615997  1.0000
  C   C31       1.0  0.4118648927500672  0.7620763798212593  0.8579198454295565  1.0000
  C   C32       1.0  0.08811682278199844  0.14206696438071734  0.23792172621154614  1.0000
  C   C33       1.0  0.8653861081120341  0.9432096989426102  0.3859299730529104  1.0000
  C   C34       1.0  0.6346073190716766  0.6140810931672576  0.05679622591970464  1.0000
  C   C35       1.0  0.1346249830904895  0.056802610517102906  0.6140881568778839  1.0000
  C   C36       1.0  0.3653742286378901  0.38592247880496455  0.9432036043215891  1.0000
  C   C37       1.0  0.7500202407480072  0.4563665373207968  0.5436466836836829  1.0000
  C   C38       1.0  0.24998846913602804  0.5436322590334158  0.4563490682548449  1.0000
  C   C39       1.0  0.7500110885340803  0.5245585319883618  0.47544145028496854  1.0000
  C   C40       1.0  0.2499993099646148  0.4754428144737021  0.5245538535779489  1.0000
  C   C41       1.0  0.6179626580608469  0.3415749837438327  0.49486096585456363  1.0000
  C   C42       1.0  0.8820466684000575  0.5051338437188164  0.6584254007809563  1.0000
  C   C43       1.0  0.38203990612281313  0.6584229048655602  0.5051335812005676  1.0000
  C   C44       1.0  0.11796287629950088  0.49485989462152696  0.3415741264079415  1.0000
  C   C45       1.0  0.7500208764483745  0.6489517165949081  0.35106441525113763  1.0000
  C   C46       1.0  0.2500057109883542  0.351048952813855  0.6489353491518203  1.0000
  C   C47       1.0  0.8857754822475667  0.6934402850156047  0.46344703753727867  1.0000
  C   C48       1.0  0.614254548375314  0.5365623493841342  0.3065658923766606  1.0000
  C   C49       1.0  0.11424112176722903  0.3065619665996948  0.5365539434115122  1.0000
  C   C50       1.0  0.38576586345317315  0.46343741357559776  0.6934304310416624  1.0000
  C   C51       1.0  0.7499972358761582  0.32702037141300627  0.6729639992417804  1.0000
  C   C52       1.0  0.2500057289840072  0.672969929620926  0.3270245503328724  1.0000
  C   C53       1.0  0.6188694593359683  0.2770366669561852  0.5586563044451582  1.0000
  C   C54       1.0  0.8811481062833477  0.4413432179042828  0.7229687065453305  1.0000
  C   C55       1.0  0.3811301974432483  0.7229569755048217  0.4413320326432598  1.0000
  C   C56       1.0  0.11885326933671087  0.5586487510356265  0.2770245816722153  1.0000
  N   N1        1.0  0.40969429456250583  0.030736370478265905  0.1470262124585986  1.0000
  N   N2        1.0  0.09029200479105287  0.8529646808423551  0.9692636193159888  1.0000
  N   N3        1.0  0.5902935843909348  0.9692622049323706  0.8529722874269937  1.0000
  N   N4        1.0  0.9096936359685583  0.1470304938485754  0.030736471826521932  1.0000
  N   N5        1.0  0.8875008870891177  0.6326943647385761  0.5259494312798269  1.0000
  N   N6        1.0  0.6125477334921784  0.47405982674802544  0.3673191847543152  1.0000
  N   N7        1.0  0.1125143228800242  0.3673078723775094  0.474051335336327  1.0000
  N   N8        1.0  0.38747243329542874  0.5259416207765639  0.6326783648041431  1.0000
  O   O1        1.0  0.013983574542109774  0.8555415756501645  0.2232015964839675  1.0000
  O   O2        1.0  0.4860258845487023  0.7768088723069724  0.14446105281855642  1.0000
  O   O3        1.0  0.9860249440204424  0.1444647992089259  0.776815805643686  1.0000
  O   O4        1.0  0.5139816200694866  0.2231983460076208  0.8555423205548182  1.0000
  O   O5        1.0  0.33282377488999515  0.9545259318097051  0.3492071826837702  1.0000
  O   O6        1.0  0.16718150194321896  0.6508033812731358  0.04548942849504566  1.0000
  O   O7        1.0  0.667188719690834  0.045494836383589594  0.6508055807397355  1.0000
  O   O8        1.0  0.8328200656929639  0.3492113648923549  0.9545220664965658  1.0000
