data_image0
_chemical_formula_structural       Cu2H14C20N4O14
_chemical_formula_sum              "Cu2 H14 C20 N4 O14"
_cell_length_a       6.622574221367817
_cell_length_b       9.644271255316674
_cell_length_c       9.50880893850663
_cell_angle_alpha    96.42908604492978
_cell_angle_beta     109.52264369800106
_cell_angle_gamma    94.35330427420867

_space_group_name_H-M_alt    "P 1"
_space_group_IT_number       1

loop_
  _space_group_symop_operation_xyz
  'x, y, z'

loop_
  _atom_site_type_symbol
  _atom_site_label
  _atom_site_symmetry_multiplicity
  _atom_site_fract_x
  _atom_site_fract_y
  _atom_site_fract_z
  _atom_site_occupancy
  Cu  Cu1       1.0  0.42349548835265705  0.8685964579529188  0.4521476834890096  1.0000
  Cu  Cu2       1.0  0.5764981378496117  0.1313984267232584  0.5478450835252388  1.0000
  H   H1        1.0  0.39444368623937026  0.9803308243347932  0.12983242392311217  1.0000
  H   H2        1.0  0.605551075918882  0.019669396345847207  0.8701727445251277  1.0000
  H   H3        1.0  0.04141825860445891  0.3333704474263684  0.3809375446217658  1.0000
  H   H4        1.0  0.9585793830902605  0.6666286707678567  0.619059742851924  1.0000
  H   H5        1.0  0.001548868103697005  0.19077223517778924  0.030641029783055312  1.0000
  H   H6        1.0  0.9984474661939731  0.8092373873479276  0.9693570942555069  1.0000
  H   H7        1.0  0.6472289705616135  0.6199247625397605  0.16885872279845426  1.0000
  H   H8        1.0  0.3527754953646749  0.38007648665280414  0.831142442445838  1.0000
  H   H9        1.0  0.25964141994402473  0.5615121855172873  0.2847265075890347  1.0000
  H   H10       1.0  0.7403692668371563  0.4384880266547384  0.7152759538517302  1.0000
  H   H11       1.0  0.2544412706391341  0.5723676773079164  0.44863438908825504  1.0000
  H   H12       1.0  0.7455681590668349  0.4276346190109735  0.5513659090608057  1.0000
  H   H13       1.0  0.010683297069825024  0.7339334856357811  0.3032444510095472  1.0000
  H   H14       1.0  0.989315947286791  0.26606563608807937  0.696753199583334  1.0000
  C   C1        1.0  0.7659528538779412  0.8648919380757222  0.23387215220596147  1.0000
  C   C2        1.0  0.23404161649166613  0.13510718766089275  0.7661265217624871  1.0000
  C   C3        1.0  0.7385282062725337  0.014075888243169703  0.24070025483940322  1.0000
  C   C4        1.0  0.2614681415482849  0.9859243286662792  0.7593042203614573  1.0000
  C   C5        1.0  0.5346300636609983  0.058823774897291514  0.181143453181086  1.0000
  C   C6        1.0  0.46536268225136723  0.9411743253739151  0.8188589268541406  1.0000
  C   C7        1.0  0.5121299573908048  0.20197296694228584  0.1904436781556385  1.0000
  C   C8        1.0  0.4878647707687947  0.7980272391367083  0.8095593775594451  1.0000
  C   C9        1.0  0.6969464395616711  0.3019515615691973  0.2610027658155474  1.0000
  C   C10       1.0  0.3030478750139168  0.6980465276299912  0.7389978646057286  1.0000
  C   C11       1.0  0.898565246202985  0.2581124489667631  0.3223755274838283  1.0000
  C   C12       1.0  0.1014290343739503  0.7418856256307649  0.6776229902042914  1.0000
  C   C13       1.0  0.9209605667171844  0.11435654900073902  0.31158632127581143  1.0000
  C   C14       1.0  0.07903724777088435  0.8856436130317323  0.6884100661116292  1.0000
  C   C15       1.0  0.1330584318314578  0.06942188305788481  0.3763945933513567  1.0000
  C   C16       1.0  0.8669393996559409  0.9305782862754132  0.623602850402655  1.0000
  C   C17       1.0  0.296681005961652  0.25206109391263  0.13701285049584302  1.0000
  C   C18       1.0  0.7033142031031331  0.7479328161623615  0.862990687023057  1.0000
  C   C19       1.0  0.6862573033280555  0.45747939524287773  0.27907827352510844  1.0000
  C   C20       1.0  0.3137471795975629  0.5425218612505136  0.7209239480857619  1.0000
  N   N1        1.0  0.9706949389265419  0.8358329177500325  0.29816473720264713  1.0000
  N   N2        1.0  0.029304546220736007  0.16416727701538045  0.7018362387702979  1.0000
  N   N3        1.0  0.15327491726478115  0.9318188103308386  0.3675018485742712  1.0000
  N   N4        1.0  0.8467255501683797  0.06817821264449722  0.6324958525771649  1.0000
  O   O1        1.0  0.6094201986095342  0.7688981220521357  0.17153467747676396  1.0000
  O   O2        1.0  0.39058069940696083  0.23110102510383979  0.828466505335058  1.0000
  O   O3        1.0  0.29577377603520466  0.1643393669864111  0.4407253071139151  1.0000
  O   O4        1.0  0.7042268811906284  0.8356587071279977  0.5592725503178427  1.0000
  O   O5        1.0  0.2608769022447747  0.3733085000067292  0.16275149306436992  1.0000
  O   O6        1.0  0.7391225155813218  0.626700107642485  0.8372514263985735  1.0000
  O   O7        1.0  0.1363367845598091  0.14778296309799543  0.05642418677766871  1.0000
  O   O8        1.0  0.8636568253192608  0.8522203563644555  0.9435736928263125  1.0000
  O   O9        1.0  0.6672643073820554  0.5125599590461931  0.15633887206090694  1.0000
  O   O10       1.0  0.33274301828133457  0.48743920952914277  0.843664819594288  1.0000
  O   O11       1.0  0.7081325471287699  0.5230254648348448  0.40415923416123417  1.0000
  O   O12       1.0  0.29187010934362695  0.476974722388178  0.5958403553169517  1.0000
  O   O13       1.0  0.2243433084792414  0.6237401492388344  0.35952419927465934  1.0000
  O   O14       1.0  0.7756694993438489  0.37626319797757196  0.6404759250265427  1.0000
