data_image0
_chemical_formula_structural       Al4H19C26ClO22
_chemical_formula_sum              "Al4 H19 C26 Cl1 O22"
_cell_length_a       6.649943552723033
_cell_length_b       13.489289787803349
_cell_length_c       16.98879887230923
_cell_angle_alpha    90.03899075413182
_cell_angle_beta     88.65894238511913
_cell_angle_gamma    88.72029461415664

_space_group_name_H-M_alt    "P 1"
_space_group_IT_number       1

loop_
  _space_group_symop_operation_xyz
  'x, y, z'

loop_
  _atom_site_type_symbol
  _atom_site_label
  _atom_site_symmetry_multiplicity
  _atom_site_fract_x
  _atom_site_fract_y
  _atom_site_fract_z
  _atom_site_occupancy
  Al  Al1       1.0  0.8808639711874452  0.5046699849055969  0.5049541580195368  1.0000
  Al  Al2       1.0  0.3818738401769651  0.5030321266415427  0.5006824588850024  1.0000
  Al  Al3       1.0  0.38683745954973864  0.9974279248361811  0.0030021316797502  1.0000
  Al  Al4       1.0  0.8873819006361574  0.995715127528442  0.0030017282503323013  1.0000
  H   H1        1.0  0.40890689550556664  0.21793212169899331  0.17755579522553697  1.0000
  H   H2        1.0  0.9647196684741817  0.1718180835894287  0.21515295320288175  1.0000
  H   H3        1.0  0.41316697678372805  0.30101634677208006  0.3018053973376666  1.0000
  H   H4        1.0  0.8562458209646168  0.30691197213300825  0.6986146953408297  1.0000
  H   H5        1.0  0.8501183857423629  0.22082029396765526  0.8212651786351018  1.0000
  H   H6        1.0  0.2997729022711938  0.1712056492209371  0.7893634375910994  1.0000
  H   H7        1.0  0.9339918973238852  0.7934763118813492  0.18417865957702875  1.0000
  H   H8        1.0  0.4749880376500145  0.8138192582854629  0.21127965848210556  1.0000
  H   H9        1.0  0.9407402508071385  0.6888381991014683  0.3029188348735944  1.0000
  H   H10       1.0  0.4779172003411674  0.7076336281381685  0.3082312246180906  1.0000
  H   H11       1.0  0.517100593403356  0.7656879026840147  0.8226434778300559  1.0000
  H   H12       1.0  0.9164228040252171  0.7071962180122637  0.6717702195716486  1.0000
  H   H13       1.0  0.4563595141294741  0.710459413154723  0.7013009684611478  1.0000
  H   H14       1.0  0.8296552598893217  0.4198742530790298  0.30832367132898514  1.0000
  H   H15       1.0  0.43573696664694245  0.41830461689691845  0.6978314122853675  1.0000
  H   H16       1.0  0.6429096850953615  0.37621498380096335  0.47891123643575656  1.0000
  H   H17       1.0  0.12820562448960973  0.629078195555465  0.47458214824384737  1.0000
  H   H18       1.0  0.6365765312806105  0.1167282777018528  0.9667721556381255  1.0000
  H   H19       1.0  0.14754863369264368  0.8760128158611593  0.9678339831687314  1.0000
  C   C1        1.0  0.64033546503309  0.6198952049366752  0.3935833751920087  1.0000
  C   C2        1.0  0.6099478084374683  0.62191093764266  0.6088382624722543  1.0000
  C   C3        1.0  0.12648449413096335  0.39497562280689646  0.6139337419248463  1.0000
  C   C4        1.0  0.1432509727056583  0.39005057939653665  0.392572165073915  1.0000
  C   C5        1.0  0.2647070283096938  0.22471832197862804  0.20970193681391447  1.0000
  C   C6        1.0  0.10918260626976214  0.1715714822545849  0.183694501086201  1.0000
  C   C7        1.0  0.2635435308996321  0.2865473108539547  0.2791568887827083  1.0000
  C   C8        1.0  0.10767447066799461  0.3337395172295318  0.31875568024893414  1.0000
  C   C9        1.0  0.0036269411909443956  0.289761480416864  0.7234860930968028  1.0000
  C   C10       1.0  0.1612161223546452  0.33618383295529247  0.6870210794435041  1.0000
  C   C11       1.0  0.9974538363259458  0.22615278190760082  0.7917523734615204  1.0000
  C   C12       1.0  0.15302027893420703  0.17080786744152476  0.8190990441322514  1.0000
  C   C13       1.0  0.7906161763464967  0.779204859617046  0.21440071570773264  1.0000
  C   C14       1.0  0.624267786109691  0.8226109784330121  0.18452212696558234  1.0000
  C   C15       1.0  0.7937356740519945  0.715358893682712  0.2831587331505149  1.0000
  C   C16       1.0  0.6299716574009084  0.6851263068017773  0.324327709599288  1.0000
  C   C17       1.0  0.79545353474645  0.7957535164910824  0.7696686415555832  1.0000
  C   C18       1.0  0.6533055440188564  0.8086030458455723  0.8274268128869056  1.0000
  C   C19       1.0  0.7767222591954737  0.7284195093746249  0.7031795526084323  1.0000
  C   C20       1.0  0.6047422002618391  0.6915374279485461  0.6761822682788576  1.0000
  C   C21       1.0  0.6549211886611701  0.8752902944922455  0.8961831411802026  1.0000
  C   C22       1.0  0.6287462704693997  0.8852397007655741  0.11324365652874492  1.0000
  C   C23       1.0  0.12078387578434052  0.11075221964107132  0.11119334252715163  1.0000
  C   C24       1.0  0.14289569703456104  0.10967980046807212  0.8912784706192128  1.0000
  C   C25       1.0  0.8939952734464288  0.34448139253373705  0.29555931184025763  1.0000
  C   C26       1.0  0.3714914948530748  0.3452033828760576  0.7133634176573694  1.0000
  Cl  Cl1       1.0  0.020300644736138893  0.8584516897928867  0.7666817482078943  1.0000
  O   O1        1.0  0.4432697598642649  0.5842912267777293  0.5904591250806561  1.0000
  O   O2        1.0  0.8115478346369759  0.585609865285818  0.41429987216157843  1.0000
  O   O3        1.0  0.9825757309287086  0.40271591643281823  0.4350470465793849  1.0000
  O   O4        1.0  0.778856267973083  0.6047973308303439  0.5737821160258677  1.0000
  O   O5        1.0  0.9525228924588448  0.4278495103666771  0.5968570252446954  1.0000
  O   O6        1.0  0.47130521106572604  0.6026340033566697  0.4282467301661655  1.0000
  O   O7        1.0  0.6346826544562705  0.4419162380274527  0.5020066419896596  1.0000
  O   O8        1.0  0.28632345998615705  0.4059639896609823  0.5717934896589726  1.0000
  O   O9        1.0  0.316878862666016  0.41959375547581607  0.410043308074208  1.0000
  O   O10       1.0  0.1295037992282957  0.5651119340028359  0.5004879420002198  1.0000
  O   O11       1.0  0.7968335438188563  0.899813387464384  0.07831158131355662  1.0000
  O   O12       1.0  0.4834163195461728  0.8930782500925218  0.9295638495698884  1.0000
  O   O13       1.0  0.3144781725204029  0.07721716634974031  0.9137536325641237  1.0000
  O   O14       1.0  0.4579932821866708  0.919330349482827  0.0918990512501665  1.0000
  O   O15       1.0  0.28951402497401096  0.09705045622254718  0.07538095488283862  1.0000
  O   O16       1.0  0.8226440547817833  0.9084975975760586  0.9176422059410216  1.0000
  O   O17       1.0  0.6353861392774505  0.05748766597563561  0.999084575557966  1.0000
  O   O18       1.0  0.9533083956146843  0.0764021625739915  0.0898837092965223  1.0000
  O   O19       1.0  0.9736481977247212  0.09443931979154029  0.9255625525209156  1.0000
  O   O20       1.0  0.14055446408710284  0.934596372331143  0.0010387862400734003  1.0000
  O   O21       1.0  0.7891407230435166  0.28226121928673825  0.2646796511009201  1.0000
  O   O22       1.0  0.4736187562906907  0.284249804547791  0.7495706961315707  1.0000
