data_image0
_chemical_formula_structural       Cu4H48C40N4O16
_chemical_formula_sum              "Cu4 H48 C40 N4 O16"
_cell_length_a       8.773643690590674
_cell_length_b       13.014286761501598
_cell_length_c       14.099111507140938
_cell_angle_alpha    117.50729471740136
_cell_angle_beta     92.81353894658949
_cell_angle_gamma    89.99499232759689

_space_group_name_H-M_alt    "P 1"
_space_group_IT_number       1

loop_
  _space_group_symop_operation_xyz
  'x, y, z'

loop_
  _atom_site_type_symbol
  _atom_site_label
  _atom_site_symmetry_multiplicity
  _atom_site_fract_x
  _atom_site_fract_y
  _atom_site_fract_z
  _atom_site_occupancy
  Cu  Cu1       1.0  0.9210566640712161  0.42568450005527575  0.4168002887848344  1.0000
  Cu  Cu2       1.0  0.57893378838439  0.0087670948898051  0.583168425944038  1.0000
  Cu  Cu3       1.0  0.0789467951823966  0.5743149293980494  0.5832000935674557  1.0000
  Cu  Cu4       1.0  0.42105387273523587  0.9912375652614637  0.4168357869805346  1.0000
  H   H1        1.0  0.4906492026800322  0.4279455103599542  0.3890342310616147  1.0000
  H   H2        1.0  0.009358324002683101  0.038619467888970894  0.6107922773229575  1.0000
  H   H3        1.0  0.5093531095762175  0.5720539202506885  0.6109668223369978  1.0000
  H   H4        1.0  0.9906258584175447  0.9613826094820935  0.3892057491061394  1.0000
  H   H5        1.0  0.38010296750925937  0.3502555102132518  0.26385900017717734  1.0000
  H   H6        1.0  0.11994378095144503  0.08621115891411078  0.735939802780031  1.0000
  H   H7        1.0  0.6199005181941145  0.6497447844847528  0.7361424622315835  1.0000
  H   H8        1.0  0.8800347491257625  0.9137926615056738  0.26406019651860635  1.0000
  H   H9        1.0  0.4122368502789442  0.2880386515019566  0.3510445130133277  1.0000
  H   H10       1.0  0.0875323487696562  0.9367299791806616  0.6489139681065125  1.0000
  H   H11       1.0  0.5877676911747971  0.7119590435955844  0.6489544551697007  1.0000
  H   H12       1.0  0.9124518217528602  0.06327209548130239  0.3510854753126011  1.0000
  H   H13       1.0  0.051500299073197184  0.3100650063023593  0.7062211331911642  1.0000
  H   H14       1.0  0.4482943066882683  0.6035590843780199  0.293431217845729  1.0000
  H   H15       1.0  0.9485032540817572  0.6899378814205688  0.29378498637701256  1.0000
  H   H16       1.0  0.5517048832533719  0.3964472960440092  0.7065677362335308  1.0000
  H   H17       1.0  0.12832853749350193  0.21251209590176495  0.58234243609499  1.0000
  H   H18       1.0  0.3715688722710127  0.630340691045248  0.4174286725755323  1.0000
  H   H19       1.0  0.8716714893712167  0.787488198204521  0.41766316493775696  1.0000
  H   H20       1.0  0.6284288790857104  0.36965789114097464  0.5825676084968663  1.0000
  H   H21       1.0  0.9283105336140948  0.21117843988643867  0.5952273597726716  1.0000
  H   H22       1.0  0.5715208479502749  0.6157582883715377  0.4044115807951981  1.0000
  H   H23       1.0  0.07169203188222893  0.78882792216352  0.40477737461266367  1.0000
  H   H24       1.0  0.4284793210467869  0.384243756542446  0.5955855529254136  1.0000
  H   H25       1.0  0.789375993455387  0.3822420811050549  0.19157744526932416  1.0000
  H   H26       1.0  0.7108136132829443  0.19080801170252928  0.8082599929663772  1.0000
  H   H27       1.0  0.2106276013415425  0.6177608160997679  0.8084237148338146  1.0000
  H   H28       1.0  0.2891851369899499  0.8091888171641272  0.19174479286682808  1.0000
  H   H29       1.0  0.6030186193913211  0.2464631300041802  0.046189982286314504  1.0000
  H   H30       1.0  0.8972578314053266  0.20075332232497795  0.9536980737685495  1.0000
  H   H31       1.0  0.3969883251507086  0.7535371652855432  0.9538073414984537  1.0000
  H   H32       1.0  0.10274314806505198  0.7992417710285834  0.04630462684908566  1.0000
  H   H33       1.0  0.56615082091718  0.05709799643951639  0.22867897525945577  1.0000
  H   H34       1.0  0.9336603705864167  0.8286546444555825  0.7717605336024035  1.0000
  H   H35       1.0  0.43385825562648966  0.9428979635394015  0.7713151486253409  1.0000
  H   H36       1.0  0.0663441239166502  0.17134132150715684  0.22823556597268888  1.0000
  H   H37       1.0  0.7496319953892866  0.20109626043700496  0.3646849025562986  1.0000
  H   H38       1.0  0.7501556775537424  0.8363294161822166  0.6356444090167485  1.0000
  H   H39       1.0  0.2503714493122687  0.7989023064807486  0.6353129827495111  1.0000
  H   H40       1.0  0.24984544075446993  0.16366828645093529  0.3643544468202434  1.0000
  H   H41       1.0  0.3691117848694177  0.028934070494308597  0.07612681754920908  1.0000
  H   H42       1.0  0.1308857274093498  0.9530623930852684  0.9238335194876157  1.0000
  H   H43       1.0  0.6309008001179209  0.9710644790375864  0.9238699503560354  1.0000
  H   H44       1.0  0.8691186785010674  0.04693183426077499  0.07616467094456429  1.0000
  H   H45       1.0  0.40320661059247703  0.0951404765265806  0.9935987104306179  1.0000
  H   H46       1.0  0.0967068506598778  0.10176652427338687  0.006756625255157181  1.0000
  H   H47       1.0  0.5968014102008254  0.904858083052801  0.006397907679904292  1.0000
  H   H48       1.0  0.9032964082531766  0.8982277042299741  0.993242236223345  1.0000
  C   C1        1.0  0.24697342370164688  0.4193789354920695  0.40294883288151334  1.0000
  C   C2        1.0  0.2529762476089345  0.015916100281707198  0.5968515371813226  1.0000
  C   C3        1.0  0.7530253272114039  0.580616175076237  0.5970474163837167  1.0000
  C   C4        1.0  0.7470058352082634  0.9840911789994067  0.4031500607092155  1.0000
  C   C5        1.0  0.3923233193401856  0.3698767140820252  0.3482640016451839  1.0000
  C   C6        1.0  0.10761942955681292  0.0212718244079824  0.6515658619778222  1.0000
  C   C7        1.0  0.6076789724151581  0.6301218526384955  0.6517352632019494  1.0000
  C   C8        1.0  0.8923602124648014  0.9787302684287977  0.3484291806765397  1.0000
  C   C9        1.0  0.017980989472746997  0.3556921136684251  0.5779416781860149  1.0000
  C   C10       1.0  0.4822936128272773  0.7776451364446187  0.4215964192793391  1.0000
  C   C11       1.0  0.9820270544758075  0.6443081696275356  0.4220606425124699  1.0000
  C   C12       1.0  0.5176974449881087  0.2223586509263527  0.578406825934806  1.0000
  C   C13       1.0  0.03090760227099311  0.2673433748711176  0.6190679318500897  1.0000
  C   C14       1.0  0.46901628494446623  0.6481791855205968  0.3805641368141721  1.0000
  C   C15       1.0  0.9690959568328097  0.7326595142063608  0.38093747922307836  1.0000
  C   C16       1.0  0.530981601955574  0.351822864417123  0.6194329220090821  1.0000
  C   C17       1.0  0.7376592005736313  0.3078642367588457  0.19514590884275407  1.0000
  C   C18       1.0  0.7624687448192448  0.1128858483912083  0.8048194978779718  1.0000
  C   C19       1.0  0.26234772612183127  0.6921360544672126  0.8048535404270324  1.0000
  C   C20       1.0  0.2375300292490579  0.8871109858936777  0.19518245397521375  1.0000
  C   C21       1.0  0.6339760428979061  0.2324542059235313  0.11515493874894388  1.0000
  C   C22       1.0  0.8661876838880859  0.11762894779634785  0.8848552605336266  1.0000
  C   C23       1.0  0.3660319719465407  0.7675443523012927  0.8848423878565866  1.0000
  C   C24       1.0  0.1338133398786283  0.8823670148655581  0.11514639465546135  1.0000
  C   C25       1.0  0.5687831070165077  0.13946539206297356  0.12439356005872779  1.0000
  C   C26       1.0  0.9312099641076729  0.015389252436136794  0.8757905954183727  1.0000
  C   C27       1.0  0.4312260224266852  0.8605322984053032  0.8756027239390036  1.0000
  C   C28       1.0  0.0687933596026156  0.9846067092656909  0.12420900918306196  1.0000
  C   C29       1.0  0.6125020617051078  0.1267021098433787  0.215137660493312  1.0000
  C   C30       1.0  0.8873436262443875  0.9117670106715393  0.7851382203868836  1.0000
  C   C31       1.0  0.3875070353394748  0.8732947140256612  0.7848582519429571  1.0000
  C   C32       1.0  0.11265973581337362  0.0882298189840824  0.21486104728100489  1.0000
  C   C33       1.0  0.7159157005152823  0.2064883261705788  0.2917147462941756  1.0000
  C   C34       1.0  0.783942274390931  0.9148326423857324  0.7085230174090424  1.0000
  C   C35       1.0  0.2840899998335332  0.793509370478759  0.7082821338525206  1.0000
  C   C36       1.0  0.2160577293185355  0.08516592800397399  0.2914768810357415  1.0000
  C   C37       1.0  0.4590396541768982  0.054696017923959096  0.0391124279490143  1.0000
  C   C38       1.0  0.04092296205868001  0.015792458298911096  0.9610237764152743  1.0000
  C   C39       1.0  0.5409683018191702  0.9453008084569562  0.9608834470385759  1.0000
  C   C40       1.0  0.9590803233041428  0.9842026354491296  0.03897616511969196  1.0000
  N   N1        1.0  0.7784707688196661  0.29550165905158104  0.28238344322812736  1.0000
  N   N2        1.0  0.7214750654528077  0.0131537381311517  0.7177063275013822  1.0000
  N   N3        1.0  0.221535037328195  0.7044994985764672  0.7176177571444524  1.0000
  N   N4        1.0  0.27852375291182346  0.9868439654620785  0.28229457892326326  1.0000
  O   O1        1.0  0.12166318724778341  0.37323304637850896  0.350364766413179  1.0000
  O   O2        1.0  0.37827241914882154  0.022153735050189007  0.649370866110985  1.0000
  O   O3        1.0  0.8783379251115735  0.6267646549000927  0.6496347979188214  1.0000
  O   O4        1.0  0.6217077655539782  0.977833612251281  0.35062356540719003  1.0000
  O   O5        1.0  0.26073994382238663  0.5021527579824293  0.4982199974035807  1.0000
  O   O6        1.0  0.23925300852235412  0.003560750263091  0.5016483629405286  1.0000
  O   O7        1.0  0.7392622771868675  0.49784407418506044  0.5017792328156289  1.0000
  O   O8        1.0  0.7607319514646776  0.9964621254896072  0.49835858096373187  1.0000
  O   O9        1.0  0.9442473709623445  0.3234053641989689  0.48800149679090765  1.0000
  O   O10       1.0  0.5561232715432569  0.8352629098950928  0.5115202285110029  1.0000
  O   O11       1.0  0.05575968203307009  0.6765992518959221  0.5120040612562278  1.0000
  O   O12       1.0  0.44388489669108117  0.16473912014489397  0.4884757503603581  1.0000
  O   O13       1.0  0.0840419020765921  0.45418732273133605  0.634591250931841  1.0000
  O   O14       1.0  0.416385846002612  0.8195584277445815  0.3649863203914662  1.0000
  O   O15       1.0  0.9159685211648282  0.5458155553385852  0.3654122593483962  1.0000
  O   O16       1.0  0.5835881073426848  0.18044711831193178  0.6350234826704408  1.0000
