data_image0
_chemical_formula_structural       La3H42C63N3O21
_chemical_formula_sum              "La3 H42 C63 N3 O21"
_cell_length_a       13.028366273176744
_cell_length_b       14.704814472365266
_cell_length_c       14.704810423442622
_cell_angle_alpha    111.67458709093752
_cell_angle_beta     107.17144191073982
_cell_angle_gamma    107.17126747070408

_space_group_name_H-M_alt    "P 1"
_space_group_IT_number       1

loop_
  _space_group_symop_operation_xyz
  'x, y, z'

loop_
  _atom_site_type_symbol
  _atom_site_label
  _atom_site_symmetry_multiplicity
  _atom_site_fract_x
  _atom_site_fract_y
  _atom_site_fract_z
  _atom_site_occupancy
  La  La1       1.0  0.9999997233507045  0.3181203975306488  0.6818783770314667  1.0000
  La  La2       1.0  0.3180628199906366  0.3180262021107083  0.6362169928987811  1.0000
  La  La3       1.0  0.6819354739890429  0.36378225361378463  0.6819727002172441  1.0000
  H   H1        1.0  0.06563676360162421  0.1926343337477689  0.8253943964129106  1.0000
  H   H2        1.0  0.6751801973243731  0.8247098294708621  0.516169347759529  1.0000
  H   H3        1.0  0.7616292163612215  0.0278537110279302  0.6183426339905153  1.0000
  H   H4        1.0  0.513850413107491  0.017974758757944194  0.3434441133057646  1.0000
  H   H5        1.0  0.4301358421076172  0.8157631499823876  0.2372331072322495  1.0000
  H   H6        1.0  0.42100513143159896  0.7106507093916432  0.46101248305222225  1.0000
  H   H7        1.0  0.41645422088360806  0.6050747292507879  0.5604523654523701  1.0000
  H   H8        1.0  0.2404003000805872  0.17483505483063055  0.36715338751909593  1.0000
  H   H9        1.0  0.15895427838623988  0.48373584934248726  0.3085226229990353  1.0000
  H   H10       1.0  0.14318645909816038  0.38162064244876587  0.4095377366702094  1.0000
  H   H11       1.0  0.17044820727976887  0.6566912841303747  0.6746101540174363  1.0000
  H   H12       1.0  0.19295772440035105  0.7628132132209868  0.5785424460427674  1.0000
  H   H13       1.0  0.9601293263726941  0.5389849187040879  0.2496689380441665  1.0000
  H   H14       1.0  0.8560874047885036  0.4395545770406244  0.04461312946249761  1.0000
  H   H15       1.0  0.8728138936773104  0.6327618387762043  0.807094970662149  1.0000
  H   H16       1.0  0.8505091025675641  0.6914757029835885  0.17534404854539795  1.0000
  H   H17       1.0  0.7338176664795669  0.590558961632709  0.9721673637226188  1.0000
  H   H18       1.0  0.495965326909598  0.325489471014464  0.9820766009789635  1.0000
  H   H19       1.0  0.6143978424482981  0.42150391803560433  0.18424259619636973  1.0000
  H   H20       1.0  0.7103049730168391  0.750291083162807  0.28932068851186427  1.0000
  H   H21       1.0  0.8113356663137308  0.9553737582732963  0.3948670830550326  1.0000
  H   H22       1.0  0.7596040439381753  0.632847690941368  0.8251725337947418  1.0000
  H   H23       1.0  0.8410450818240989  0.6914772701019984  0.5162638646323713  1.0000
  H   H24       1.0  0.8568129126776397  0.5904629314948904  0.6183798607566472  1.0000
  H   H25       1.0  0.8295499102857562  0.3253894486418503  0.34330850776539273  1.0000
  H   H26       1.0  0.8070428088020732  0.42145767393355976  0.23718626699449166  1.0000
  H   H27       1.0  0.03987174984897023  0.7503309261487131  0.46101510487779507  1.0000
  H   H28       1.0  0.1439136723142127  0.9553864618483984  0.5604460174776733  1.0000
  H   H29       1.0  0.12719016074476738  0.19291234115363656  0.3672395878395632  1.0000
  H   H30       1.0  0.14948862498751242  0.8246558205646722  0.3085243873350477  1.0000
  H   H31       1.0  0.26618190493890376  0.027831969612364595  0.40944274155284427  1.0000
  H   H32       1.0  0.5040351535185933  0.0179228826231608  0.6745105506268911  1.0000
  H   H33       1.0  0.385602934763284  0.8157574996910737  0.5784949449952277  1.0000
  H   H34       1.0  0.28969520779829566  0.7106793655399739  0.24970875166721362  1.0000
  H   H35       1.0  0.1886638188142982  0.6051326909503416  0.04462597403269804  1.0000
  H   H36       1.0  0.9343628495661989  0.17460880135377715  0.807367812077828  1.0000
  H   H37       1.0  0.32482155322392703  0.48383106795220243  0.1752897736359174  1.0000
  H   H38       1.0  0.23837118227049098  0.38165873278174434  0.9721452311141263  1.0000
  H   H39       1.0  0.48614874944932734  0.6565560875140618  0.9820244770242322  1.0000
  H   H40       1.0  0.5698641246026456  0.7627667860258356  0.1842364189952263  1.0000
  H   H41       1.0  0.5789928855851941  0.5389863432065738  0.28935046631453787  1.0000
  H   H42       1.0  0.5835461956716869  0.43954906443098457  0.3949263100471398  1.0000
  C   C1        1.0  0.5465396583349929  0.8051736009287537  0.36919498199254247  1.0000
  C   C2        1.0  0.6394298503034433  0.8666698447014339  0.47795853658476506  1.0000
  C   C3        1.0  0.6875521185324089  0.9803137303585531  0.5353154207662812  1.0000
  C   C4        1.0  0.6435863420919501  0.0359242558590296  0.4872033529272527  1.0000
  C   C5        1.0  0.5495570289773539  0.9746379855341372  0.37974859483031737  1.0000
  C   C6        1.0  0.5020742902891512  0.8612215961571007  0.32106470271503423  1.0000
  C   C7        1.0  0.6906045269357008  0.156795105519457  0.5488801800967236  1.0000
  C   C8        1.0  0.45560751386097564  0.650584598054543  0.4464036676981775  1.0000
  C   C9        1.0  0.4543819882367046  0.592495995419  0.5026079060392304  1.0000
  C   C10       1.0  0.17732770863794653  0.6307776022175203  0.4359630573175153  1.0000
  C   C11       1.0  0.16140303740380096  0.5219808857327592  0.3887010991617358  1.0000
  C   C12       1.0  0.15217142522219967  0.4646747406083661  0.4450224463697621  1.0000
  C   C13       1.0  0.15639391366958927  0.5128523402290098  0.5487788438022746  1.0000
  C   C14       1.0  0.16985528063541722  0.6203390340955437  0.5949579470982727  1.0000
  C   C15       1.0  0.1810138031553877  0.6789511841262698  0.5401637711627956  1.0000
  C   C16       1.0  0.14177980772060284  0.45113974478560676  0.6079183797484118  1.0000
  C   C17       1.0  0.009295361202710186  0.5536026495407069  0.20417980904585414  1.0000
  C   C18       1.0  0.9518314704451923  0.49742345577437413  0.08988742455928635  1.0000
  C   C19       1.0  0.7413849601441242  0.5640516819288235  0.19484583694182317  1.0000
  C   C20       1.0  0.7727706107189645  0.6113292059352772  0.13335465357693727  1.0000
  C   C21       1.0  0.7072725019982968  0.5550705163809511  0.019707437287372828  1.0000
  C   C22       1.0  0.6077622922723406  0.4513073006820675  0.9641095576909178  1.0000
  C   C23       1.0  0.5750247680526428  0.4051133027034055  0.02538032770303989  1.0000
  C   C24       1.0  0.6408803862783117  0.4598776544837263  0.1387938542064404  1.0000
  C   C25       1.0  0.5339224013196996  0.39212269420173124  0.8432693214991642  1.0000
  C   C26       1.0  0.8049672246762327  0.7957920440946892  0.34937540914192056  1.0000
  C   C27       1.0  0.8618211111654333  0.9100951519234285  0.407435947236486  1.0000
  C   C28       1.0  0.8226738619616326  0.5640378056047197  0.3692233827349439  1.0000
  C   C29       1.0  0.8385977968907952  0.6112982449844535  0.478018964146649  1.0000
  C   C30       1.0  0.8478291700366113  0.5549783462416895  0.535326984082431  1.0000
  C   C31       1.0  0.8436055184304861  0.45122134291843  0.4871474456805131  1.0000
  C   C32       1.0  0.8301438613803284  0.40504244774217574  0.3796608825593282  1.0000
  C   C33       1.0  0.8189874662285843  0.4598369039490606  0.3210491549378886  1.0000
  C   C34       1.0  0.8582180213736237  0.3920804183926093  0.5488592926898546  1.0000
  C   C35       1.0  0.9907048399033157  0.7958202501499513  0.4463976854296588  1.0000
  C   C36       1.0  0.04816856333639665  0.910111833623013  0.5025770273767449  1.0000
  C   C37       1.0  0.25861632261954537  0.8051543161584291  0.43594780841863917  1.0000
  C   C38       1.0  0.22722955173621523  0.8666456177728035  0.38867102694454275  1.0000
  C   C39       1.0  0.29272717153752137  0.9802918125476694  0.4449290130777043  1.0000
  C   C40       1.0  0.3922402198077464  0.0358910558364869  0.548692698779611  1.0000
  C   C41       1.0  0.424977344745315  0.9746191346032586  0.5948840364517164  1.0000
  C   C42       1.0  0.35912173294774163  0.8612057156875323  0.5401205112696558  1.0000
  C   C43       1.0  0.4660789986360569  0.15673028769225536  0.607876588068052  1.0000
  C   C44       1.0  0.1950331058063383  0.6506248294487731  0.20420861653128933  1.0000
  C   C45       1.0  0.13817837840623776  0.5925635478790452  0.08990466422923037  1.0000
  C   C46       1.0  0.4534608659382613  0.6308055943574971  0.19482623287712625  1.0000
  C   C47       1.0  0.36057132959430754  0.5220422837627011  0.1333302052711217  1.0000
  C   C48       1.0  0.31244875042457204  0.46468624895366156  0.019686512731219404  1.0000
  C   C49       1.0  0.35641314958652254  0.5127980499091436  0.9640747068000193  1.0000
  C   C50       1.0  0.4504427226295035  0.6202519837675169  0.025361263921048788  1.0000
  C   C51       1.0  0.49792480738306477  0.6789346679388472  0.13877692229396393  1.0000
  C   C52       1.0  0.3093943917666522  0.4511195197366433  0.843203635778444  1.0000
  C   C53       1.0  0.544391953527615  0.5535967769735491  0.34941697182273396  1.0000
  C   C54       1.0  0.5456196184150031  0.49739444714430897  0.407506483236176  1.0000
  C   C55       1.0  0.49999895488497964  0.6311214045440963  0.36887821300870627  1.0000
  C   C56       1.0  0.500001899551755  0.5156806838132012  0.48432336507095625  1.0000
  C   C57       1.0  0.5000003865603944  0.45407701384208105  0.5459237113544546  1.0000
  C   C58       1.0  0.13119991549157106  0.6311217971460721  0.2622458157212577  1.0000
  C   C59       1.0  0.015746139262624574  0.5157578534863204  0.03138656752325624  1.0000
  C   C60       1.0  0.954132805572442  0.45412462410673976  0.9081998027576715  1.0000
  C   C61       1.0  0.8688007723688853  0.7377538115356046  0.36887861247198817  1.0000
  C   C62       1.0  0.9842542461322806  0.9686135409987386  0.48424232414920704  1.0000
  C   C63       1.0  0.045866162595459094  0.09179923325691416  0.5458756969561945  1.0000
  N   N1        1.0  0.5000000113402692  0.6897581436444326  0.3102409398276291  1.0000
  N   N2        1.0  0.18978791938518216  0.6897330477624877  0.37951458748725736  1.0000
  N   N3        1.0  0.8102118769153748  0.6204852751737204  0.31026745358997226  1.0000
  O   O1        1.0  0.631906761785025  0.20048176880791857  0.510379540171101  1.0000
  O   O2        1.0  0.786556822297399  0.2143928912386954  0.6423828968499095  1.0000
  O   O3        1.0  0.5786692259285144  0.418966373127823  0.559350022111104  1.0000
  O   O4        1.0  0.12159814578849656  0.4895984183395186  0.6901386676402623  1.0000
  O   O5        1.0  0.14423690001992642  0.35763518878341927  0.5718989927179549  1.0000
  O   O6        1.0  0.019390775063925524  0.4409187476737984  0.8596171423817082  1.0000
  O   O7        1.0  0.4315112979389397  0.30995649989737467  0.7995893031330608  1.0000
  O   O8        1.0  0.5722695703774007  0.42806536781659316  0.7856952736044673  1.0000
  O   O9        1.0  0.15968710628509086  0.14033318894205138  0.5812812031095688  1.0000
  O   O10       1.0  0.8784013870174119  0.30986075163373517  0.5104014023348781  1.0000
  O   O11       1.0  0.8557554435292188  0.4280972016262722  0.6423605784373192  1.0000
  O   O12       1.0  0.9806078534701825  0.1403814417903817  0.5590793913098934  1.0000
  O   O13       1.0  0.5684899615360378  0.20041185873134273  0.6900443458616434  1.0000
  O   O14       1.0  0.4277300371487627  0.21430427974875949  0.5719346048716929  1.0000
  O   O15       1.0  0.8403134072402664  0.4187232404069404  0.8596672855033275  1.0000
  O   O16       1.0  0.36809192866799373  0.48962012077699035  0.7995165915996407  1.0000
  O   O17       1.0  0.21344358474202346  0.35761776473017204  0.7856062430929782  1.0000
  O   O18       1.0  0.4213287864198135  0.440648341408682  0.5810311870191213  1.0000
  O   O19       1.0  0.9999995277443289  0.2069722745358646  0.7930257165337479  1.0000
  O   O20       1.0  0.2066925518620337  0.20629064591562948  0.4138893267403744  1.0000
  O   O21       1.0  0.7933015536325669  0.5861111738653122  0.7936978459554993  1.0000
