data_image0
_chemical_formula_structural       Zr6H20C52Cl10O38
_chemical_formula_sum              "Zr6 H20 C52 Cl10 O38"
_cell_length_a       14.786875682069935
_cell_length_b       14.77484286182167
_cell_length_c       14.792424105888406
_cell_angle_alpha    60.13673279739796
_cell_angle_beta     59.99375723635161
_cell_angle_gamma    60.10785198199242

_space_group_name_H-M_alt    "P 1"
_space_group_IT_number       1

loop_
  _space_group_symop_operation_xyz
  'x, y, z'

loop_
  _atom_site_type_symbol
  _atom_site_label
  _atom_site_symmetry_multiplicity
  _atom_site_fract_x
  _atom_site_fract_y
  _atom_site_fract_z
  _atom_site_occupancy
  Zr  Zr1       1.0  0.8690880196117943  0.8863667338193296  0.6248863901764921  1.0000
  Zr  Zr2       1.0  0.1108216404448966  0.12179040087839607  0.38954198617062025  1.0000
  Zr  Zr3       1.0  0.10747769983377944  0.8825972201065327  0.627801380791752  1.0000
  Zr  Zr4       1.0  0.8725209890788292  0.1252476178528637  0.3861282623489259  1.0000
  Zr  Zr5       1.0  0.10972662813766472  0.8848086216148588  0.3876317879304595  1.0000
  Zr  Zr6       1.0  0.8710748173487132  0.12411703489721045  0.6271953520340859  1.0000
  H   H1        1.0  0.07938368267517128  0.7196437667370221  0.602797476783934  1.0000
  H   H2        1.0  0.08899304634734043  0.09389613576157528  0.2238616604935686  1.0000
  H   H3        1.0  0.08339781379493143  0.095826913127155  0.6052706057428027  1.0000
  H   H4        1.0  0.7080064857652674  0.10253992164640384  0.5989634672816068  1.0000
  H   H5        1.0  0.14711053301849839  0.5733336843203318  0.40034317232804284  1.0000
  H   H6        1.0  0.8137844704638224  0.4680191935437321  0.5671874500980465  1.0000
  H   H7        1.0  0.5804442535901088  0.14616876596745246  0.9106763275948282  1.0000
  H   H8        1.0  0.40603645891814455  0.8580286612598658  0.10958783536781183  1.0000
  H   H9        1.0  0.8135029064017942  0.07702024404941436  0.15267229065722182  1.0000
  H   H10       1.0  0.14118314918479768  0.8847089456148254  0.8984740212011814  1.0000
  H   H11       1.0  0.5888835868053875  0.4150052642550719  0.3635872868001186  1.0000
  H   H12       1.0  0.41063419466795625  0.6117666985917583  0.6301367624293805  1.0000
  H   H13       1.0  0.5773825312339864  0.8768494504096084  0.6502329684891704  1.0000
  H   H14       1.0  0.41098524048833696  0.122884055612971  0.3554012086724327  1.0000
  H   H15       1.0  0.07656282164732887  0.3983247468413752  0.20499454651879034  1.0000
  H   H16       1.0  0.0670665425220776  0.7100172249802695  0.9043672110364726  1.0000
  H   H17       1.0  0.9694820978491093  0.20634538443929526  0.13151660694875733  1.0000
  H   H18       1.0  0.020318794149261514  0.1512126830093052  0.9489846952463523  1.0000
  H   H19       1.0  0.021649664706885046  0.32146630144156063  0.7134782102698695  1.0000
  H   H20       1.0  0.9691950876321153  0.622531183408995  0.6792157559947968  1.0000
  C   C1        1.0  0.9758527305122014  0.7143535603216192  0.4929287290448983  1.0000
  C   C2        1.0  0.2977996911888567  0.004812606135637091  0.2084244493233598  1.0000
  C   C3        1.0  0.9920533799291673  0.3124098227522296  0.4970545812880757  1.0000
  C   C4        1.0  0.6890246855086418  0.9992180486503982  0.8118631722230206  1.0000
  C   C5        1.0  0.9926036220175974  0.6949525026218312  0.8073240073619843  1.0000
  C   C6        1.0  0.6885369842821518  0.01011674054180378  0.4980030923984203  1.0000
  C   C7        1.0  0.9983996448347837  0.3046905593065573  0.19219552201104056  1.0000
  C   C8        1.0  0.2967061462405097  0.9928612926875148  0.5106290438288853  1.0000
  C   C9        1.0  0.2960528640684998  0.7035095375691043  0.4996630232129676  1.0000
  C   C10       1.0  0.9768016641139138  0.9946682475560495  0.8222529633612371  1.0000
  C   C11       1.0  0.6976124328175571  0.3169713562623926  0.5007265364525966  1.0000
  C   C12       1.0  0.9880098887870331  0.9901988449915394  0.2119602523632837  1.0000
  C   C13       1.0  0.9898851730312614  0.41970500192425675  0.48583823911761936  1.0000
  C   C14       1.0  0.9717137557771948  0.6202348507257227  0.4838874104043001  1.0000
  C   C15       1.0  0.08435737376486668  0.45158056863182594  0.43535529342097595  1.0000
  C   C16       1.0  0.8764894883035836  0.5914239323696292  0.5286325456202335  1.0000
  C   C17       1.0  0.073806937721862  0.5505880691284021  0.4352196182031848  1.0000
  C   C18       1.0  0.8868957485893886  0.4918776473097493  0.529982443775154  1.0000
  C   C19       1.0  0.3988664754094415  0.007253076290133636  0.10714818675797486  1.0000
  C   C20       1.0  0.5887567670842273  0.9960198762221778  0.9140519427958368  1.0000
  C   C21       1.0  0.44914001455447317  0.08967516189797912  0.05024058758374392  1.0000
  C   C22       1.0  0.5383455655471393  0.9136962417152008  0.9708571737938315  1.0000
  C   C23       1.0  0.5418920502075081  0.08253106707615394  0.955487531946936  1.0000
  C   C24       1.0  0.44532837800794295  0.9210461335332382  0.06542786336880357  1.0000
  C   C25       1.0  0.9702980516348703  0.9858365381369013  0.9308019428709216  1.0000
  C   C26       1.0  0.9857308193795261  0.9795758022479433  0.11765417142339621  1.0000
  C   C27       1.0  0.8759983388546361  0.03757302736353544  0.005767442480667653  1.0000
  C   C28       1.0  0.07842031083632849  0.9216762731961696  0.04658192126730408  1.0000
  C   C29       1.0  0.8854134202214112  0.03433678554500836  0.09656072831995027  1.0000
  C   C30       1.0  0.06888889215738166  0.926350997796746  0.9551254257819936  1.0000
  C   C31       1.0  0.4008843788396135  0.6059385757280681  0.4937675211109609  1.0000
  C   C32       1.0  0.597702798622862  0.4196837833295106  0.5010832940725649  1.0000
  C   C33       1.0  0.4528720003172778  0.5498295245120205  0.4169099960673749  1.0000
  C   C34       1.0  0.546672885215294  0.4769923751914078  0.5767379027958058  1.0000
  C   C35       1.0  0.5492798333753869  0.45888512080802  0.42207462852014294  1.0000
  C   C36       1.0  0.4503120788761733  0.5679055551314677  0.5716079766583847  1.0000
  C   C37       1.0  0.01351833087685598  0.5845035585063343  0.8935327772135226  1.0000
  C   C38       1.0  0.010566894665437504  0.4901352561321488  0.8911376892391589  1.0000
  C   C39       1.0  0.039803500111474585  0.5741118904167808  0.9776532562971951  1.0000
  C   C40       1.0  0.019982995600564317  0.48711409069615297  0.7922703305505011  1.0000
  C   C41       1.0  0.019994924549628496  0.394346880922896  0.7897895579203152  1.0000
  C   C42       1.0  0.018003995104955043  0.39068893159314655  0.08234368672237484  1.0000
  C   C43       1.0  0.044071393906356934  0.4754698596255623  0.07225239307874189  1.0000
  C   C44       1.0  0.0103532468296661  0.3925821196260273  0.987911671038738  1.0000
  C   C45       1.0  0.016339024856527728  0.2979566691812324  0.9800760390680737  1.0000
  C   C46       1.0  0.017981102569080854  0.29995284795511173  0.8845982995363997  1.0000
  C   C47       1.0  0.39899462125074336  0.9911523515953818  0.5105007741562986  1.0000
  C   C48       1.0  0.5892853604135767  0.008645104027159794  0.49531224179566646  1.0000
  C   C49       1.0  0.4475059435690411  0.9200905797138859  0.5943120759419783  1.0000
  C   C50       1.0  0.5414537976562741  0.07890180834566235  0.41094019740287985  1.0000
  C   C51       1.0  0.5404466871349596  0.9305561901205409  0.5852746497861503  1.0000
  C   C52       1.0  0.4482396951115176  0.06879414832885536  0.42012209119967275  1.0000
  Cl  Cl1       1.0  0.21696527717194397  0.37047253107564165  0.3797045925635772  1.0000
  Cl  Cl2       1.0  0.7446196594331126  0.6755948913960595  0.5809482562142065  1.0000
  Cl  Cl3       1.0  0.40396705949807915  0.20187371183737918  0.08898550890498312  1.0000
  Cl  Cl4       1.0  0.5833961919247695  0.8018300229982034  0.9318139726045589  1.0000
  Cl  Cl5       1.0  0.7466853735730369  0.10510545550165777  0.9925494176266413  1.0000
  Cl  Cl6       1.0  0.2075381131253237  0.8480295571758918  0.06073110483744408  1.0000
  Cl  Cl7       1.0  0.4047352353622599  0.584580801773221  0.3149639091203724  1.0000
  Cl  Cl8       1.0  0.5955142500988515  0.4429206135844481  0.6779453528841016  1.0000
  Cl  Cl9       1.0  0.3993018790941181  0.8188586152752391  0.7109047481164978  1.0000
  Cl  Cl10      1.0  0.5906307097627846  0.17918011614907664  0.2937672531692357  1.0000
  O   O1        1.0  0.9036368212296464  0.7469679601184965  0.5763106013747646  1.0000
  O   O2        1.0  0.25516712191481616  0.08139791338954439  0.24916168706862857  1.0000
  O   O3        1.0  0.06957774227495844  0.26769980856568054  0.4242034001602449  1.0000
  O   O4        1.0  0.7297161087892193  0.9245977421273538  0.7692797311607295  1.0000
  O   O5        1.0  0.06089276699779557  0.7449473610405378  0.7734649188957192  1.0000
  O   O6        1.0  0.7268616805111633  0.08865287534035822  0.42530355980088796  1.0000
  O   O7        1.0  0.9204258073364214  0.26528446675034434  0.2302834058061974  1.0000
  O   O8        1.0  0.2538276014935903  0.918711452597229  0.5875546847163663  1.0000
  O   O9        1.0  0.2533314268697707  0.7435641551023836  0.42548354594227084  1.0000
  O   O10       1.0  0.9067058705140097  0.07706861263624648  0.7772869067266087  1.0000
  O   O11       1.0  0.7344274649807402  0.27224479662037726  0.5802675404261992  1.0000
  O   O12       1.0  0.06958290970160143  0.9227219040419573  0.24620559583935633  1.0000
  O   O13       1.0  0.056473600130090014  0.9205113244307909  0.7803520927780953  1.0000
  O   O14       1.0  0.7371665814264502  0.27938712879618777  0.42235142986312013  1.0000
  O   O15       1.0  0.9091427387488906  0.0671182001534659  0.2504349784934021  1.0000
  O   O16       1.0  0.2565728447923944  0.7397490010259206  0.5787935091429404  1.0000
  O   O17       1.0  0.9105422574445113  0.7381316772435652  0.7747912856854031  1.0000
  O   O18       1.0  0.25864016972876414  0.07052613722596844  0.4335815772109015  1.0000
  O   O19       1.0  0.05813762396675769  0.27535856148839605  0.24869033176973693  1.0000
  O   O20       1.0  0.7267569246666808  0.9326844238723595  0.5750106831463099  1.0000
  O   O21       1.0  0.726216369851535  0.07753546496378054  0.7733988024355797  1.0000
  O   O22       1.0  0.05558101567221729  0.7504169388019692  0.42161710533613933  1.0000
  O   O23       1.0  0.26016290422268173  0.9270744362188523  0.24646200176649555  1.0000
  O   O24       1.0  0.9168750329873416  0.27307347435909424  0.5781456526795807  1.0000
  O   O25       1.0  0.7882611791131069  0.07517439697052447  0.5724200315296812  1.0000
  O   O26       1.0  0.057011256212540155  0.06976937907896291  0.5773710118341101  1.0000
  O   O27       1.0  0.05906856783144574  0.07140011261521552  0.3042288184206043  1.0000
  O   O28       1.0  0.05485552223633737  0.800521451745155  0.5745729966123322  1.0000
  O   O29       1.0  0.1382259084678237  0.9534244381891528  0.4592156671774035  1.0000
  O   O30       1.0  0.9398158069228368  0.9566744867516945  0.45681798988222505  1.0000
  O   O31       1.0  0.9421005003440753  0.1523182861269842  0.4577622423523096  1.0000
  O   O32       1.0  0.9388182729878665  0.955325313903323  0.6551456822961865  1.0000
  O   O33       1.0  0.06751360194850502  0.47428326892649875  0.14988615835959246  1.0000
  O   O34       1.0  0.057662528922818784  0.65434950497432  0.9795392413794063  1.0000
  O   O35       1.0  0.028096715386062968  0.19547836682647102  0.06134256512595472  1.0000
  O   O36       1.0  0.023193990300043786  0.20910155533446326  0.8763059932580219  1.0000
  O   O37       1.0  0.02573749336590217  0.3928902954066516  0.6955437889090774  1.0000
  O   O38       1.0  0.03972148280478646  0.5718279697441702  0.6926259227939155  1.0000
