data_image0
_chemical_formula_structural       Zn2H98C82N2O10
_chemical_formula_sum              "Zn2 H98 C82 N2 O10"
_cell_length_a       10.83887591601455
_cell_length_b       18.449541848573833
_cell_length_c       19.38335310318114
_cell_angle_alpha    90.82832300038173
_cell_angle_beta     93.88202054815784
_cell_angle_gamma    92.58825176906294

_space_group_name_H-M_alt    "P 1"
_space_group_IT_number       1

loop_
  _space_group_symop_operation_xyz
  'x, y, z'

loop_
  _atom_site_type_symbol
  _atom_site_label
  _atom_site_symmetry_multiplicity
  _atom_site_fract_x
  _atom_site_fract_y
  _atom_site_fract_z
  _atom_site_occupancy
  Zn  Zn1       1.0  0.5032163795350044  0.41595754886350284  0.49944372690811173  1.0000
  Zn  Zn2       1.0  0.5187708128986017  0.5732971989562188  0.5029056989520697  1.0000
  H   H1        1.0  0.5585986212334788  0.1563167602890232  0.5962706137270073  1.0000
  H   H2        1.0  0.3349073520708643  0.5955434062296234  0.1587989993227694  1.0000
  H   H3        1.0  0.4269910118723813  0.3996713505866154  0.7081056119434306  1.0000
  H   H4        1.0  0.5384303429252312  0.3956590193958717  0.27944408332913884  1.0000
  H   H5        1.0  0.5975791754161719  0.5003582446546488  0.9393468287129351  1.0000
  H   H6        1.0  0.5974697287152111  0.49213941383308674  0.06761917652036688  1.0000
  H   H7        1.0  0.2558696628993077  0.689893073877016  0.6502906622869487  1.0000
  H   H8        1.0  0.22045872458132718  0.6800663266759911  0.5595731837031506  1.0000
  H   H9        1.0  0.10239747452357761  0.699934536386536  0.6154515919395747  1.0000
  H   H10       1.0  0.1152114412123453  0.5795688026151425  0.6683562305025105  1.0000
  H   H11       1.0  0.2521905759365168  0.5632693295464647  0.6289383264507575  1.0000
  H   H12       1.0  0.4328772086582974  0.1619753045417482  0.3814643426651684  1.0000
  H   H13       1.0  0.9692077862816573  0.6936906774005607  0.5332525831712616  1.0000
  H   H14       1.0  0.8182321247175822  0.6607668143311187  0.5036018979987061  1.0000
  H   H15       1.0  0.8397827315963153  0.7171340930365631  0.5793380983417434  1.0000
  H   H16       1.0  0.799241521523861  0.5862382880569044  0.6074525613584852  1.0000
  H   H17       1.0  0.9448371237812268  0.6195934519647608  0.6432356657097242  1.0000
  H   H18       1.0  0.7554344116267941  0.2393174865941532  0.6280937450863673  1.0000
  H   H19       1.0  0.7692782234100335  0.3238032199515288  0.5848298873953366  1.0000
  H   H20       1.0  0.7603906251215375  0.32253083376633634  0.6759147989633616  1.0000
  H   H21       1.0  0.5569984733227925  0.35488763838982623  0.6192734694697248  1.0000
  H   H22       1.0  0.5426028810761991  0.2710870571716484  0.6615183054587985  1.0000
  H   H23       1.0  0.6224522728164601  0.820019500669453  0.3985788652573276  1.0000
  H   H24       1.0  0.2198178696767243  0.23128510887252665  0.36055650929274197  1.0000
  H   H25       1.0  0.2446372179168392  0.2958348582139152  0.29544465757668087  1.0000
  H   H26       1.0  0.3361980845077355  0.21904478439376618  0.30148806436436354  1.0000
  H   H27       1.0  0.3341056093282119  0.34817722788845623  0.4048065160954336  1.0000
  H   H28       1.0  0.45334458275468137  0.3326577936946719  0.3517092924863262  1.0000
  H   H29       1.0  0.1794453600936663  0.9712748561373131  0.49548545144632766  1.0000
  H   H30       1.0  0.22119090971155936  0.0545268137342845  0.5392256652861676  1.0000
  H   H31       1.0  0.0968986340777747  0.0499021466115579  0.47425829673137077  1.0000
  H   H32       1.0  0.285710181532707  0.10970749056292561  0.4303886148616625  1.0000
  H   H33       1.0  0.24528959710495707  0.029447460729279805  0.3831327866271294  1.0000
  H   H34       1.0  0.4243736910718638  0.82677581933401  0.5843466139295472  1.0000
  H   H35       1.0  0.8474985770900146  0.000714522524958699  0.4753588168629859  1.0000
  H   H36       1.0  0.7949241713339532  0.0734426980995764  0.4244040641478079  1.0000
  H   H37       1.0  0.9182161912998977  0.08890370003631887  0.4890280874281314  1.0000
  H   H38       1.0  0.7223275796686792  0.13551990683414064  0.5283440602496794  1.0000
  H   H39       1.0  0.7743565755200237  0.06602076168195482  0.582220637714478  1.0000
  H   H40       1.0  0.36306389942419764  0.9500588621067929  0.30907893259828256  1.0000
  H   H41       1.0  0.4519764900484944  0.8733530978429015  0.3268786997404191  1.0000
  H   H42       1.0  0.2930625099660418  0.8608980745579017  0.2986385255843728  1.0000
  H   H43       1.0  0.3230105940745887  0.8421612426831615  0.42644082446764026  1.0000
  H   H44       1.0  0.2311097124612047  0.9162638030239943  0.4083010499987551  1.0000
  H   H45       1.0  0.6193395730415148  0.6841946961283085  0.40894135582369256  1.0000
  H   H46       1.0  0.7469988936163503  0.9091008194822267  0.6797995541482889  1.0000
  H   H47       1.0  0.6646848795736559  0.9878992103005898  0.6583318218081684  1.0000
  H   H48       1.0  0.58792263961449  0.9010325313254267  0.650729058153793  1.0000
  H   H49       1.0  0.719815704605331  0.8670180965924601  0.554615281594593  1.0000
  H   H50       1.0  0.8034058202084398  0.9506389835159869  0.5641646356094013  1.0000
  H   H51       1.0  0.1115565818625441  0.23606404047473006  0.6003304969757507  1.0000
  H   H52       1.0  0.9678381708402809  0.1957619146431213  0.5676131845804873  1.0000
  H   H53       1.0  0.1018289750310331  0.1430889968024118  0.5736816397324772  1.0000
  H   H54       1.0  0.0593622307194437  0.17973503473242403  0.4500901789660432  1.0000
  H   H55       1.0  0.19853119868691488  0.22339065366474392  0.48508352264914817  1.0000
  H   H56       1.0  0.4404802096669514  0.691545999462143  0.5905200739476582  1.0000
  H   H57       1.0  0.863819006114923  0.2699204685019795  0.3098758045429122  1.0000
  H   H58       1.0  0.9735115763660857  0.20877405063123433  0.34285062320418547  1.0000
  H   H59       1.0  0.8182251684676627  0.1770759223154315  0.32086882786521886  1.0000
  H   H60       1.0  0.8499095988843519  0.1925828359009927  0.44895835293587527  1.0000
  H   H61       1.0  0.7440943871665766  0.2550233876687429  0.41598769956349446  1.0000
  H   H62       1.0  0.6885389215401075  0.61765394555826  0.7097241302063322  1.0000
  H   H63       1.0  0.663745519630062  0.6596323229544865  0.791309019639648  1.0000
  H   H64       1.0  0.6592008009587217  0.7315965394303204  0.6495560908947409  1.0000
  H   H65       1.0  0.6109053211782793  0.774325166789552  0.7248235511123224  1.0000
  H   H66       1.0  0.8220364650751292  0.7643636536901185  0.7844540018350654  1.0000
  H   H67       1.0  0.2173924654847781  0.3488344324285323  0.5104362657760504  1.0000
  H   H68       1.0  0.8367371216816292  0.8077160869286503  0.7040556887194922  1.0000
  H   H69       1.0  0.8714110403075779  0.7153349789620194  0.712587958169294  1.0000
  H   H70       1.0  0.27192501421769316  0.571169887712827  0.36857375971161577  1.0000
  H   H71       1.0  0.1742748303077803  0.595451593043137  0.2948400652552649  1.0000
  H   H72       1.0  0.3293016784276118  0.7005266100548653  0.3934168706710181  1.0000
  H   H73       1.0  0.23620206291648319  0.7266236558892984  0.32035093359076666  1.0000
  H   H74       1.0  0.04488738751513922  0.6743754451049214  0.3742329539423749  1.0000
  H   H75       1.0  0.12453477267774823  0.7406534057454977  0.4299140140260462  1.0000
  H   H76       1.0  0.1391489047341992  0.6469991160624318  0.44672581392481436  1.0000
  H   H77       1.0  0.23904242625847158  0.3271853266830007  0.7676540189950598  1.0000
  H   H78       1.0  0.7732421066220709  0.3752626725116599  0.44513255436210375  1.0000
  H   H79       1.0  0.3891270741211698  0.2965851764880654  0.7560374221353781  1.0000
  H   H80       1.0  0.3048552276553663  0.26238939293467917  0.8246611364713272  1.0000
  H   H81       1.0  0.4684009034844151  0.3552241722003231  0.869466851152104  1.0000
  H   H82       1.0  0.31998236136907116  0.3802363948316555  0.8860995914605139  1.0000
  H   H83       1.0  0.4243223396572091  0.28587370388796524  0.21312230500151938  1.0000
  H   H84       1.0  0.3242100017299165  0.3052481364222217  0.14026833954145698  1.0000
  H   H85       1.0  0.4510511508051707  0.24905724925239534  0.1304284631864405  1.0000
  H   H86       1.0  0.5006096117071195  0.3728796240897694  0.08715538624480247  1.0000
  H   H87       1.0  0.6006985431251907  0.3536112067183624  0.15938093288910685  1.0000
  H   H88       1.0  0.1234506834475653  0.3819198703452145  0.040356373789997194  1.0000
  H   H89       1.0  0.446050348105821  0.6261632747945924  0.8475072484825571  1.0000
  H   H90       1.0  0.1980685279208316  0.39929297559769594  0.12372525987081666  1.0000
  H   H91       1.0  0.0390002892509145  0.4169921361647937  0.10812305194868087  1.0000
  H   H92       1.0  0.17145552248690882  0.5317413315105596  0.11127285030940468  1.0000
  H   H93       1.0  0.0900301415079383  0.5176606042540612  0.030422155229793194  1.0000
  H   H94       1.0  0.1355875374658382  0.4214960447161005  0.8575450256762377  1.0000
  H   H95       1.0  0.0582254009457941  0.4277166313225678  0.9351603445170297  1.0000
  H   H96       1.0  0.0033793890343432015  0.47437593183139615  0.8603809212530605  1.0000
  H   H97       1.0  0.1154021931390474  0.5639816271343036  0.9400517437182853  1.0000
  H   H98       1.0  0.1973418792207156  0.5533141157001751  0.8656665933612756  1.0000
  C   C1        1.0  0.4927807193776133  0.4990651245969319  0.3679389066412425  1.0000
  C   C2        1.0  0.4573200940081109  0.49759727514674496  0.29171177743547355  1.0000
  C   C3        1.0  0.5110080458109891  0.501141150333247  0.9649549814699366  1.0000
  C   C4        1.0  0.5106969521039844  0.4955797600010572  0.03612485875251538  1.0000
  C   C5        1.0  0.3992413718845284  0.4947200634499609  0.06886855418115087  1.0000
  C   C6        1.0  0.399843407035263  0.5082317218366228  0.9250235117658718  1.0000
  C   C7        1.0  0.28589038852108933  0.5020118458609772  0.029414354291731098  1.0000
  C   C8        1.0  0.28682714205549326  0.5109439890093127  0.9568393440206503  1.0000
  C   C9        1.0  0.532032469104024  0.26084132535840615  0.5523598914086562  1.0000
  C   C10       1.0  0.4467562575083264  0.2628626673782434  0.4381152228004907  1.0000
  C   C11       1.0  0.5309637432101155  0.18504394167538857  0.5493701810222473  1.0000
  C   C12       1.0  0.4985965641547238  0.5082624485352837  0.6347413529276691  1.0000
  C   C13       1.0  0.45886465097309775  0.18813066899257078  0.4313076876078909  1.0000
  C   C14       1.0  0.49939924923469187  0.14648951801314067  0.48761287476315096  1.0000
  C   C15       1.0  0.27669820234854114  0.49627598402262413  0.5115799243667851  1.0000
  C   C16       1.0  0.746228599715451  0.49434816926564906  0.5109337598531098  1.0000
  C   C17       1.0  0.4063594999521456  0.021556630608465403  0.45438957869818336  1.0000
  C   C18       1.0  0.6148426585854666  0.034111901185149014  0.5129320014040104  1.0000
  C   C19       1.0  0.41754527136162506  0.9457035170857679  0.4504666993697624  1.0000
  C   C20       1.0  0.6148007331359294  0.9582567490051945  0.5204411118786466  1.0000
  C   C21       1.0  0.5185097279272881  0.9148858203496671  0.4867164877466904  1.0000
  C   C22       1.0  0.5070489674609746  0.06612558170014178  0.48388666247731016  1.0000
  C   C23       1.0  0.41058141221488137  0.5100694761829914  0.8488625500282578  1.0000
  C   C24       1.0  0.5794490121519827  0.7935902185614482  0.4413928548003198  1.0000
  C   C25       1.0  0.4700497031362403  0.7973843297828296  0.5449094112951369  1.0000
  C   C26       1.0  0.5797131745506832  0.7186084708475917  0.44712988652016594  1.0000
  C   C27       1.0  0.4769172872103694  0.7225152414506298  0.5483275256769602  1.0000
  C   C28       1.0  0.5226539480407268  0.8345096413899356  0.490758196584565  1.0000
  C   C29       1.0  0.1205647936130276  0.3551957625879183  0.49442778140181065  1.0000
  C   C30       1.0  0.8708014101737476  0.3694593924031224  0.4601195608139861  1.0000
  C   C31       1.0  0.04708284066473569  0.29443490520549187  0.4745356747809451  1.0000
  C   C32       1.0  0.9209624635605775  0.30301086292265467  0.45061431087116666  1.0000
  C   C33       1.0  0.9402975159900179  0.42915201263364383  0.4929567143429379  1.0000
  C   C34       1.0  0.4106932058686041  0.4902768004458339  0.14562350728984796  1.0000
  C   C35       1.0  0.07141041096593169  0.424707512112235  0.5024287105856827  1.0000
  C   C36       1.0  0.144039759750811  0.48739976110077515  0.5285862284317133  1.0000
  C   C37       1.0  0.8846230391482738  0.49139242242178244  0.5192582636371482  1.0000
  C   C38       1.0  0.08672025601106981  0.5415599751111628  0.5651359131426401  1.0000
  C   C39       1.0  0.954802686914789  0.5446104384043409  0.5585645376040131  1.0000
  C   C40       1.0  0.47264073265466766  0.5779915887922514  0.7486965537438406  1.0000
  C   C41       1.0  0.396604426064023  0.5542121658125722  0.2564809611795197  1.0000
  C   C42       1.0  0.44158464768035793  0.5755060836071237  0.8174513025144206  1.0000
  C   C43       1.0  0.37598482014044526  0.5494549620449973  0.18470156539265756  1.0000
  C   C44       1.0  0.1624295695160285  0.5875164745221967  0.6200817630627924  1.0000
  C   C45       1.0  0.40562732440983496  0.4445508043579309  0.8098647747412071  1.0000
  C   C46       1.0  0.1855959071534059  0.66917011517328  0.6103682927532289  1.0000
  C   C47       1.0  0.8920384851021624  0.6052332074878065  0.5940650979674584  1.0000
  C   C48       1.0  0.8794221919969517  0.6734753064413115  0.5498818734666882  1.0000
  C   C49       1.0  0.5842600641559272  0.29848784508442355  0.6179304905513446  1.0000
  C   C50       1.0  0.72588786419643  0.29558619368108907  0.627021416021172  1.0000
  C   C51       1.0  0.3828333127291685  0.30435817845056334  0.3809310463931864  1.0000
  C   C52       1.0  0.29138947452926095  0.2596174369362387  0.3321557324370587  1.0000
  C   C53       1.0  0.2806569513519577  0.0506271606129047  0.43439557574511406  1.0000
  C   C54       1.0  0.1889165551547336  0.0302201081045723  0.4887644960878388  1.0000
  C   C55       1.0  0.7358170615194624  0.07710409183421518  0.5296366446948324  1.0000
  C   C56       1.0  0.46749467506722187  0.4321745676138704  0.18013685353830058  1.0000
  C   C57       1.0  0.8296746047055876  0.0588108637210922  0.4766831624379647  1.0000
  C   C58       1.0  0.32548530945135923  0.8975831830363746  0.4064597766611654  1.0000
  C   C59       1.0  0.3601259175604739  0.8953285367835876  0.3308370874902024  1.0000
  C   C60       1.0  0.711431724534016  0.9244512086849356  0.5684321310524965  1.0000
  C   C61       1.0  0.6760532307460565  0.9309120516321059  0.6437297019181611  1.0000
  C   C62       1.0  0.09748673408863341  0.22070206539084578  0.4885309463202318  1.0000
  C   C63       1.0  0.0680966580864322  0.19703061798786345  0.5616909321813351  1.0000
  C   C64       1.0  0.8419282588027173  0.2411540410268883  0.41715894291785083  1.0000
  C   C65       1.0  0.8761760726608757  0.2230114638929379  0.3435165852753669  1.0000
  C   C66       1.0  0.6390100883974696  0.6605214881113854  0.7349973023307113  1.0000
  C   C67       1.0  0.4318069573467724  0.44844603656319737  0.7406095534101735  1.0000
  C   C68       1.0  0.6736022040926031  0.7340862425903936  0.70625715037702  1.0000
  C   C69       1.0  0.8082172088466208  0.7566597963777965  0.7280457519443996  1.0000
  C   C70       1.0  0.25748906660222565  0.6121068134633203  0.3285374546129488  1.0000
  C   C71       1.0  0.24369182155186317  0.6861125837804494  0.3614671239284418  1.0000
  C   C72       1.0  0.1319753979055918  0.6870578834385483  0.4054103607196779  1.0000
  C   C73       1.0  0.3806802409940104  0.37230947080902865  0.8436899388112021  1.0000
  C   C74       1.0  0.3255177447894723  0.3113930606522927  0.79521424137301  1.0000
  C   C75       1.0  0.5038624476169886  0.36432128254206475  0.1431349259686598  1.0000
  C   C76       1.0  0.4212322641010147  0.29727944418972646  0.15761514842346705  1.0000
  C   C77       1.0  0.1649979820559935  0.4970548741865954  0.0645113716135839  1.0000
  C   C78       1.0  0.4898687076294124  0.4382499836746448  0.2518975125363595  1.0000
  C   C79       1.0  0.1291881267470671  0.41924987221917587  0.08528391384744788  1.0000
  C   C80       1.0  0.17008475501386758  0.5254853556897531  0.9124578600527893  1.0000
  C   C81       1.0  0.08722591710998981  0.45831925383662053  0.8903534434799025  1.0000
  C   C82       1.0  0.4683297383709188  0.5132269918637887  0.7089855297167273  1.0000
  N   N1        1.0  0.4895152664415718  0.29968582610941746  0.4973260255379514  1.0000
  N   N2        1.0  0.5297634333251934  0.6840032076042776  0.499858617701527  1.0000
  O   O1        1.0  0.5342591342374304  0.44173787674166937  0.3954183838906926  1.0000
  O   O2        1.0  0.3627185934033008  0.6175701963844773  0.2866736239034821  1.0000
  O   O3        1.0  0.4666067848485794  0.44864939600108755  0.6031607333340572  1.0000
  O   O4        1.0  0.47856248216022823  0.5582235352145588  0.40034691352774826  1.0000
  O   O5        1.0  0.5521752348806785  0.5628318346795425  0.6077476927742607  1.0000
  O   O6        1.0  0.3251254613430845  0.44305777946605934  0.4817113693870424  1.0000
  O   O7        1.0  0.6839974455396174  0.4379087688787778  0.5287116717534202  1.0000
  O   O8        1.0  0.33192205781912065  0.5583859152898683  0.5217869956969847  1.0000
  O   O9        1.0  0.7006842803199476  0.5518273061272012  0.48744417141909197  1.0000
  O   O10       1.0  0.5072765472031406  0.6451167647418002  0.7232576540867227  1.0000
