data_image0
_chemical_formula_structural       Zn2H20C28N4O10
_chemical_formula_sum              "Zn2 H20 C28 N4 O10"
_cell_length_a       6.035836013231029
_cell_length_b       7.531230742491375
_cell_length_c       14.508223549997082
_cell_angle_alpha    92.40754263071439
_cell_angle_beta     88.41060045912424
_cell_angle_gamma    92.34998023439398

_space_group_name_H-M_alt    "P 1"
_space_group_IT_number       1

loop_
  _space_group_symop_operation_xyz
  'x, y, z'

loop_
  _atom_site_type_symbol
  _atom_site_label
  _atom_site_symmetry_multiplicity
  _atom_site_fract_x
  _atom_site_fract_y
  _atom_site_fract_z
  _atom_site_occupancy
  Zn  Zn1       1.0  0.8080440618520512  0.24771253654765255  0.5028183781606614  1.0000
  Zn  Zn2       1.0  0.1919190333009766  0.752348018748407  0.497172092557321  1.0000
  H   H1        1.0  0.4981584752727102  0.6014512823144003  0.6718747027953358  1.0000
  H   H2        1.0  0.47310274401030483  0.9073721564071562  0.3220052070857591  1.0000
  H   H3        1.0  0.5018607843083203  0.3985928684042364  0.3281081891044836  1.0000
  H   H4        1.0  0.5269074245322046  0.0926929853120697  0.6780175023917394  1.0000
  H   H5        1.0  0.6361666497253041  0.677815020669051  0.829724765949301  1.0000
  H   H6        1.0  0.6100663713568863  0.8260117431551064  0.1624666256715912  1.0000
  H   H7        1.0  0.36389356464798084  0.32214998749114443  0.17025817553454908  1.0000
  H   H8        1.0  0.389898987202308  0.1739942143344564  0.8375598223467762  1.0000
  H   H9        1.0  0.3916770401019178  0.6182908237163646  0.9677015760370438  1.0000
  H   H10       1.0  0.3758786682112571  0.8803110394999365  0.027631649681204403  1.0000
  H   H11       1.0  0.6084293214739702  0.38160707422598966  0.0322844152738853  1.0000
  H   H12       1.0  0.6240518768244528  0.11957341215286021  0.9723963827811559  1.0000
  H   H13       1.0  0.8806477350086793  0.3993518167635273  0.7907254440446749  1.0000
  H   H14       1.0  0.8790503021976194  0.10405421628644258  0.2108363889534601  1.0000
  H   H15       1.0  0.11941135202705064  0.6006370913438205  0.20926080134937317  1.0000
  H   H16       1.0  0.12091363436245219  0.8959371613155229  0.7891718147204116  1.0000
  H   H17       1.0  0.3968563903535909  0.3469176203008146  0.5302882531279849  1.0000
  H   H18       1.0  0.3811473908062837  0.14689822304350034  0.4895978744757628  1.0000
  H   H19       1.0  0.6031320463449674  0.6531539728857682  0.4696968104443116  1.0000
  H   H20       1.0  0.6188280087776477  0.8531584428941131  0.5104172554914754  1.0000
  C   C1        1.0  0.10188127205411489  0.44427864295829517  0.6269565032411037  1.0000
  C   C2        1.0  0.0918688713280176  0.06436322684730561  0.37193539406639786  1.0000
  C   C3        1.0  0.8981077647612496  0.5557570568546666  0.3730311922913074  1.0000
  C   C4        1.0  0.9081198322966274  0.9356724336587448  0.6280619531485812  1.0000
  C   C5        1.0  0.18205202003094462  0.49402203393784566  0.7211312858236951  1.0000
  C   C6        1.0  0.1692882471487707  0.012501071767999902  0.2765238199005466  1.0000
  C   C7        1.0  0.8179499949804878  0.5059820164658291  0.278839766850247  1.0000
  C   C8        1.0  0.8306913106056725  0.9875144768125567  0.7234827746312434  1.0000
  C   C9        1.0  0.3941687962243847  0.5738992551308185  0.7325980495723741  1.0000
  C   C10       1.0  0.3747211594310542  0.9331918114057559  0.26248600492941426  1.0000
  C   C11       1.0  0.6058726419914962  0.4260947489870477  0.2673753125007394  1.0000
  C   C12       1.0  0.6252702527795719  0.0668451533650014  0.7375299686673529  1.0000
  C   C13       1.0  0.4705207973554268  0.6172132211343495  0.8211307550136128  1.0000
  C   C14       1.0  0.44992082600163746  0.8866173771102626  0.17311055614096924  1.0000
  C   C15       1.0  0.5295462109159814  0.3827426267397343  0.17884022263231716  1.0000
  C   C16       1.0  0.550052173673059  0.11336476694516759  0.8269160001122844  1.0000
  C   C17       1.0  0.3353165325545433  0.5850092210451548  0.8982741735057332  1.0000
  C   C18       1.0  0.3206562246434217  0.9159300082355841  0.0977583536005397  1.0000
  C   C19       1.0  0.6647691694948463  0.4149162954606781  0.101707732497978  1.0000
  C   C20       1.0  0.6792894897377336  0.0840238051060211  0.9022684044364624  1.0000
  C   C21       1.0  0.12021572105701492  0.5088744351402568  0.887117591925538  1.0000
  C   C22       1.0  0.11281833387702993  0.9926921041423498  0.1115376511591961  1.0000
  C   C23       1.0  0.8798918487001258  0.4910660274824111  0.1128665974338148  1.0000
  C   C24       1.0  0.887154819274308  0.007228905697395803  0.8884847649708405  1.0000
  C   C25       1.0  0.04584792057109151  0.4608418115527683  0.7986339264185107  1.0000
  C   C26       1.0  0.0389293551996488  0.0428229850331689  0.2009172450497303  1.0000
  C   C27       1.0  0.9542021871897857  0.5391270042825482  0.2013567404510681  1.0000
  C   C28       1.0  0.9610579388676469  0.9571687613438017  0.7990867000933549  1.0000
  N   N1        1.0  0.964853110886935  0.47860727304664863  0.9601694971514689  1.0000
  N   N2        1.0  0.9648755504759449  0.022283145158972704  0.040236806868684  1.0000
  N   N3        1.0  0.0352290404548086  0.5213128627718149  0.0398150644590345  1.0000
  N   N4        1.0  0.03507811988396271  0.9776561717385377  0.9597882002387623  1.0000
  O   O1        1.0  0.9240273972529496  0.34773300703884047  0.621258232514606  1.0000
  O   O2        1.0  0.9189177177133274  0.15661631910992924  0.3808939493015941  1.0000
  O   O3        1.0  0.0759033156566389  0.6523669084763811  0.3787408920327877  1.0000
  O   O4        1.0  0.08104579443251231  0.843432183668348  0.6191231307425369  1.0000
  O   O5        1.0  0.2158000164225484  0.49489820579032795  0.5560914643289863  1.0000
  O   O6        1.0  0.2019411570707632  0.018347778449097504  0.4404805780274472  1.0000
  O   O7        1.0  0.7841290292238625  0.5051632384439912  0.44387784781403633  1.0000
  O   O8        1.0  0.7980044316069127  0.9817243476296017  0.559546097790971  1.0000
  O   O9        1.0  0.4808760761286024  0.23545522264529242  0.5234301320101338  1.0000
  O   O10       1.0  0.5190930568156418  0.764605363011043  0.4765775389708865  1.0000
