data_image0
_chemical_formula_structural       Mg4H32C16O32
_chemical_formula_sum              "Mg4 H32 C16 O32"
_cell_length_a       5.70107974858458
_cell_length_b       9.499173083248579
_cell_length_c       14.294042797925234
_cell_angle_alpha    90.00025661648748
_cell_angle_beta     90.44449567280506
_cell_angle_gamma    89.99919768244435

_space_group_name_H-M_alt    "P 1"
_space_group_IT_number       1

loop_
  _space_group_symop_operation_xyz
  'x, y, z'

loop_
  _atom_site_type_symbol
  _atom_site_label
  _atom_site_symmetry_multiplicity
  _atom_site_fract_x
  _atom_site_fract_y
  _atom_site_fract_z
  _atom_site_occupancy
  Mg  Mg1       1.0  0.1375161913382286  0.6926954119313893  0.8430007448653993  1.0000
  Mg  Mg2       1.0  0.36249387919925624  0.19269552415907756  0.6569977393972476  1.0000
  Mg  Mg3       1.0  0.8624919797592555  0.3072994589529898  0.15699843082654746  1.0000
  Mg  Mg4       1.0  0.6375054675854699  0.8073046103835113  0.34300275338264885  1.0000
  H   H1        1.0  0.5266936657187458  0.7474820538872892  0.6532944893640075  1.0000
  H   H2        1.0  0.9733147117017253  0.24748155595248286  0.8467052593186535  1.0000
  H   H3        1.0  0.4732988846525145  0.2525180806634639  0.3467003426288996  1.0000
  H   H4        1.0  0.026679318579660105  0.7525217367871521  0.15329658325165949  1.0000
  H   H5        1.0  0.29634834168911073  0.8502830653254567  0.5184664452902579  1.0000
  H   H6        1.0  0.20365962168774843  0.35028372598247165  0.9815380709979277  1.0000
  H   H7        1.0  0.7036422903733807  0.14972128014147768  0.4815325668879637  1.0000
  H   H8        1.0  0.796351947567814  0.6497153557906757  0.01846393509313059  1.0000
  H   H9        1.0  0.36974445949935847  0.9215109093517246  0.7663770030701257  1.0000
  H   H10       1.0  0.1302707093957594  0.42151459787000783  0.7336256866880431  1.0000
  H   H11       1.0  0.6302550242826611  0.07848711973112901  0.23361999259668653  1.0000
  H   H12       1.0  0.8697251843322248  0.5784908002980489  0.2663733745494951  1.0000
  H   H13       1.0  0.6260124082428647  0.9612295001896385  0.5949105481259735  1.0000
  H   H14       1.0  0.8739997166850059  0.46123026794330724  0.9050919506649746  1.0000
  H   H15       1.0  0.37397463387507207  0.03877273985358441  0.4050905296103337  1.0000
  H   H16       1.0  0.1260136886225567  0.5387709192609125  0.09490797351536168  1.0000
  H   H17       1.0  0.27958415545258214  0.9146650679519158  0.9556436394288635  1.0000
  H   H18       1.0  0.22042952742302194  0.41466135210705357  0.5443562180203044  1.0000
  H   H19       1.0  0.7204204530097942  0.08533506656857533  0.044356902408942696  1.0000
  H   H20       1.0  0.7795663664022783  0.5853356242752953  0.45564284320600007  1.0000
  H   H21       1.0  0.3233100022013318  0.7646020548736348  0.007468970305040998  1.0000
  H   H22       1.0  0.17669425764191257  0.26459776018229775  0.49252753366108937  1.0000
  H   H23       1.0  0.6766983058083014  0.2353980796135034  0.9925267082836482  1.0000
  H   H24       1.0  0.8233068704786107  0.7353981634574115  0.5074722760437707  1.0000
  H   H25       1.0  0.6720410106307284  0.7048658426186236  0.8580213446830951  1.0000
  H   H26       1.0  0.8279682694681018  0.2048661378052543  0.6419803886067965  1.0000
  H   H27       1.0  0.3279688047444438  0.2951321864386785  0.14198064505391975  1.0000
  H   H28       1.0  0.1720310225517636  0.7951318912962224  0.358021503014406  1.0000
  H   H29       1.0  0.7820960915453697  0.8286974289556924  0.9186769483895173  1.0000
  H   H30       1.0  0.7179085728519752  0.3287003198082488  0.5813250988174585  1.0000
  H   H31       1.0  0.2179154503642522  0.17129744192726556  0.08132575711798037  1.0000
  H   H32       1.0  0.2820889104496588  0.6713008674755515  0.4186781752994263  1.0000
  C   C1        1.0  0.19838572082082356  0.6440943997118469  0.6410885356467586  1.0000
  C   C2        1.0  0.3016304059394557  0.14408596953372674  0.8589182611052661  1.0000
  C   C3        1.0  0.8015957034289298  0.35591310400412374  0.3589215855253868  1.0000
  C   C4        1.0  0.6983600070271123  0.8559131123384349  0.14108634644237839  1.0000
  C   C5        1.0  0.3407481271927041  0.7783055486193292  0.6600976121751571  1.0000
  C   C6        1.0  0.15926149961013894  0.27830555432233695  0.8399067121438006  1.0000
  C   C7        1.0  0.6592441766272188  0.22169458595536906  0.339903514616246  1.0000
  C   C8        1.0  0.8407394641793219  0.7216872111637047  0.16009729408919066  1.0000
  C   C9        1.0  0.29167013015626253  0.8953462123518607  0.5892015658127432  1.0000
  C   C10       1.0  0.20833509271520262  0.39534526587197405  0.9108016554626628  1.0000
  C   C11       1.0  0.7083291891730428  0.10465918580944594  0.4107996263962264  1.0000
  C   C12       1.0  0.7916625275958895  0.6046527632288843  0.08919812153973787  1.0000
  C   C13       1.0  0.04932564102470141  0.9593381323145995  0.6059712571476581  1.0000
  C   C14       1.0  0.4506868450586054  0.4593360649436493  0.8940329159817747  1.0000
  C   C15       1.0  0.9506648541134837  0.04066200227278931  0.3940312521352211  1.0000
  C   C16       1.0  0.5493283689671884  0.5406619640782471  0.10596562570287198  1.0000
  O   O1        1.0  0.08925769945226851  0.5927443323276196  0.711511561250546  1.0000
  O   O2        1.0  0.41075997014289106  0.09273657120056811  0.7884860060619371  1.0000
  O   O3        1.0  0.910755842864745  0.4072536966936583  0.288484865815299  1.0000
  O   O4        1.0  0.589248392728912  0.9072572469419742  0.21150827367421945  1.0000
  O   O5        1.0  0.2083735071171731  0.5919021522418009  0.560356940179467  1.0000
  O   O6        1.0  0.2916547325083769  0.09191018494830423  0.93964002360169  1.0000
  O   O7        1.0  0.7916086843028296  0.40809482416752746  0.4396335971610694  1.0000
  O   O8        1.0  0.7083553567640666  0.9080920549752279  0.06035497192038258  1.0000
  O   O9        1.0  0.29713295821229485  0.8269092490112943  0.7529251530232839  1.0000
  O   O10       1.0  0.20288091663930177  0.32690610441309087  0.7470765522901386  1.0000
  O   O11       1.0  0.7028751854419396  0.17308983276859646  0.2470747220963289  1.0000
  O   O12       1.0  0.7971185123535279  0.6730919246750845  0.25292184222078606  1.0000
  O   O13       1.0  0.4622044552424499  0.003851086028205901  0.5992997564395282  1.0000
  O   O14       1.0  0.03780279962136042  0.5038490796748719  0.9007023552829521  1.0000
  O   O15       1.0  0.5377862590038234  0.9961532594307418  0.4006971574725212  1.0000
  O   O16       1.0  0.9622051248882997  0.49614894940310006  0.09930311521171117  1.0000
  O   O17       1.0  0.043714582274645905  0.08310727105030223  0.6396029511062549  1.0000
  O   O18       1.0  0.4562802627857465  0.5831077450923348  0.8604006727288219  1.0000
  O   O19       1.0  0.956277748879046  0.9168981271377991  0.3603974762701155  1.0000
  O   O20       1.0  0.5437192757976136  0.41688923126198324  0.13959492409247073  1.0000
  O   O21       1.0  0.8715414125579745  0.885355506433598  0.5854450775749951  1.0000
  O   O22       1.0  0.6284741375573263  0.3853552633942885  0.9145593334729225  1.0000
  O   O23       1.0  0.12844905514912602  0.11464778632608844  0.4145581311341572  1.0000
  O   O24       1.0  0.3715393773651029  0.6146427656296538  0.08543779301498228  1.0000
  O   O25       1.0  0.23847391867727197  0.8123984478918589  0.9562950185892162  1.0000
  O   O26       1.0  0.2615245338948781  0.3123943793608604  0.5437058014260143  1.0000
  O   O27       1.0  0.7615271820364954  0.18759852847372127  0.04370549053910368  1.0000
  O   O28       1.0  0.7384747854709204  0.6876078606308056  0.4562953907787487  1.0000
  O   O29       1.0  0.8054164165706654  0.7728891073986193  0.8617369454936392  1.0000
  O   O30       1.0  0.6945895376125435  0.2728883991829181  0.6382649528644035  1.0000
  O   O31       1.0  0.19459342619909853  0.22710892165601862  0.13826434482132294  1.0000
  O   O32       1.0  0.3054079731323398  0.7271085772053781  0.36173762182481534  1.0000
