data_image0
_chemical_formula_structural       Al4H19C28O20F3
_chemical_formula_sum              "Al4 H19 C28 O20 F3"
_cell_length_a       6.67344905392005
_cell_length_b       13.159522631577403
_cell_length_c       16.96404685315452
_cell_angle_alpha    90.53561911707183
_cell_angle_beta     90.17823845429213
_cell_angle_gamma    90.3710122422046

_space_group_name_H-M_alt    "P 1"
_space_group_IT_number       1

loop_
  _space_group_symop_operation_xyz
  'x, y, z'

loop_
  _atom_site_type_symbol
  _atom_site_label
  _atom_site_symmetry_multiplicity
  _atom_site_fract_x
  _atom_site_fract_y
  _atom_site_fract_z
  _atom_site_occupancy
  Al  Al1       1.0  0.8827799604199665  0.501985471160019  0.4986067166601131  1.0000
  Al  Al2       1.0  0.38246771597029283  0.49981101512913995  0.4989309549269049  1.0000
  Al  Al3       1.0  0.3820526583022427  0.9903536961214386  0.9947190617516096  1.0000
  Al  Al4       1.0  0.8810474039753301  0.9904295246481357  0.9959544174951059  1.0000
  H   H1        1.0  0.38868232410381137  0.6876421189682063  0.838474685768581  1.0000
  H   H2        1.0  0.06516546045159538  0.5687177225629155  0.7754849416895763  1.0000
  H   H3        1.0  0.2890953576451664  0.6810709894091362  0.28853492519390755  1.0000
  H   H4        1.0  0.829436232636041  0.7926789337754557  0.18529880976146265  1.0000
  H   H5        1.0  0.2893443405218433  0.8036537825377793  0.20133812918513874  1.0000
  H   H6        1.0  0.93664493732075  0.19477428117567544  0.8073558822063942  1.0000
  H   H7        1.0  0.4782362889831403  0.17986698475576898  0.7872086722586004  1.0000
  H   H8        1.0  0.935195297876852  0.2892044013512845  0.6816573420549756  1.0000
  H   H9        1.0  0.48043955893619716  0.31095250849732287  0.7070749182320666  1.0000
  H   H10       1.0  0.9342964909110235  0.19355899127867107  0.18768383430991514  1.0000
  H   H11       1.0  0.47252730286098904  0.19749390864281222  0.19002334594567566  1.0000
  H   H12       1.0  0.9304893926851532  0.3122635170860876  0.3000880122874036  1.0000
  H   H13       1.0  0.7999719133770498  0.7346036114445486  0.806445339726096  1.0000
  H   H14       1.0  0.8767221276642589  0.8072010598112062  0.6531347952146118  1.0000
  H   H15       1.0  0.8331583500170864  0.7007511120778179  0.3123061430536751  1.0000
  H   H16       1.0  0.6314374991130618  0.6253155925382572  0.5323174348847175  1.0000
  H   H17       1.0  0.12749065382883623  0.37209276944317793  0.5251149529759829  1.0000
  H   H18       1.0  0.6305236329937994  0.8661168905593971  0.9605340930005678  1.0000
  H   H19       1.0  0.13166578153505523  0.11839813202007586  0.9693936573063409  1.0000
  C   C1        1.0  0.6292263046777933  0.38257809308451135  0.6084888841778733  1.0000
  C   C2        1.0  0.6352365517538912  0.38042289008805613  0.3920148429725429  1.0000
  C   C3        1.0  0.1382970392641383  0.6128921166852734  0.388006340464841  1.0000
  C   C4        1.0  0.13226171713125717  0.6244459344418659  0.6062399835516172  1.0000
  C   C5        1.0  0.09443863874274427  0.6488388220925785  0.7632718937538098  1.0000
  C   C6        1.0  0.27465494328909296  0.7131126364858463  0.796816173448242  1.0000
  C   C7        1.0  0.12644357083993188  0.8028911153647728  0.8142160246853576  1.0000
  C   C8        1.0  0.9478189840373188  0.7392015962046088  0.7793197258342772  1.0000
  C   C9        1.0  0.9895968022957289  0.781145187418986  0.6949258096262765  1.0000
  C   C10       1.0  0.16817449226488884  0.8451460171090518  0.7284175292618682  1.0000
  C   C11       1.0  0.3159101150456891  0.7547496096046874  0.7126422564145398  1.0000
  C   C12       1.0  0.13764406073648416  0.6907960660970077  0.6775933192350364  1.0000
  C   C13       1.0  0.9762930910766482  0.7148074356666002  0.2830195461822099  1.0000
  C   C14       1.0  0.1414417453030978  0.673130615104782  0.31524727679295944  1.0000
  C   C15       1.0  0.9746730059940204  0.775661737932758  0.21199156851502465  1.0000
  C   C16       1.0  0.13951447544490486  0.8144476570499324  0.1771015387843562  1.0000
  C   C17       1.0  0.7919801718805386  0.21157742656192371  0.7801561221927285  1.0000
  C   C18       1.0  0.626831587094699  0.17022820843073566  0.8129746884156572  1.0000
  C   C19       1.0  0.7916287948225643  0.27510118323339583  0.710590687985089  1.0000
  C   C20       1.0  0.6274202186764197  0.31939884184517814  0.6798538208455652  1.0000
  C   C21       1.0  0.7875754475431334  0.21543185241810658  0.21064744748357353  1.0000
  C   C22       1.0  0.6240582903625477  0.17866111554056374  0.17217828844491825  1.0000
  C   C23       1.0  0.7875449287981268  0.2817377298042274  0.27893345964241684  1.0000
  C   C24       1.0  0.627854969398335  0.31110381012651805  0.3221847789750497  1.0000
  C   C25       1.0  0.6363820998034554  0.11060610538108762  0.10296313170230316  1.0000
  C   C26       1.0  0.6303253608088396  0.10784542276810782  0.8848295762905563  1.0000
  C   C27       1.0  0.12595349213961524  0.8678806640056324  0.8863808434849287  1.0000
  C   C28       1.0  0.1337507390651282  0.8757526334044317  0.10484118961944938  1.0000
  O   O1        1.0  0.469159967865238  0.39853743027796196  0.4252629427105673  1.0000
  O   O2        1.0  0.7963767347095254  0.40113495597928056  0.5748849118090789  1.0000
  O   O3        1.0  0.9594230136973676  0.593187099423723  0.5844877935212338  1.0000
  O   O4        1.0  0.8064340947532781  0.4148984709275185  0.4119945541945923  1.0000
  O   O5        1.0  0.9715941921170809  0.5978647335594403  0.4227101235629504  1.0000
  O   O6        1.0  0.4570239963767192  0.41372106180622137  0.5860687038154138  1.0000
  O   O7        1.0  0.6328754684527452  0.5630840282127212  0.5011656949180647  1.0000
  O   O8        1.0  0.3084410450796256  0.5804982752434145  0.41117365640464226  1.0000
  O   O9        1.0  0.29911115978448066  0.6028461436707391  0.5742180750369241  1.0000
  O   O10       1.0  0.1308012981063698  0.43874286921410294  0.501383495661045  1.0000
  O   O11       1.0  0.7988471345640632  0.08834252475572411  0.9168905586622313  1.0000
  O   O12       1.0  0.4683505367714601  0.08772904215781817  0.07090010717096358  1.0000
  O   O13       1.0  0.3044360204000042  0.9045038484222163  0.07917011723744588  1.0000
  O   O14       1.0  0.4580657930855522  0.07887326712010893  0.9091227707554237  1.0000
  O   O15       1.0  0.29650904103567643  0.8893242817049015  0.9164237366638442  1.0000
  O   O16       1.0  0.8070743445497325  0.07964763055101538  0.07970728837217678  1.0000
  O   O17       1.0  0.6308747151721404  0.9277480817679875  0.9922850897493234  1.0000
  O   O18       1.0  0.9556339768212395  0.8974088466955764  0.9107488536501973  1.0000
  O   O19       1.0  0.9648595851228022  0.8950368491166004  0.0732769406676752  1.0000
  O   O20       1.0  0.13207918797144907  0.05143576521800243  0.9925883984186182  1.0000
  F   F1        1.0  0.4397802986710955  0.278376032483486  0.30428973325490455  1.0000
  F   F2        1.0  0.20517832707383113  0.9449721181517962  0.7114806769086426  1.0000
  F   F3        1.0  0.5026861275217982  0.764090775554145  0.6797271114559037  1.0000
