data_image0
_chemical_formula_structural       InH8C10N2F3
_chemical_formula_sum              "In1 H8 C10 N2 F3"
_cell_length_a       4.236653246031276
_cell_length_b       8.150951637422825
_cell_length_c       8.150948724196406
_cell_angle_alpha    81.75552429482572
_cell_angle_beta     74.96023993955819
_cell_angle_gamma    74.96027054574296

_space_group_name_H-M_alt    "P 1"
_space_group_IT_number       1

loop_
  _space_group_symop_operation_xyz
  'x, y, z'

loop_
  _atom_site_type_symbol
  _atom_site_label
  _atom_site_symmetry_multiplicity
  _atom_site_fract_x
  _atom_site_fract_y
  _atom_site_fract_z
  _atom_site_occupancy
  In  In1       1.0  1.4022985298730817e-06  0.4997681862488434  0.5002311680428874  1.0000
  H   H1        1.0  0.9883739378571127  0.8800041676638699  0.5233426915665547  1.0000
  H   H2        1.0  0.6081882337831392  0.5234374417514758  0.8797696809809848  1.0000
  H   H3        1.0  0.011620465210334986  0.47665664787889017  0.11999494938230978  1.0000
  H   H4        1.0  0.3918067585688547  0.12023125312212096  0.47656461809685874  1.0000
  H   H5        1.0  0.7848136405170792  0.10606772923318888  0.7329923890034776  1.0000
  H   H6        1.0  0.37606638491226374  0.7328612788880093  0.106017829370586  1.0000
  H   H7        1.0  0.21518324758884716  0.2670080030669694  0.8939313836637905  1.0000
  H   H8        1.0  0.6239329691994656  0.8939833594297254  0.26713826118768935  1.0000
  C   C1        1.0  0.8521920040846146  0.8550463913866791  0.6541571270158357  1.0000
  C   C2        1.0  0.6385573675951766  0.6541626476947187  0.8549332631114692  1.0000
  C   C3        1.0  0.14780312898203354  0.3458431770632658  0.14495366910660576  1.0000
  C   C4        1.0  0.36143992053487767  0.1450691085355018  0.3458369630040536  1.0000
  C   C5        1.0  0.7344900969442134  0.9792104062569962  0.769844840949645  1.0000
  C   C6        1.0  0.5161272380092684  0.7698586424909521  0.9790802729015127  1.0000
  C   C7        1.0  0.2655072807756726  0.2301558130914074  0.020789549531691896  1.0000
  C   C8        1.0  0.48387299543103524  0.0209199736970191  0.23014071905124203  1.0000
  C   C9        1.0  0.5636983347478837  0.9362133267820877  0.9361525172832968  1.0000
  C   C10       1.0  0.4362993948357071  0.06384827272830049  0.0637879875958305  1.0000
  N   N1        1.0  0.8042307977878455  0.6957877233647878  0.6957968105804182  1.0000
  N   N2        1.0  0.1957651874275471  0.3042040704895967  0.3042116922284777  1.0000
  F   F1        1.0  2.3120119834651302e-05  0.3060696731332867  0.6939262652997087  1.0000
  F   F2        1.0  1.3158746768773739e-06  0.6932741365101619  0.30672721238139633  1.0000
  F   F3        1.0  0.5000006058792794  0.5003227424705229  0.4996777894660623  1.0000
