data_image0
_chemical_formula_structural       Cu2H18C14I2N2
_chemical_formula_sum              "Cu2 H18 C14 I2 N2"
_cell_length_a       4.238269655728639
_cell_length_b       10.021297135325387
_cell_length_c       10.894899897120043
_cell_angle_alpha    113.42752722601706
_cell_angle_beta     95.08710784984957
_cell_angle_gamma    102.10937825223532

_space_group_name_H-M_alt    "P 1"
_space_group_IT_number       1

loop_
  _space_group_symop_operation_xyz
  'x, y, z'

loop_
  _atom_site_type_symbol
  _atom_site_label
  _atom_site_symmetry_multiplicity
  _atom_site_fract_x
  _atom_site_fract_y
  _atom_site_fract_z
  _atom_site_occupancy
  Cu  Cu1       1.0  0.27494389515914736  0.8792118673400681  0.9738154792205265  1.0000
  Cu  Cu2       1.0  0.7250611429189533  0.1207890052405389  0.026181816520598002  1.0000
  H   H1        1.0  0.18045550078285544  0.39206038295586154  0.5499474773073416  1.0000
  H   H2        1.0  0.8195430552838799  0.6079370722593609  0.4500547863766045  1.0000
  H   H3        1.0  0.6171284902286159  0.3428217294493122  0.846573565197538  1.0000
  H   H4        1.0  0.3828708648124392  0.6571813685646577  0.15342897645073353  1.0000
  H   H5        1.0  0.8199186033474605  0.6223890203072459  0.9817384010272577  1.0000
  H   H6        1.0  0.18008122620759082  0.37761522189095603  0.018259070866029934  1.0000
  H   H7        1.0  0.3212420337947962  0.7805142532333635  0.6743011271567738  1.0000
  H   H8        1.0  0.6787538931943755  0.21948321853092523  0.32569280345114754  1.0000
  H   H9        1.0  0.6569297240048684  0.7613741318429916  0.7664708511993653  1.0000
  H   H10       1.0  0.3430691354166484  0.23862448290859828  0.23352083573252713  1.0000
  H   H11       1.0  0.508994683274409  0.6327680592061854  0.5909350999094087  1.0000
  H   H12       1.0  0.4909982257028104  0.3672282772468805  0.4090583208760066  1.0000
  H   H13       1.0  0.610698231956789  0.1515423016977024  0.5018368008794596  1.0000
  H   H14       1.0  0.3893060389209425  0.8484607939223993  0.4981713929267215  1.0000
  H   H15       1.0  0.9730472578246958  0.12778158738234424  0.5735665138799177  1.0000
  H   H16       1.0  0.02694901148291976  0.8722158536776805  0.42643843072214344  1.0000
  H   H17       1.0  0.6226424848999057  0.11901104384493526  0.6516252044543549  1.0000
  H   H18       1.0  0.3773528852430632  0.8809931598081139  0.3483813006065547  1.0000
  C   C1        1.0  0.20503560469926907  0.5939118536040625  0.727214128730381  1.0000
  C   C2        1.0  0.7949603793429815  0.40608561304284774  0.2727816375432326  1.0000
  C   C3        1.0  0.09444982594222755  0.4388726249261338  0.6456089863357235  1.0000
  C   C4        1.0  0.9055516625568457  0.5611259732763899  0.35439103367219366  1.0000
  C   C5        1.0  0.882135193728935  0.34320040231591525  0.6855053256725797  1.0000
  C   C6        1.0  0.1178730335203398  0.6568015902237933  0.31449798688812797  1.0000
  C   C7        1.0  0.782939748753691  0.411047664838037  0.809585502801646  1.0000
  C   C8        1.0  0.21706968426241963  0.5889565930419352  0.19041593074469176  1.0000
  C   C9        1.0  0.8971397808681162  0.566128837597489  0.8856402527885692  1.0000
  C   C10       1.0  0.10286010574000677  0.4338753994833341  0.11435905477041082  1.0000
  C   C11       1.0  0.43566438655910406  0.6964893678034089  0.6865726429288799  1.0000
  C   C12       1.0  0.5643315689566036  0.3035081014021941  0.31342220551188393  1.0000
  C   C13       1.0  0.7650811361996472  0.17648269854229434  0.5990450994745161  1.0000
  C   C14       1.0  0.234919849258887  0.8235147580346834  0.40095907245554224  1.0000
  I   I1        1.0  0.17752527323258246  0.0627458636672671  0.8593625802537377  1.0000
  I   I2        1.0  0.8224783772510519  0.9372482321651177  0.14063583594666806  1.0000
  N   N1        1.0  0.10625303412605552  0.6575259274627712  0.8477483779512127  1.0000
  N   N2        1.0  0.893745561135624  0.3424760519538524  0.15225005512359502  1.0000
