data_image0
_chemical_formula_structural       Zn4H42C76S6N4O22
_chemical_formula_sum              "Zn4 H42 C76 S6 N4 O22"
_cell_length_a       12.74401658220592
_cell_length_b       13.851481936446376
_cell_length_c       28.06858515129824
_cell_angle_alpha    89.79923938943907
_cell_angle_beta     89.77637788447545
_cell_angle_gamma    89.90704301120999

_space_group_name_H-M_alt    "P 1"
_space_group_IT_number       1

loop_
  _space_group_symop_operation_xyz
  'x, y, z'

loop_
  _atom_site_type_symbol
  _atom_site_label
  _atom_site_symmetry_multiplicity
  _atom_site_fract_x
  _atom_site_fract_y
  _atom_site_fract_z
  _atom_site_occupancy
  Zn  Zn1       1.0  0.5013707658484847  0.399739736415569  0.4989647354488084  1.0000
  Zn  Zn2       1.0  0.4979290300125142  0.6003921266076163  0.49881407491799473  1.0000
  Zn  Zn3       1.0  0.5016222620822502  0.6006684777015252  0.0441679682769021  1.0000
  Zn  Zn4       1.0  0.4990799288615476  0.4000322505198852  0.0443535775134336  1.0000
  H   H1        1.0  0.38445506153932735  0.2472953184703997  0.5522143867646676  1.0000
  H   H2        1.0  0.3103656574745912  0.08817054793396298  0.5858854098838647  1.0000
  H   H3        1.0  0.613290157998712  0.2513451058696958  0.4483575448466439  1.0000
  H   H4        1.0  0.6153747597155358  0.7532885158127132  0.446960838729467  1.0000
  H   H5        1.0  0.6901117673424011  0.911880608312238  0.4138191969955897  1.0000
  H   H6        1.0  0.38586068772686827  0.7486262946242733  0.5504818986332936  1.0000
  H   H7        1.0  0.5000286442285073  0.6576425153834647  0.6512802967921019  1.0000
  H   H8        1.0  0.5006426580172273  0.7473741487748031  0.7287263107181161  1.0000
  H   H9        1.0  0.49886884452975266  0.3501147297614439  0.648350850995037  1.0000
  H   H10       1.0  0.4998637474621217  0.3421237347737502  0.8918181850892565  1.0000
  H   H11       1.0  0.49924884311596424  0.25243961131620557  0.814404916345687  1.0000
  H   H12       1.0  0.500479694134178  0.6496778674477782  0.8947966521327615  1.0000
  H   H13       1.0  0.3850417327192304  0.7537028593470723  0.9912108080697664  1.0000
  H   H14       1.0  0.31176769676723376  0.9131249209219024  0.9576975102227578  1.0000
  H   H15       1.0  0.6137618273805286  0.7483548514324525  0.0942930454731155  1.0000
  H   H16       1.0  0.6168018095471339  0.24649741118067683  0.09585751489719742  1.0000
  H   H17       1.0  0.6913071910294944  0.08742649831430782  0.1287046985477218  1.0000
  H   H18       1.0  0.3879129666154313  0.252232038435686  0.9928451283347002  1.0000
  H   H19       1.0  0.3003286660637342  0.8349799796641835  0.5893391227116707  1.0000
  H   H20       1.0  0.6989972818083956  0.16527651140539493  0.4098728330445168  1.0000
  H   H21       1.0  0.5032241932776671  0.7516898983857344  0.8538899797879509  1.0000
  H   H22       1.0  0.5012529511599765  0.24815917983639932  0.6892282824945184  1.0000
  H   H23       1.0  0.30217488403802406  0.16633925137113442  0.9542760406169392  1.0000
  H   H24       1.0  0.699757220191067  0.8339418740691471  0.1324571774130376  1.0000
  H   H25       1.0  0.5707520937863179  0.699615103321158  0.36001924029768156  1.0000
  H   H26       1.0  0.500229772200086  0.7319346200843031  0.30743674809439625  1.0000
  H   H27       1.0  0.4327899272748397  0.6991163174832875  0.36111103844121567  1.0000
  H   H28       1.0  0.5707356605208672  0.2998357770609702  0.1829021075809152  1.0000
  H   H29       1.0  0.499984591785946  0.2677689930848643  0.2356713412323757  1.0000
  H   H30       1.0  0.4328018159596069  0.3009552705806443  0.1821921292569328  1.0000
  H   H31       1.0  0.19521166168845375  0.29967167492704755  0.5315375378229277  1.0000
  H   H32       1.0  0.07969468134611898  0.2677407010189655  0.4994867194151311  1.0000
  H   H33       1.0  0.19795858120806287  0.3004704864420376  0.46890227381076943  1.0000
  H   H34       1.0  0.8022050129510275  0.6995308352327997  0.5311274750639754  1.0000
  H   H35       1.0  0.9203133363388216  0.7319968511442667  0.5004227082220112  1.0000
  H   H36       1.0  0.804384181969965  0.7005294243578675  0.4685008935993835  1.0000
  H   H37       1.0  0.1954956063959585  0.7015082510192702  0.0124048995212434  1.0000
  H   H38       1.0  0.07981557661656072  0.7336696659854244  0.0447620773300841  1.0000
  H   H39       1.0  0.19809181953948493  0.700991886616734  0.07502642452308089  1.0000
  H   H40       1.0  0.803690419616835  0.30177873848702325  0.013722305227013  1.0000
  H   H41       1.0  0.9216853815551076  0.2696193454192298  0.044302433043377186  1.0000
  H   H42       1.0  0.8054379930214495  0.3014475944780984  0.07636120431565979  1.0000
  C   C1        1.0  0.4981405740540836  0.5033709592364702  0.5925699084728394  1.0000
  C   C2        1.0  0.29394525586228326  0.5029508815174497  0.49968784400463306  1.0000
  C   C3        1.0  0.5016790467703202  0.4969564223114489  0.4052751986458317  1.0000
  C   C4        1.0  0.7054769462155903  0.49750408477917324  0.4986901317160529  1.0000
  C   C5        1.0  0.49920010962552647  0.4963445030011189  0.950583624542432  1.0000
  C   C6        1.0  0.2946625425220332  0.49826804336975544  0.04418605968070471  1.0000
  C   C7        1.0  0.5018882192450748  0.5027753841019091  0.1378837035388827  1.0000
  C   C8        1.0  0.7061348494833766  0.5041578467641019  0.04458172051357679  1.0000
  C   C9        1.0  0.43478374518403473  0.20317452019723703  0.5294617827036276  1.0000
  C   C10       1.0  0.4314645208064221  0.10180500942257711  0.5310099673107587  1.0000
  C   C11       1.0  0.363105485733655  0.04948019344204372  0.5619398621974625  1.0000
  C   C12       1.0  0.5646582101577877  0.20425513043974064  0.4705558378158726  1.0000
  C   C13       1.0  0.5688715824530844  0.10337031154961103  0.4687979638673524  1.0000
  C   C14       1.0  0.638046044954791  0.04994832040796381  0.4375100199545869  1.0000
  C   C15       1.0  0.565121032250893  0.7972045871469793  0.4698171311054153  1.0000
  C   C16       1.0  0.5688922625679425  0.8985339083219515  0.4685852719617998  1.0000
  C   C17       1.0  0.6374602877579533  0.9507263284233434  0.4377359809300287  1.0000
  C   C18       1.0  0.43496941962049357  0.7958372328223007  0.528564148143218  1.0000
  C   C19       1.0  0.43132717815507954  0.8967466066718759  0.5307011555669021  1.0000
  C   C20       1.0  0.36238326872900467  0.9502288873974508  0.562088769558315  1.0000
  C   C21       1.0  0.5004834113575782  0.051091559212700616  0.4997592288482409  1.0000
  C   C22       1.0  0.4999167333890426  0.9491468475718536  0.4998769768169211  1.0000
  C   C23       1.0  0.5016120515480154  0.5801847131293274  0.32300497919997173  1.0000
  C   C24       1.0  0.501694698589631  0.41954778279171745  0.2201436861491288  1.0000
  C   C25       1.0  0.5017978476863972  0.499565365192389  0.3528379173464344  1.0000
  C   C26       1.0  0.5019271239592981  0.5001744326253359  0.1903199932099469  1.0000
  C   C27       1.0  0.5020127631952817  0.44953162965297383  0.2683857954714668  1.0000
  C   C28       1.0  0.5019806326711277  0.550179380680575  0.2747691758689328  1.0000
  C   C29       1.0  0.49906873563109844  0.5898837596289044  0.6711569875749035  1.0000
  C   C30       1.0  0.4992857674086294  0.5904810917815624  0.7211976552807755  1.0000
  C   C31       1.0  0.5000409312690407  0.6784105038822617  0.7475924839098127  1.0000
  C   C32       1.0  0.4985677482915562  0.4149251225474161  0.6704289620564765  1.0000
  C   C33       1.0  0.49877157479626527  0.4117417940654278  0.7202567578360541  1.0000
  C   C34       1.0  0.498926576612547  0.3221684668588836  0.7467627523340495  1.0000
  C   C35       1.0  0.49923615455780623  0.4099172879828076  0.8719691618731247  1.0000
  C   C36       1.0  0.49904025980980987  0.4093430404088566  0.8219341416722585  1.0000
  C   C37       1.0  0.49897172290697966  0.32140155061411246  0.7955402684105906  1.0000
  C   C38       1.0  0.4997512767852824  0.5848685984569998  0.8727235320640858  1.0000
  C   C39       1.0  0.4996902214457322  0.5880721960496659  0.8228926243262151  1.0000
  C   C40       1.0  0.5002610645868941  0.6776421642530865  0.796377179218311  1.0000
  C   C41       1.0  0.4984866791555617  0.5031137193436521  0.6459883998332288  1.0000
  C   C42       1.0  0.4989660499959854  0.500276055107257  0.7463047707872903  1.0000
  C   C43       1.0  0.499338040692379  0.4966574951247864  0.8971599794687108  1.0000
  C   C44       1.0  0.4991504434260108  0.499558097898941  0.7968330828447064  1.0000
  C   C45       1.0  0.11332159567433558  0.41940346891585273  0.4999523783849043  1.0000
  C   C46       1.0  0.8862145942468159  0.5804512594972665  0.4998722803418189  1.0000
  C   C47       1.0  0.1786039289329651  0.4999681772783404  0.5000420820302907  1.0000
  C   C48       1.0  0.820841968992397  0.49995274099606496  0.49931775329664413  1.0000
  C   C49       1.0  0.9925035425635044  0.5502348649173074  0.5001843963142107  1.0000
  C   C50       1.0  0.006966840059270401  0.44954050138114343  0.4999653512564065  1.0000
  C   C51       1.0  0.4355626856598675  0.7975246884614436  0.013767502245670502  1.0000
  C   C52       1.0  0.4327338578349895  0.8989099510339574  0.0121694022462648  1.0000
  C   C53       1.0  0.36462464104393183  0.9515666935406771  0.9814387341025677  1.0000
  C   C54       1.0  0.5652770388906774  0.7957349281185913  0.0722822038500794  1.0000
  C   C55       1.0  0.5698498810365747  0.8965914007609259  0.0740056223247763  1.0000
  C   C56       1.0  0.6390300137723132  0.9496442721776361  0.1051133930839114  1.0000
  C   C57       1.0  0.5666659720474314  0.20283122574895174  0.0730839336584665  1.0000
  C   C58       1.0  0.5703273626512696  0.10147828111630024  0.0742665803611189  1.0000
  C   C59       1.0  0.6386278164718462  0.04887807159374091  0.10492975199579747  1.0000
  C   C60       1.0  0.4368648517250406  0.20483004552673384  0.0146355024328031  1.0000
  C   C61       1.0  0.4331254838396318  0.10394750803797591  0.012474224919017698  1.0000
  C   C62       1.0  0.36414551066125966  0.050813311668498826  0.9812915570845107  1.0000
  C   C63       1.0  0.5017972791598168  0.9492550352232243  0.0432137188881043  1.0000
  C   C64       1.0  0.5014662723755164  0.051199425396745796  0.04311035362845671  1.0000
  C   C65       1.0  0.11383116053678319  0.5819706287561887  0.04437366478315849  1.0000
  C   C66       1.0  0.8870989339152044  0.4211462973075372  0.0445426786076624  1.0000
  C   C67       1.0  0.17930308268948636  0.5013224819635553  0.0443144983974051  1.0000
  C   C68       1.0  0.8215063916153439  0.5016882531499862  0.0446088977241601  1.0000
  C   C69       1.0  0.9933247593694219  0.4512733946986104  0.04443354914141649  1.0000
  C   C70       1.0  0.007543914536270798  0.5519483144787432  0.0444546819353278  1.0000
  C   C71       1.0  0.5011755575725445  0.6835106200424194  0.33848456318511916  1.0000
  C   C72       1.0  0.5011306946968971  0.3162339579001029  0.20464053348370467  1.0000
  C   C73       1.0  0.14789785197523028  0.3160448147683895  0.4998757731440122  1.0000
  C   C74       1.0  0.8519378892422222  0.6838962214473128  0.5000466364216649  1.0000
  C   C75       1.0  0.14814429818106586  0.6853069277546595  0.0442246516908966  1.0000
  C   C76       1.0  0.8531398767607639  0.31772433478212037  0.04465729195081279  1.0000
  S   S1        1.0  0.5018555740726568  0.3899700626465475  0.32246128149097336  1.0000
  S   S2        1.0  0.5018890416167281  0.6097567354141731  0.2206990980051202  1.0000
  S   S3        1.0  0.11129131143834309  0.6096540640955583  0.5002383590967625  1.0000
  S   S4        1.0  0.8880965558817093  0.39021917737409956  0.4994661242889292  1.0000
  S   S5        1.0  0.11222906783061858  0.3917198254655149  0.0444000200947343  1.0000
  S   S6        1.0  0.888495502559749  0.6113735505884962  0.04443724778536761  1.0000
  N   N1        1.0  0.4993156244734322  0.25136200822326776  0.5001143600224225  1.0000
  N   N2        1.0  0.5001163837979732  0.7488566229448639  0.4988384293492558  1.0000
  N   N3        1.0  0.4997917578737086  0.7489912171365423  0.04295065993569841  1.0000
  N   N4        1.0  0.5018762413306631  0.25152121215004547  0.0442390271683735  1.0000
  O   O1        1.0  0.49997122169115465  0.4215337191157503  0.5719030018365387  1.0000
  O   O2        1.0  0.49611649333272817  0.5853158578930863  0.5718291266416315  1.0000
  O   O3        1.0  0.33672996596541077  0.5864142118531036  0.4999381570970414  1.0000
  O   O4        1.0  0.3422134549511711  0.4220886144742977  0.4990587013712115  1.0000
  O   O5        1.0  0.49936612710908423  0.5782101098477955  0.42664484803180597  1.0000
  O   O6        1.0  0.5037134628916887  0.4138935344853253  0.42526038268144356  1.0000
  O   O7        1.0  0.6621261046535453  0.4142470289531417  0.4981068299615359  1.0000
  O   O8        1.0  0.6577552981617882  0.5785880179738145  0.4988372054266179  1.0000
  O   O9        1.0  0.5010568034419052  0.5781350691395916  0.9712733836606232  1.0000
  O   O10       1.0  0.49721762510181816  0.41437608053512065  0.9713196139414535  1.0000
  O   O11       1.0  0.3377619048462464  0.4148134821278049  0.0438341877331041  1.0000
  O   O12       1.0  0.3426080720411094  0.5791489404866184  0.044456665456309  1.0000
  O   O13       1.0  0.5000682614392814  0.4214842661694079  0.11654547387753672  1.0000
  O   O14       1.0  0.5035348185110281  0.585818488696397  0.11787861159818648  1.0000
  O   O15       1.0  0.6624905362454854  0.5874149837553306  0.044974934446678105  1.0000
  O   O16       1.0  0.6586739162518213  0.42308678855847853  0.04407099353152689  1.0000
  O   O17       1.0  0.2952974505266042  0.9048300350835135  0.5925149617526912  1.0000
  O   O18       1.0  0.705101889480609  0.095420023438237  0.4070973669894116  1.0000
  O   O19       1.0  0.5008494507477436  0.7641744331850477  0.8197250217181491  1.0000
  O   O20       1.0  0.4988552641739047  0.23565446229629575  0.7233993932383598  1.0000
  O   O21       1.0  0.2971353759430214  0.0965086407513738  0.9511026888197448  1.0000
  O   O22       1.0  0.7059102501392472  0.9037785696726319  0.1352919178648975  1.0000
