data_image0
_chemical_formula_structural       Zn4H36C64N4O16F4
_chemical_formula_sum              "Zn4 H36 C64 N4 O16 F4"
_cell_length_a       9.698135567460426
_cell_length_b       10.492170727843295
_cell_length_c       14.61752047307246
_cell_angle_alpha    98.46216453680424
_cell_angle_beta     94.93036697687536
_cell_angle_gamma    102.04760525079149

_space_group_name_H-M_alt    "P 1"
_space_group_IT_number       1

loop_
  _space_group_symop_operation_xyz
  'x, y, z'

loop_
  _atom_site_type_symbol
  _atom_site_label
  _atom_site_symmetry_multiplicity
  _atom_site_fract_x
  _atom_site_fract_y
  _atom_site_fract_z
  _atom_site_occupancy
  Zn  Zn1       1.0  0.5490146967099322  0.7345376971458961  0.6079423713010571  1.0000
  Zn  Zn2       1.0  0.4509838007874549  0.26546245608317076  0.3920585298770832  1.0000
  Zn  Zn3       1.0  0.5402316628950814  0.7755594374819953  0.8415216894687846  1.0000
  Zn  Zn4       1.0  0.4597648113064352  0.22444159438293096  0.1584757998087625  1.0000
  H   H1        1.0  0.23868176026924465  0.6371421881148295  0.7560562184392551  1.0000
  H   H2        1.0  0.7613149002022369  0.36285981751530744  0.24394069066722324  1.0000
  H   H3        1.0  0.047488180942949015  0.6259216326399725  0.86147905649365  1.0000
  H   H4        1.0  0.952506629665763  0.3740764303646458  0.13851875743232972  1.0000
  H   H5        1.0  0.8467636289942534  0.8672208673930513  0.7052777523693409  1.0000
  H   H6        1.0  0.15323391694077065  0.13278019722030623  0.2947204655672309  1.0000
  H   H7        1.0  0.03243289393795833  0.8709964337363021  0.5960027653378788  1.0000
  H   H8        1.0  0.9675646768604623  0.12900954103592  0.4039952591130032  1.0000
  H   H9        1.0  0.6617023140778003  0.3696938896368494  0.5990952552668318  1.0000
  H   H10       1.0  0.3383032267027772  0.6303102958786369  0.40090494835828844  1.0000
  H   H11       1.0  0.6658589148755496  0.134691738007497  0.6001035713474749  1.0000
  H   H12       1.0  0.33414492926280576  0.8653094638314304  0.3998962697203511  1.0000
  H   H13       1.0  0.47048046255400794  0.14797957611200024  0.8540286290739871  1.0000
  H   H14       1.0  0.5295239155308382  0.8520196368636948  0.14596966496633001  1.0000
  H   H15       1.0  0.4649928708350544  0.38485617128751676  0.851865654031883  1.0000
  H   H16       1.0  0.5350111677592722  0.615141108974001  0.1481344875563053  1.0000
  H   H17       1.0  0.6782349185769477  0.5414189852479085  0.4941085356508168  1.0000
  H   H18       1.0  0.32175740907425177  0.4585770795456839  0.5058896685049703  1.0000
  H   H19       1.0  0.811430452829214  0.5372243583797669  0.35888795474105006  1.0000
  H   H20       1.0  0.1885635384147903  0.4627746752741331  0.6411099247662976  1.0000
  H   H21       1.0  0.7881341592550797  0.9465466089421781  0.35850943546891767  1.0000
  H   H22       1.0  0.2118688444956832  0.05345466386205541  0.6414944873800154  1.0000
  H   H23       1.0  0.6523013549665322  0.9315715614651126  0.49084486626225754  1.0000
  H   H24       1.0  0.3476993190472655  0.0684286720770544  0.5091581794396802  1.0000
  H   H25       1.0  0.011813547212156555  0.599723046881657  0.31044211472774214  1.0000
  H   H26       1.0  0.9881837253311762  0.4002761146500192  0.689559325168169  1.0000
  H   H27       1.0  0.16252594836920767  0.5999121096538292  0.18518969877368363  1.0000
  H   H28       1.0  0.8374729959529504  0.4000851253955347  0.8148122971652256  1.0000
  H   H29       1.0  0.20322090670052975  0.5483287420138938  0.04450900453849021  1.0000
  H   H30       1.0  0.7967863470942974  0.4516686364929114  0.9554933230267864  1.0000
  H   H31       1.0  0.3915749750116009  0.5718725487181616  0.9399283318621556  1.0000
  H   H32       1.0  0.6084285837085446  0.42812763490681505  0.06007002775952939  1.0000
  H   H33       1.0  0.3858372033519545  0.963952902997008  0.933251105234632  1.0000
  H   H34       1.0  0.6141548096721294  0.036046139241271605  0.0667487529833295  1.0000
  H   H35       1.0  0.20325951069892775  0.962455085298821  0.04229223511273969  1.0000
  H   H36       1.0  0.7967348402481349  0.0375401008589051  0.9577093809436406  1.0000
  C   C1        1.0  0.14768011813926316  0.7551696165257341  0.6695885147989814  1.0000
  C   C2        1.0  0.8523167947010181  0.24483339250210895  0.3304091885478968  1.0000
  C   C3        1.0  0.15133264010952271  0.6857523363761048  0.7445116399960484  1.0000
  C   C4        1.0  0.848665944509584  0.31424874616943305  0.2554866193938281  1.0000
  C   C5        1.0  0.046225330122688  0.6808587656704219  0.8038633323383877  1.0000
  C   C6        1.0  0.9537719303941259  0.319141280728978  0.19613340415205022  1.0000
  C   C7        1.0  0.9366625021684173  0.7469551329168029  0.7906503923764915  1.0000
  C   C8        1.0  0.06333724130590922  0.25304691169363025  0.20934595388413874  1.0000
  C   C9        1.0  0.9325720775818951  0.8164091260139515  0.7157121557514544  1.0000
  C   C10       1.0  0.06742833203657742  0.1835909889982332  0.2842853923046107  1.0000
  C   C11       1.0  0.03612858371386109  0.8190156348994366  0.6552049290940118  1.0000
  C   C12       1.0  0.9638694008599203  0.180987406876838  0.344793502911898  1.0000
  C   C13       1.0  0.2664028677017924  0.7682182887322356  0.6092673957381791  1.0000
  C   C14       1.0  0.7335974466089541  0.2317857923061055  0.3907319134147258  1.0000
  C   C15       1.0  0.8202262777362463  0.7355367162347265  0.8528464439676712  1.0000
  C   C16       1.0  0.1797720545140677  0.2644633629131051  0.1471510211817986  1.0000
  C   C17       1.0  0.5619332671175599  0.39120891874971164  0.7251996464990994  1.0000
  C   C18       1.0  0.43807268743837835  0.6087923337698274  0.2748009646810488  1.0000
  C   C19       1.0  0.6202997392599343  0.32092324801561034  0.6550660715029935  1.0000
  C   C20       1.0  0.3797064676647963  0.6790790079016277  0.3449353339175616  1.0000
  C   C21       1.0  0.6231360276791876  0.18913898162026047  0.6559950849830471  1.0000
  C   C22       1.0  0.37687008009729794  0.8108632298482376  0.34400425882029856  1.0000
  C   C23       1.0  0.5678870192237468  0.12666579922733232  0.7276542436927544  1.0000
  C   C24       1.0  0.432120946601522  0.8733354595240715  0.2723450759825212  1.0000
  C   C25       1.0  0.5124769058311216  0.19774070221895107  0.7988117858343243  1.0000
  C   C26       1.0  0.48752678508667924  0.8022595406710097  0.2011893226103041  1.0000
  C   C27       1.0  0.5090712627748318  0.328918236136893  0.7975109505830887  1.0000
  C   C28       1.0  0.49093443941230674  0.6710820129849325  0.20248886635666  1.0000
  C   C29       1.0  0.5534813262302763  0.53094510599297  0.7230585413531259  1.0000
  C   C30       1.0  0.4465192816846937  0.46905509791670136  0.2769431299373437  1.0000
  C   C31       1.0  0.5621846690295272  0.9835699810233294  0.7270038256418021  1.0000
  C   C32       1.0  0.43781800422708284  0.016431143618426305  0.27299322514979  1.0000
  C   C33       1.0  0.7052791065671684  0.6290192381259632  0.461850694145177  1.0000
  C   C34       1.0  0.29471702814383605  0.370979861024786  0.538148642680234  1.0000
  C   C35       1.0  0.7824289820832889  0.6287591524198605  0.38648033856795655  1.0000
  C   C36       1.0  0.2175674380459256  0.3712409649448461  0.6135204797035954  1.0000
  C   C37       1.0  0.8162516964747513  0.7431586392550075  0.3458553691725754  1.0000
  C   C38       1.0  0.1837491638090114  0.2568425680523775  0.6541470963583009  1.0000
  C   C39       1.0  0.7674357005258019  0.8536762003262341  0.3847218139330693  1.0000
  C   C40       1.0  0.23256626454087131  0.1463250545458195  0.6152820674625659  1.0000
  C   C41       1.0  0.6902013559672682  0.8464101234952894  0.4600531049397959  1.0000
  C   C42       1.0  0.3097992849971121  0.1535900952306335  0.5399492535564079  1.0000
  C   C43       1.0  0.9026472500570506  0.7445107778328153  0.2676409865900382  1.0000
  C   C44       1.0  0.09735225307500173  0.25548937851218073  0.7323592688356655  1.0000
  C   C45       1.0  0.00043708332204065657  0.6625773405444735  0.2586102088933941  1.0000
  C   C46       1.0  0.9995615133235846  0.3374228571333333  0.7413927539019552  1.0000
  C   C47       1.0  0.08653187769242983  0.6630933393847444  0.18783480204785974  1.0000
  C   C48       1.0  0.9134658747250911  0.3369029187834799  0.8121684198145545  1.0000
  C   C49       1.0  0.08253839647183274  0.7473992464932027  0.12164670393502061  1.0000
  C   C50       1.0  0.9174615204355805  0.2525979768558457  0.878353959045711  1.0000
  C   C51       1.0  0.9829818698220266  0.8268119554193023  0.1287650165601733  1.0000
  C   C52       1.0  0.01701760844662201  0.1731832907668291  0.8712354323512275  1.0000
  C   C53       1.0  0.8956668740106295  0.8254096702332275  0.19975650812236265  1.0000
  C   C54       1.0  0.10433096552861092  0.17458751725146732  0.8002440719517807  1.0000
  C   C55       1.0  0.18512055822446882  0.7543427629660898  0.05302805031958261  1.0000
  C   C56       1.0  0.8148802441464724  0.24565351936617216  0.9469739214912493  1.0000
  C   C57       1.0  0.2399360223164209  0.6434094745507863  0.022472445965924185  1.0000
  C   C58       1.0  0.7600691541102406  0.3565878680916583  0.977529798692764  1.0000
  C   C59       1.0  0.34605295391831  0.6553077086115239  0.9645640581996346  1.0000
  C   C60       1.0  0.653947587897825  0.34469246566565914  0.035436238679366704  1.0000
  C   C61       1.0  0.3437533720857574  0.8752902815841498  0.9614637821581625  1.0000
  C   C62       1.0  0.6562405320365344  0.12470782275327966  0.0385367391374558  1.0000
  C   C63       1.0  0.23894932633504595  0.8722309514239582  0.02041598770324525  1.0000
  C   C64       1.0  0.7610483269342297  0.1277652622955188  0.9795851725419668  1.0000
  N   N1        1.0  0.6593162706588132  0.7360775555872296  0.49841446131971173  1.0000
  N   N2        1.0  0.3406807495157267  0.2639206025467403  0.5015861843357996  1.0000
  N   N3        1.0  0.39864839280272696  0.7695520770716726  0.9346897879920704  1.0000
  N   N4        1.0  0.6013477088588671  0.23044700726283204  0.0653088616276065  1.0000
  O   O1        1.0  0.28458099144465615  0.8559402784537155  0.559793280333821  1.0000
  O   O2        1.0  0.715421499382501  0.14406388289772565  0.4402081733428815  1.0000
  O   O3        1.0  0.3473932067050925  0.6836606256367335  0.61626909359466  1.0000
  O   O4        1.0  0.6526046576975592  0.3163414720068263  0.3837312929937866  1.0000
  O   O5        1.0  0.7445025824236353  0.8251469835979252  0.8503016593964292  1.0000
  O   O6        1.0  0.25549600219546426  0.17485409894760554  0.1496965999934403  1.0000
  O   O7        1.0  0.798943829395739  0.6441284834255898  0.8991968882605976  1.0000
  O   O8        1.0  0.2010533650222399  0.3558715333413147  0.10079847381837942  1.0000
  O   O9        1.0  0.6112802077968312  0.5869344570514488  0.6597148634012414  1.0000
  O   O10       1.0  0.38872206371094364  0.41306871571853787  0.3402864832407957  1.0000
  O   O11       1.0  0.4881480387950178  0.5852541949964093  0.7845123030183531  1.0000
  O   O12       1.0  0.5118510256982773  0.41474398418566943  0.2154877383380125  1.0000
  O   O13       1.0  0.6202295592154102  0.9236114461655022  0.6640029366602108  1.0000
  O   O14       1.0  0.3797741857747  0.07638971122467812  0.3359948427904129  1.0000
  O   O15       1.0  0.49720038690437474  0.9295123628639959  0.7887292798699335  1.0000
  O   O16       1.0  0.5027986325129706  0.07048668636956283  0.21126537087522482  1.0000
  F   F1        1.0  0.8014734351351579  0.904425327295542  0.19888442569949663  1.0000
  F   F2        1.0  0.19852858400382437  0.09557684207673132  0.8011161267021407  1.0000
  F   F3        1.0  0.9656519736483065  0.9065070393951231  0.06590319400563519  1.0000
  F   F4        1.0  0.034344604046957314  0.09348513110103343  0.9340934148664959  1.0000
