data_image0
_chemical_formula_structural       Mn4H24C16O24
_chemical_formula_sum              "Mn4 H24 C16 O24"
_cell_length_a       7.594180253776151
_cell_length_b       9.064005765528451
_cell_length_c       9.29168220974071
_cell_angle_alpha    89.99969757350493
_cell_angle_beta     89.99977837603079
_cell_angle_gamma    89.9993954391803

_space_group_name_H-M_alt    "P 1"
_space_group_IT_number       1

loop_
  _space_group_symop_operation_xyz
  'x, y, z'

loop_
  _atom_site_type_symbol
  _atom_site_label
  _atom_site_symmetry_multiplicity
  _atom_site_fract_x
  _atom_site_fract_y
  _atom_site_fract_z
  _atom_site_occupancy
  Mn  Mn1       1.0  0.8556051025894649  0.7773116803575774  0.7526273063684883  1.0000
  Mn  Mn2       1.0  0.6443943625272084  0.22269301065766467  0.25264416236766607  1.0000
  Mn  Mn3       1.0  0.1444057411613215  0.27731688954031597  0.7473696168994337  1.0000
  Mn  Mn4       1.0  0.3555898011408445  0.7226874330089782  0.24736691138220118  1.0000
  H   H1        1.0  0.8365918049699985  0.5670819581378196  0.5294790109684938  1.0000
  H   H2        1.0  0.6633942547399414  0.4329072089920842  0.029485760765261698  1.0000
  H   H3        1.0  0.16340468406224323  0.06709122960320711  0.9705085130167532  1.0000
  H   H4        1.0  0.33660953132009297  0.9329153768344584  0.4704981207635228  1.0000
  H   H5        1.0  0.7168110213300097  0.6942736398509197  0.46484376472422895  1.0000
  H   H6        1.0  0.7831913042441059  0.30571734501885567  0.964843855546711  1.0000
  H   H7        1.0  0.2831845133377513  0.19427541888081382  0.0351581856026186  1.0000
  H   H8        1.0  0.21682133719239968  0.8057238543826486  0.5351557342504875  1.0000
  H   H9        1.0  0.5465863245462258  0.13300237366912177  0.8256412915395259  1.0000
  H   H10       1.0  0.9534277035797701  0.8669927133571987  0.3256435655016503  1.0000
  H   H11       1.0  0.45341438621967006  0.6330175974103368  0.6743574974093036  1.0000
  H   H12       1.0  0.046579761668105804  0.3669797799050015  0.1743462708333396  1.0000
  H   H13       1.0  0.6745084844776413  0.051768100869559  0.9652110226020199  1.0000
  H   H14       1.0  0.8255109595691011  0.9482306255652377  0.46521596834616463  1.0000
  H   H15       1.0  0.32550101638769036  0.5517740385918798  0.5347763084589802  1.0000
  H   H16       1.0  0.17449298251463574  0.4482263187571647  0.0347756395847796  1.0000
  H   H17       1.0  0.35520574150952194  0.8235439294576992  0.8408959262996163  1.0000
  H   H18       1.0  0.1448083359128631  0.17645512039603517  0.34088423542632995  1.0000
  H   H19       1.0  0.6447857970821788  0.32354927816714957  0.6591532182970923  1.0000
  H   H20       1.0  0.8551951332830825  0.6764518610314809  0.1591391911322688  1.0000
  H   H21       1.0  0.4598921100409754  0.9050609565997333  0.9913664982001437  1.0000
  H   H22       1.0  0.0401273950359524  0.09493896570566561  0.49136132158089657  1.0000
  H   H23       1.0  0.5401485559642722  0.40507936745576967  0.508656419564943  1.0000
  H   H24       1.0  0.9598374810637011  0.5949220016447397  0.0086442062537486  1.0000
  C   C1        1.0  0.822097292960109  0.09771922669721529  0.7769181928059723  1.0000
  C   C2        1.0  0.677900881592443  0.9022767440716919  0.2769246747710596  1.0000
  C   C3        1.0  0.177885022750246  0.5977381231127268  0.7230697163497553  1.0000
  C   C4        1.0  0.32209995913437683  0.4022694026653681  0.2230760411268804  1.0000
  C   C5        1.0  0.6521438686037017  0.053333634602871896  0.8482419243928162  1.0000
  C   C6        1.0  0.8478622827983883  0.9466625775314906  0.3482435745342299  1.0000
  C   C7        1.0  0.34784971167453443  0.5533495000915067  0.6517517735309538  1.0000
  C   C8        1.0  0.15213782782613813  0.446655577951482  0.1517502763908638  1.0000
  C   C9        1.0  0.48264493735752007  0.837432139544724  0.8954212643832804  1.0000
  C   C10       1.0  0.017370514839335296  0.16257183191010677  0.3954209569418268  1.0000
  C   C11       1.0  0.5173639839666749  0.3374357631820999  0.6045990971562956  1.0000
  C   C12       1.0  0.9826182051120823  0.6625626598668503  0.1045860508829222  1.0000
  C   C13       1.0  0.5554668901434711  0.6885180722340464  0.9411350020422589  1.0000
  C   C14       1.0  0.9445498945018188  0.3114838682867643  0.4411317106263724  1.0000
  C   C15       1.0  0.4445440987727167  0.1885201431540935  0.5588810336691878  1.0000
  C   C16       1.0  0.05544334237869461  0.8114659679654181  0.058858098789286786  1.0000
  O   O1        1.0  0.8991398774970422  0.008708195528591  0.6931584763980538  1.0000
  O   O2        1.0  0.6008661080769713  0.9912990507936572  0.193165747234822  1.0000
  O   O3        1.0  0.10084523351566327  0.5087219062763709  0.8068238044693956  1.0000
  O   O4        1.0  0.3991358873996447  0.4912831698167396  0.3068276819063698  1.0000
  O   O5        1.0  0.6912227202427702  0.6381118083516598  0.8767967136078738  1.0000
  O   O6        1.0  0.8087808280138236  0.361884722443655  0.3768086897859746  1.0000
  O   O7        1.0  0.308784187289163  0.13812770666262958  0.6232200765365618  1.0000
  O   O8        1.0  0.1912059555843584  0.8618715372519361  0.12319650848179009  1.0000
  O   O9        1.0  0.6036769474301664  0.9094033863792108  0.7993145292599307  1.0000
  O   O10       1.0  0.8963146665605349  0.090604731989707  0.29932001195460595  1.0000
  O   O11       1.0  0.3963041338323805  0.40941521842972856  0.7006919949755357  1.0000
  O   O12       1.0  0.10368345773044038  0.5905933993936117  0.20068361312335978  1.0000
  O   O13       1.0  0.8807136514927975  0.22609147433237098  0.8095208668147578  1.0000
  O   O14       1.0  0.6192924585612474  0.7739061199201912  0.3095308602354407  1.0000
  O   O15       1.0  0.1192826381381238  0.7261110785127441  0.6904499520677304  1.0000
  O   O16       1.0  0.38071416011607073  0.273897030072952  0.1904632687121932  1.0000
  O   O17       1.0  0.4763808075220481  0.6201293398306761  0.040892300696093294  1.0000
  O   O18       1.0  0.023651385399602997  0.3798613930648003  0.5408813310859628  1.0000
  O   O19       1.0  0.5236282457502456  0.12015855986471992  0.4591042391273561  1.0000
  O   O20       1.0  0.976367489259907  0.8798442748488924  0.9590967632651298  1.0000
  O   O21       1.0  0.7741997833477967  0.6586899808349003  0.5546862325149462  1.0000
  O   O22       1.0  0.725794203983959  0.34130044130463233  0.0546859884804434  1.0000
  O   O23       1.0  0.22580161448286157  0.1587013168414657  0.9453121511918282  1.0000
  O   O24       1.0  0.27421520775642694  0.8413018288331388  0.4453107104438203  1.0000
