data_image0
_chemical_formula_structural       Zn4P4H20C8N16O12
_chemical_formula_sum              "Zn4 P4 H20 C8 N16 O12"
_cell_length_a       7.2377976810002975
_cell_length_b       9.578389603928876
_cell_length_c       10.238582312215344
_cell_angle_alpha    110.27184155506993
_cell_angle_beta     90.00002209966173
_cell_angle_gamma    90.0000157062386

_space_group_name_H-M_alt    "P 1"
_space_group_IT_number       1

loop_
  _space_group_symop_operation_xyz
  'x, y, z'

loop_
  _atom_site_type_symbol
  _atom_site_label
  _atom_site_symmetry_multiplicity
  _atom_site_fract_x
  _atom_site_fract_y
  _atom_site_fract_z
  _atom_site_occupancy
  Zn  Zn1       1.0  0.38225869955089553  0.34103634021797546  0.33799813300991827  1.0000
  Zn  Zn2       1.0  0.8822574860187089  0.6589632695483159  0.16200341525876635  1.0000
  Zn  Zn3       1.0  0.6177434624334665  0.658965035921099  0.6620036323239088  1.0000
  Zn  Zn4       1.0  0.1177446759647722  0.3410358855134275  0.8379966450186057  1.0000
  P   P1        1.0  0.7782908057740129  0.49238018802080313  0.3690654960146843  1.0000
  P   P2        1.0  0.2782905816250221  0.5076193806454582  0.13093698802511963  1.0000
  P   P3        1.0  0.2217099745737201  0.5076189670406918  0.630934564262432  1.0000
  P   P4        1.0  0.7217101987229882  0.49237976960625934  0.8690640473815773  1.0000
  H   H1        1.0  0.17533273938807534  0.7232950217632277  0.9634022093344822  1.0000
  H   H2        1.0  0.6753340813583079  0.276705919773093  0.5365980898093736  1.0000
  H   H3        1.0  0.8246666593248193  0.27670747212871305  0.03659894583267229  1.0000
  H   H4        1.0  0.32466531735398263  0.7232943482317252  0.4634023354309135  1.0000
  H   H5        1.0  0.254287676232444  0.795693183108284  0.847237061117198  1.0000
  H   H6        1.0  0.7542890572206815  0.20430556010046524  0.6527625379894102  1.0000
  H   H7        1.0  0.7457117224795483  0.20430597195297645  0.15276299915964833  1.0000
  H   H8        1.0  0.24571034149073512  0.7956924868270149  0.3472361821944218  1.0000
  H   H9        1.0  0.10731721910966029  0.11725387952095896  0.08235752140332406  1.0000
  H   H10       1.0  0.6073176109133414  0.8827456342761689  0.4176439227823037  1.0000
  H   H11       1.0  0.8926835612386482  0.8827463836743162  0.9176438789668138  1.0000
  H   H12       1.0  0.3926817877986152  0.11725240303174189  0.5823567476606966  1.0000
  H   H13       1.0  0.5197024512984639  0.8001045824904265  0.07650807198002942  1.0000
  H   H14       1.0  0.019700898665433897  0.19989492477299817  0.4234884633893684  1.0000
  H   H15       1.0  0.4803010923208575  0.19989792583159263  0.9234901577991576  1.0000
  H   H16       1.0  0.9802929735030543  0.8001053576602144  0.5765090364611112  1.0000
  H   H17       1.0  0.9576326477403895  0.4433345021408497  0.3847280530789801  1.0000
  H   H18       1.0  0.4576310508279207  0.5566673742514398  0.11527132826172698  1.0000
  H   H19       1.0  0.0423695142422744  0.5566646673502473  0.6152690818096358  1.0000
  H   H20       1.0  0.5423697295198764  0.4433340163167541  0.8847275116830812  1.0000
  C   C1        1.0  0.2318661532275499  0.06767734768788358  0.10755641230723259  1.0000
  C   C2        1.0  0.7318665487538853  0.9323255580338099  0.39244422365946  1.0000
  C   C3        1.0  0.7681332454844991  0.9323240428800684  0.8924424276373127  1.0000
  C   C4        1.0  0.268131468322963  0.06767582291432457  0.6075565665439979  1.0000
  C   C5        1.0  0.44258095300601497  0.9040847557735459  0.10764842435546028  1.0000
  C   C6        1.0  0.9425796659226434  0.09591265878091088  0.3923504665630943  1.0000
  C   C7        1.0  0.5574212089777999  0.09591662998510486  0.8923513907191987  1.0000
  C   C8        1.0  0.057415587881799  0.9040853833360597  0.6076492287495295  1.0000
  N   N1        1.0  0.3571916071314618  0.13300050393807786  0.20355308226115904  1.0000
  N   N2        1.0  0.8571905437504413  0.8670002196416033  0.2964468712222865  1.0000
  N   N3        1.0  0.6428105548526516  0.8670019947641305  0.7964470977769407  1.0000
  N   N4        1.0  0.1428088549612738  0.1329989402294416  0.703552213924979  1.0000
  N   N5        1.0  0.4908455044576172  0.029840669373250285  0.20475582391484431  1.0000
  N   N6        1.0  0.9908444775170082  0.970158992725096  0.2952428400723405  1.0000
  N   N7        1.0  0.5091566575259562  0.9701618389485271  0.7952424058640727  1.0000
  N   N8        1.0  0.009152157923821803  0.029842393032588198  0.7047569750012739  1.0000
  N   N9        1.0  0.2824203415562678  0.9238325069320079  0.04457486896077957  1.0000
  N   N10       1.0  0.7824190826965775  0.07616708722443376  0.4554227409941942  1.0000
  N   N11       1.0  0.7175832020630182  0.07616888363666868  0.9554239709845543  1.0000
  N   N12       1.0  0.2175789343791195  0.923832077456154  0.5445753690232207  1.0000
  N   N13       1.0  0.1822920488717514  0.8185544599767308  0.9387423737580743  1.0000
  N   N14       1.0  0.6822919887460371  0.18144537104495836  0.5612575630566282  1.0000
  N   N15       1.0  0.8177087314760099  0.18144581283811329  0.061257076352880774  1.0000
  N   N16       1.0  0.317706028330207  0.8185537840160605  0.43874249721996234  1.0000
  O   O1        1.0  0.6498829401360524  0.3659288842534492  0.37523374340702265  1.0000
  O   O2        1.0  0.14987999475585673  0.6340717429150471  0.12477100724407811  1.0000
  O   O3        1.0  0.35011922184742156  0.6340702708082941  0.6247663168703496  1.0000
  O   O4        1.0  0.8501180223215313  0.36592962841352517  0.8752317332185552  1.0000
  O   O5        1.0  0.7475094032569131  0.6415738614503252  0.4884506256949094  1.0000
  O   O6        1.0  0.24750905856190286  0.3584256964715421  0.01155184669209316  1.0000
  O   O7        1.0  0.2524927587268095  0.35842417104828417  0.5115510198782045  1.0000
  O   O8        1.0  0.7524917217860718  0.6415723360268258  0.9884497988807508  1.0000
  O   O9        1.0  0.7701501706169509  0.5088513819042076  0.22515472732163733  1.0000
  O   O10       1.0  0.2701500211474084  0.4911448498996476  0.274845683616526  1.0000
  O   O11       1.0  0.2298492280959152  0.4911499942343907  0.7748470380116712  1.0000
  O   O12       1.0  0.7298521408366199  0.5088542955425196  0.7251563269200217  1.0000
