data_image0
_chemical_formula_structural       CoH28C26N10
_chemical_formula_sum              "Co1 H28 C26 N10"
_cell_length_a       6.819622069038915
_cell_length_b       10.34729071338338
_cell_length_c       10.382153828775877
_cell_angle_alpha    75.49499730957984
_cell_angle_beta     72.04203993598881
_cell_angle_gamma    72.7349257897892

_space_group_name_H-M_alt    "P 1"
_space_group_IT_number       1

loop_
  _space_group_symop_operation_xyz
  'x, y, z'

loop_
  _atom_site_type_symbol
  _atom_site_label
  _atom_site_symmetry_multiplicity
  _atom_site_fract_x
  _atom_site_fract_y
  _atom_site_fract_z
  _atom_site_occupancy
  Co  Co1       1.0  1.2517487846066375e-06  1.5049490044979026e-06  0.9999982060293746  1.0000
  H   H1        1.0  0.9358664759040993  0.0629850664750435  0.7248424241255832  1.0000
  H   H2        1.0  0.07429059411818177  0.274404763247638  0.9250094940785517  1.0000
  H   H3        1.0  0.06413929778850055  0.9370123356133959  0.2751494192590441  1.0000
  H   H4        1.0  0.9257069342535548  0.7255937520978719  0.0749884587754152  1.0000
  H   H5        1.0  0.12092811416128772  0.1621242480747682  0.48846601640712356  1.0000
  H   H6        1.0  0.8890460389051569  0.5098387391021008  0.8286286232125448  1.0000
  H   H7        1.0  0.8790840529985715  0.8378762725786758  0.5115305548504523  1.0000
  H   H8        1.0  0.11095260205660655  0.4901608171120558  0.17137077879899457  1.0000
  H   H9        1.0  0.6469437406473516  0.127149166304136  0.6526511686027945  1.0000
  H   H10       1.0  0.3490109803586422  0.3451342916607487  0.8912170885410617  1.0000
  H   H11       1.0  0.3530617984771425  0.8728565648119118  0.3473501599229606  1.0000
  H   H12       1.0  0.6509876606031214  0.6548652645534078  0.10878231347047765  1.0000
  H   H13       1.0  0.44469474060247904  0.0306652569394146  0.8778835064060359  1.0000
  H   H14       1.0  0.551317605638424  0.12103231586342388  0.984252135867024  1.0000
  H   H15       1.0  0.5552999922705979  0.9693405234748201  0.12211987493451185  1.0000
  H   H16       1.0  0.4486778742876397  0.8789631501878077  0.015748911604930433  1.0000
  H   H17       1.0  0.5217942010484506  0.15798249377812107  0.3355019151705251  1.0000
  H   H18       1.0  0.4846537233895775  0.6616816611657086  0.8450091225892893  1.0000
  H   H19       1.0  0.47820528035929055  0.842019100994513  0.6644958438216902  1.0000
  H   H20       1.0  0.515342501572782  0.3383158735768389  0.15499318261957742  1.0000
  H   H21       1.0  0.6816832590607548  0.20988816391273699  0.4089660761539591  1.0000
  H   H22       1.0  0.32055245413597805  0.5862437611789204  0.7989769962472906  1.0000
  H   H23       1.0  0.3183219562587707  0.7901103262640634  0.5910313773224728  1.0000
  H   H24       1.0  0.679444674878809  0.4137557920335553  0.20102173210476346  1.0000
  H   H25       1.0  0.23887277251320432  0.37523323154080396  0.37525631817159416  1.0000
  H   H26       1.0  0.7611333645769917  0.6247663597703197  0.6247483859748754  1.0000
  H   H27       1.0  0.41448827388447274  0.4345125187165664  0.4292227681015177  1.0000
  H   H28       1.0  0.5855172771855521  0.565484953681832  0.5707758437143227  1.0000
  C   C1        1.0  0.0941454755393067  0.0791139442703042  0.7031346786099633  1.0000
  C   C2        1.0  0.9132576279440416  0.29564060557744654  0.9149052574310302  1.0000
  C   C3        1.0  0.90585591717236  0.9208866156370519  0.2968629785436577  1.0000
  C   C4        1.0  0.08674494096410974  0.7043609751099922  0.08509191504266765  1.0000
  C   C5        1.0  0.19795165608296375  0.13474016019174684  0.5729000183456918  1.0000
  C   C6        1.0  0.8094815369773019  0.425295913395793  0.8606229649946611  1.0000
  C   C7        1.0  0.8020540639320333  0.86526138632194  0.4270946337720075  1.0000
  C   C8        1.0  0.19051612639673723  0.5746975201003153  0.13938107281559547  1.0000
  C   C9        1.0  0.40114185606716285  0.15569359714356074  0.5498904960587083  1.0000
  C   C10       1.0  0.6025189302289604  0.4475386632647444  0.8475700217944249  1.0000
  C   C11       1.0  0.5988662877366411  0.844304929169439  0.4501112054929307  1.0000
  C   C12       1.0  0.39748481487566073  0.5524639382027772  0.15242666599935717  1.0000
  C   C13       1.0  0.48927428664495665  0.11500011415149908  0.6627642378992675  1.0000
  C   C14       1.0  0.5107279889501797  0.3349141111461336  0.8951853164163737  1.0000
  C   C15       1.0  0.5107164765496678  0.8849995274970438  0.337241465002279  1.0000
  C   C16       1.0  0.4892747050314129  0.6650782633552126  0.1048170661180237  1.0000
  C   C17       1.0  0.37638997811506414  0.05960520276394731  0.790386040279536  1.0000
  C   C18       1.0  0.6238089619143422  0.20793081844071537  0.9488365006919537  1.0000
  C   C19       1.0  0.6236081920939043  0.9404004530780129  0.20960611843631236  1.0000
  C   C20       1.0  0.37618941683222556  0.792073859799963  0.05116068403827973  1.0000
  C   C21       1.0  0.5163426417034459  0.21769227625056697  0.4112371479162106  1.0000
  C   C22       1.0  0.486804841051452  0.5853483747520513  0.7870579038355103  1.0000
  C   C23       1.0  0.4836566071528735  0.7823052644953492  0.5887665046116268  1.0000
  C   C24       1.0  0.5131918568031608  0.4146522263716576  0.21294256693336422  1.0000
  C   C25       1.0  0.4074913113726312  0.3674353489190878  0.36413263750599606  1.0000
  C   C26       1.0  0.5925033479651488  0.6325663272470194  0.6358718027764566  1.0000
  N   N1        1.0  0.8038869455048856  0.9137289095196692  0.9152032006385439  1.0000
  N   N2        1.0  0.19611396236900447  0.08627684272416762  0.0847990076649836  1.0000
  N   N3        1.0  0.8709874278368164  0.8335306757340889  0.8370622020610979  1.0000
  N   N4        1.0  0.12901127673139712  0.16646886039150394  0.16293526611295306  1.0000
  N   N5        1.0  0.9349287014184643  0.754883882879568  0.7600153991805172  1.0000
  N   N6        1.0  0.06506059156125599  0.24511987005969615  0.2399895380383796  1.0000
  N   N7        1.0  0.17924103734118546  0.042734745931028294  0.8128796809056666  1.0000
  N   N8        1.0  0.8246619967430747  0.18594053709328762  0.9573878260899419  1.0000
  N   N9        1.0  0.8207570035154251  0.9572617840790798  0.1871254232208343  1.0000
  N   N10       1.0  0.1753320030392374  0.8140549159119814  0.042611580803779206  1.0000
