data_image0
_chemical_formula_structural       Cu6H42C40N16
_chemical_formula_sum              "Cu6 H42 C40 N16"
_cell_length_a       11.357073115462677
_cell_length_b       11.366193082933467
_cell_length_c       12.9352
_cell_angle_alpha    88.85401738791369
_cell_angle_beta     64.61393701081205
_cell_angle_gamma    69.05691607268601

_space_group_name_H-M_alt    "P 1"
_space_group_IT_number       1

loop_
  _space_group_symop_operation_xyz
  'x, y, z'

loop_
  _atom_site_type_symbol
  _atom_site_label
  _atom_site_symmetry_multiplicity
  _atom_site_fract_x
  _atom_site_fract_y
  _atom_site_fract_z
  _atom_site_occupancy
  Cu  Cu1       1.0  0.13479298396163852  0.9503892056053899  0.9988979726759053  1.0000
  Cu  Cu2       1.0  0.865227192821223  0.049606445554609  0.001105022932953992  1.0000
  Cu  Cu3       1.0  0.8229851279163897  0.1235515125752258  0.4086947970282322  1.0000
  Cu  Cu4       1.0  0.1770071689945141  0.8764546326595736  0.5913069121856933  1.0000
  Cu  Cu5       1.0  0.3536689633869088  0.182820138994046  0.7065977915875263  1.0000
  Cu  Cu6       1.0  0.6463222004767104  0.8171840982271519  0.293405923817744  1.0000
  H   H1        1.0  0.1200539606191313  0.0929975368112039  0.2858411653683389  1.0000
  H   H2        1.0  0.8799394933817553  0.9069990683555957  0.7141641413819001  1.0000
  H   H3        1.0  0.37553072962278833  0.8328927741858863  0.7794053475576844  1.0000
  H   H4        1.0  0.6244741701296023  0.1671066930013154  0.22059328133563122  1.0000
  H   H5        1.0  0.0836029508357683  0.1700574360318257  0.7009503872262215  1.0000
  H   H6        1.0  0.9163956931138629  0.8299429851621767  0.2990505796546543  1.0000
  H   H7        1.0  0.2542624932760519  0.1323798914967682  0.5906058865068784  1.0000
  H   H8        1.0  0.7457352672914798  0.8676157596632308  0.4093954967169039  1.0000
  H   H9        1.0  0.7771907406133638  0.3161836115009891  0.6919243690221604  1.0000
  H   H10       1.0  0.22280400486403104  0.6838168096930133  0.30807651911808154  1.0000
  H   H11       1.0  0.8581705597249539  0.1718080385087077  0.7339293547804571  1.0000
  H   H12       1.0  0.14181987918579614  0.8281933366920953  0.2660754568862558  1.0000
  H   H13       1.0  0.7586313740300383  0.1757051562842094  0.6567272718332049  1.0000
  H   H14       1.0  0.24136742834881633  0.8242971729233943  0.34327128262901846  1.0000
  H   H15       1.0  0.2775701583878601  0.4090437713330886  0.8470831200128398  1.0000
  H   H16       1.0  0.7224246542828041  0.5909633279085114  0.15291917164432076  1.0000
  H   H17       1.0  0.4123572298645328  0.3954730246117819  0.7086030924945774  1.0000
  H   H18       1.0  0.5876414140850985  0.6045273965822204  0.2914009667234863  1.0000
  H   H19       1.0  0.11908087085075185  0.6624966657402709  0.7204929872487539  1.0000
  H   H20       1.0  0.8809195639057706  0.3375018474401301  0.2794972889880397  1.0000
  H   H21       1.0  0.978036688996994  0.42648301562591223  0.5815107099199535  1.0000
  H   H22       1.0  0.02196993436901102  0.5735078655000976  0.41848046331814703  1.0000
  H   H23       1.0  0.1100969471649478  0.5800351800215182  0.04877995637597369  1.0000
  H   H24       1.0  0.8899010390250767  0.41996905719968686  0.951222737198961  1.0000
  H   H25       1.0  0.002674654762067486  0.6494000603982641  0.9791185535451417  1.0000
  H   H26       1.0  0.9973273883294244  0.3506060848365351  0.020882579436069082  1.0000
  H   H27       1.0  0.01911642352738601  0.7493866510217941  0.0711184194407437  1.0000
  H   H28       1.0  0.98088269570993  0.2506194942130051  0.9288830410271415  1.0000
  H   H29       1.0  0.3951711756619076  0.0256303466723793  0.2860554279989741  1.0000
  H   H30       1.0  0.6048235026222173  0.9743633964740326  0.7139525605516183  1.0000
  H   H31       1.0  0.3786720272743409  0.1324447639591284  0.39283942009600287  1.0000
  H   H32       1.0  0.6213212682973082  0.8675499331940769  0.6071667529043053  1.0000
  H   H33       1.0  0.3386028513331212  0.1917820788675044  0.2782966389436226  1.0000
  H   H34       1.0  0.6613994654662393  0.808209756265299  0.7217077348325132  1.0000
  H   H35       1.0  0.5509367136631198  0.6762725239234442  0.5877670204908441  1.0000
  H   H36       1.0  0.4490645372822258  0.3237240812433555  0.4122299398133931  1.0000
  H   H37       1.0  0.49585164474691373  0.5590470304349608  0.559708273049793  1.0000
  H   H38       1.0  0.5041479738207713  0.4409533907590415  0.4402884615526048  1.0000
  H   H39       1.0  0.6083809301884743  0.5223244467060937  0.6274233576073698  1.0000
  H   H40       1.0  0.39161519800139644  0.477675020481108  0.3725754806616734  1.0000
  H   H41       1.0  0.9679929268944749  0.6433964956097142  0.6310424828712582  1.0000
  H   H42       1.0  0.03201913608546652  0.3565953395230963  0.36894044139613397  1.0000
  C   C1        1.0  0.9623373938826209  0.17862346308353946  0.5525604844536857  1.0000
  C   C2        1.0  0.03765914240165811  0.8213750500968615  0.4474420823912267  1.0000
  C   C3        1.0  0.012144588569704205  0.01688305832878  0.15032706804757368  1.0000
  C   C4        1.0  0.9878755882131643  0.983112592831226  0.8496743813926954  1.0000
  C   C5        1.0  0.20017697445565122  0.6734782380080375  0.9066416831475194  1.0000
  C   C6        1.0  0.7998228025412644  0.3265240911995662  0.09335959679490469  1.0000
  C   C7        1.0  0.29925237405181804  0.088540417044463  0.8216036373749345  1.0000
  C   C8        1.0  0.7007370661981867  0.9114724062379337  0.17840444134836997  1.0000
  C   C9        1.0  0.09712250268220404  0.1742846401599181  0.5313908144713649  1.0000
  C   C10       1.0  0.9028726508896057  0.8257148270272836  0.4686122560761489  1.0000
  C   C11       1.0  0.39158522671783663  0.6435424586500176  0.7378199771489021  1.0000
  C   C12       1.0  0.6084147999442636  0.35645700853718404  0.2621766206078816  1.0000
  C   C13       1.0  0.18116676660877576  0.1386553482231534  0.4115427900858037  1.0000
  C   C14       1.0  0.8188278204393883  0.8613431649572547  0.5884589643045003  1.0000
  C   C15       1.0  0.14338577937763125  0.1975147057250339  0.6182550006797667  1.0000
  C   C16       1.0  0.8566152219025298  0.8024847614621677  0.3817435494729224  1.0000
  C   C17       1.0  0.29994555137988516  0.5854148243632693  0.803775885878373  1.0000
  C   C18       1.0  0.7000543840462612  0.41458941285792866  0.19622298164539836  1.0000
  C   C19       1.0  0.13119012859191773  0.33171388818824  0.6429970697415894  1.0000
  C   C20       1.0  0.8688123466366735  0.6682798549581648  0.3569987069415176  1.0000
  C   C21       1.0  0.8321902173106254  0.2120804815381021  0.6648668144149922  1.0000
  C   C22       1.0  0.1678025789306545  0.7879199396559002  0.3351355805235272  1.0000
  C   C23       1.0  0.20739988404660178  0.45968913029223296  0.7186632187592962  1.0000
  C   C24       1.0  0.7925986686670686  0.5403160609357656  0.28133383321418387  1.0000
  C   C25       1.0  0.304179849987527  0.458496621792996  0.7709758288997718  1.0000
  C   C26       1.0  0.6958228508635643  0.5415057074146077  0.22902821589316594  1.0000
  C   C27       1.0  0.12010877512378222  0.5699885344171491  0.6982733321110428  1.0000
  C   C28       1.0  0.8798897775898881  0.43001665681084933  0.30171908135665143  1.0000
  C   C29       1.0  0.04169523219663774  0.4385779138285598  0.6207008401322298  1.0000
  C   C30       1.0  0.958311708027829  0.5614167833246455  0.3792916929429422  1.0000
  C   C31       1.0  0.07694972699348311  0.6622400379112392  0.006813481272615709  1.0000
  C   C32       1.0  0.9230496419090102  0.3377632453031651  0.9931863893468247  1.0000
  C   C33       1.0  0.33072468177727643  0.1212466321479084  0.3379039653270154  1.0000
  C   C34       1.0  0.6692714464125942  0.8787528350393002  0.6621002845321086  1.0000
  C   C35       1.0  0.5184525881959773  0.5982042395158729  0.6226973104136633  1.0000
  C   C36       1.0  0.4815474384661229  0.40179522767132875  0.3773000604274229  1.0000
  C   C37       1.0  0.036474430760627306  0.558779908531136  0.6484719819586929  1.0000
  C   C38       1.0  0.9635314436098242  0.4412195586560657  0.35151777615036645  1.0000
  C   C39       1.0  0.6410283524497302  0.1518454462314978  0.5105368228365207  1.0000
  C   C40       1.0  0.35896736764572523  0.8481549749625045  0.4894551945194648  1.0000
  N   N1        1.0  0.2293842593271691  0.7786231433958618  0.9035894985448607  1.0000
  N   N2        1.0  0.7706212069488672  0.2213772777981404  0.0964119926742768  1.0000
  N   N3        1.0  0.21228094418339086  0.3433184268960048  0.6907964655217993  1.0000
  N   N4        1.0  0.7877210317148313  0.6566810402911969  0.30920094468959997  1.0000
  N   N5        1.0  0.09695986130925859  0.12279307716971738  0.36851177573367266  1.0000
  N   N6        1.0  0.9030308272666759  0.8772054360106906  0.631492992253186  1.0000
  N   N7        1.0  0.9639778523683731  0.1466346610932376  0.4521851091074183  1.0000
  N   N8        1.0  0.03601868391591274  0.8533638520871634  0.5478197769903871  1.0000
  N   N9        1.0  0.2560772679119836  0.0271348153950086  0.891755344620897  1.0000
  N   N10       1.0  0.7439304644586214  0.9728694218261894  0.10824831888992048  1.0000
  N   N11       1.0  0.3453984096873057  0.7579708042026922  0.8016071095308277  1.0000
  N   N12       1.0  0.6546062403999003  0.24203152500490427  0.19839001687374494  1.0000
  N   N13       1.0  0.9405017762387262  0.0625818920330943  0.24900316614495213  1.0000
  N   N14       1.0  0.05950620579707083  0.9374194831677016  0.7510019998546084  1.0000
  N   N15       1.0  0.5272851732027704  0.1634728811024502  0.5810418717210408  1.0000
  N   N16       1.0  0.47270730618004825  0.8365237240643566  0.4189514325374403  1.0000
