data_image0
_chemical_formula_structural       Ag2H24C34N14O4
_chemical_formula_sum              "Ag2 H24 C34 N14 O4"
_cell_length_a       9.004572981425225
_cell_length_b       9.34016322135406
_cell_length_c       12.859677840036225
_cell_angle_alpha    81.7432005715394
_cell_angle_beta     90.41135685832978
_cell_angle_gamma    67.87213267592651

_space_group_name_H-M_alt    "P 1"
_space_group_IT_number       1

loop_
  _space_group_symop_operation_xyz
  'x, y, z'

loop_
  _atom_site_type_symbol
  _atom_site_label
  _atom_site_symmetry_multiplicity
  _atom_site_fract_x
  _atom_site_fract_y
  _atom_site_fract_z
  _atom_site_occupancy
  Ag  Ag1       1.0  0.6054808376993678  0.8944101624984101  0.5934317349253462  1.0000
  Ag  Ag2       1.0  0.3945100020963538  0.10559031844789499  0.4065591149987924  1.0000
  H   H1        1.0  0.1322206209078445  0.45941903661774575  0.42562791397610766  1.0000
  H   H2        1.0  0.8677766990160763  0.5405724352899594  0.5743732946075043  1.0000
  H   H3        1.0  0.27590246768864557  0.2768648701051931  0.15211811810475243  1.0000
  H   H4        1.0  0.724097836333037  0.7231418202385954  0.8478816904225183  1.0000
  H   H5        1.0  0.10057290453801931  0.5303783593951792  0.039330587167050596  1.0000
  H   H6        1.0  0.8994363625745335  0.4696342426458102  0.9606704468113563  1.0000
  H   H7        1.0  0.9377262548999566  0.7541256557446516  0.12452844087474091  1.0000
  H   H8        1.0  0.06227394777394578  0.24588019478872522  0.8754800556678433  1.0000
  H   H9        1.0  0.9899032976594315  0.14509032051563514  0.39923411009888804  1.0000
  H   H10       1.0  0.01010362546399089  0.8548934528777321  0.6007810674705283  1.0000
  H   H11       1.0  0.8896713772356364  0.4337175821813943  0.40068730983457357  1.0000
  H   H12       1.0  0.11034038773142633  0.5662671984293299  0.5993236702076032  1.0000
  H   H13       1.0  0.5915504327148966  0.587166017608638  0.3939713443725381  1.0000
  H   H14       1.0  0.4084647362652731  0.41282990555549043  0.6060239752164875  1.0000
  H   H15       1.0  0.4097750011144827  0.44040245904476183  0.40152638388773454  1.0000
  H   H16       1.0  0.5902326278973009  0.5596025057312985  0.5984593877077913  1.0000
  H   H17       1.0  0.20226653792964552  0.881698651159553  0.27517931782248445  1.0000
  H   H18       1.0  0.7977323504260667  0.11829242813115572  0.7248117629619627  1.0000
  H   H19       1.0  0.2687747308657862  0.028585970859751293  0.11738257862511858  1.0000
  H   H20       1.0  0.7312177148037263  0.9714170232681881  0.8826125480939949  1.0000
  H   H21       1.0  0.7904046653217877  0.251298516313561  0.008535976433464003  1.0000
  H   H22       1.0  0.2095841203682695  0.7487130582163533  0.9914682313527194  1.0000
  H   H23       1.0  0.7022338731052998  0.1060907788330141  0.1609894956591091  1.0000
  H   H24       1.0  0.29775830932514685  0.893914942473387  0.8390153957629423  1.0000
  C   C1        1.0  0.1235267919702423  0.47980292068155705  0.33956363300141856  1.0000
  C   C2        1.0  0.8764714311175796  0.5201898673570327  0.6604412606100851  1.0000
  C   C3        1.0  0.20189090298679704  0.37805423262224747  0.18699792642565433  1.0000
  C   C4        1.0  0.7981097184817046  0.6219467617581103  0.8130065443658268  1.0000
  C   C5        1.0  0.1059511171908697  0.5189520173220428  0.12492038993482883  1.0000
  C   C6        1.0  0.89405397744018  0.4810548701987185  0.8750846823957089  1.0000
  C   C7        1.0  0.014619374782199731  0.645106327029623  0.1732985711543904  1.0000
  C   C8        1.0  0.9853846266609099  0.35489468871082863  0.8267065608999502  1.0000
  C   C9        1.0  0.024294963501660015  0.6261099559745347  0.2835736535576244  1.0000
  C   C10       1.0  0.9757072921571465  0.37388402070487814  0.7164317197686216  1.0000
  C   C11       1.0  0.9306514002545468  0.7482905707620445  0.3430264026394881  1.0000
  C   C12       1.0  0.0693495282307595  0.2517091642241809  0.6569758924037288  1.0000
  C   C13       1.0  0.8043447267701823  0.9755206215549775  0.39405881121047776  1.0000
  C   C14       1.0  0.1956494417658945  0.0244790707110454  0.605942161307027  1.0000
  C   C15       1.0  0.7495816749918589  0.1436181651774646  0.39908646944229526  1.0000
  C   C16       1.0  0.2504125384427168  0.8563837751432432  0.6009118573841619  1.0000
  C   C17       1.0  0.8616607680242366  0.21440696642776658  0.3991320623943936  1.0000
  C   C18       1.0  0.13834190009340128  0.7855835921129282  0.6008761008202227  1.0000
  C   C19       1.0  0.8059128109902077  0.3751919312210248  0.3993486393470533  1.0000
  C   C20       1.0  0.1940913074456817  0.6248032694758691  0.6006580617106962  1.0000
  C   C21       1.0  0.641240587706534  0.4601542535767037  0.39782858974528784  1.0000
  C   C22       1.0  0.3587649372698678  0.5398441214920666  0.6021690602009286  1.0000
  C   C23       1.0  0.5391677681903532  0.3787280830863153  0.4006472503116568  1.0000
  C   C24       1.0  0.4608358887939587  0.6212712862496305  0.5993456528968082  1.0000
  C   C25       1.0  0.9460879536827631  0.9857107044898686  0.22840492353866898  1.0000
  C   C26       1.0  0.0539162212023996  0.014283087962752497  0.7715957351948148  1.0000
  C   C27       1.0  0.1073370078216129  0.960648536348856  0.217191598989082  1.0000
  C   C28       1.0  0.892668818956601  0.039350797610445895  0.7828004562026223  1.0000
  C   C29       1.0  0.1438603518251043  0.04458161185298339  0.1290443961907499  1.0000
  C   C30       1.0  0.8561371966855805  0.955418101773141  0.8709572375896072  1.0000
  C   C31       1.0  0.878487066131328  0.16848724363267562  0.06938093424854229  1.0000
  C   C32       1.0  0.12151153066879067  0.8315160937190668  0.9306232854990668  1.0000
  C   C33       1.0  0.8278946346613766  0.09030827093212682  0.1536275023646425  1.0000
  C   C34       1.0  0.17210613714764386  0.9096928127583155  0.8463792883724396  1.0000
  N   N1        1.0  0.2094454886597887  0.3579903615176079  0.29277506321108854  1.0000
  N   N2        1.0  0.7905529296670721  0.6420047638857512  0.7072295046549683  1.0000
  N   N3        1.0  0.8598541424235723  0.723659353591259  0.4301408208173001  1.0000
  N   N4        1.0  0.14014326096159382  0.27633805244012416  0.569861912023697  1.0000
  N   N5        1.0  0.781448334071847  0.8657767716720314  0.46195229173289226  1.0000
  N   N6        1.0  0.2185474017752682  0.13422174770663986  0.5380487876311548  1.0000
  N   N7        1.0  0.899530460962069  0.906022981934491  0.3178684850323066  1.0000
  N   N8        1.0  0.10046739978043458  0.09397325401285171  0.6821343920060201  1.0000
  N   N9        1.0  0.5903158731066398  0.22379853312337866  0.4017150905792946  1.0000
  N   N10       1.0  0.40967682425116453  0.7762053901250638  0.5982736680700994  1.0000
  N   N11       1.0  0.032629877983048124  0.14764755456422307  0.0564591937934082  1.0000
  N   N12       1.0  0.967366900938494  0.8523568068247229  0.9435410525316429  1.0000
  N   N13       1.0  0.47681954948256344  0.1301457235159944  0.7385789392609752  1.0000
  N   N14       1.0  0.5231774759122702  0.8698617852781111  0.2614115199881227  1.0000
  O   O1        1.0  0.4793943367750019  0.9929519581007326  0.7642461807935703  1.0000
  O   O2        1.0  0.5205840168874404  0.007059496255109799  0.23572411838195248  1.0000
  O   O3        1.0  0.5424618046530654  0.1515130619069396  0.6533241108590957  1.0000
  O   O4        1.0  0.45754936510386585  0.8484875769700009  0.3466714799573722  1.0000
