data_image0
_chemical_formula_structural       Cu2H24C40N4Cl4O16
_chemical_formula_sum              "Cu2 H24 C40 N4 Cl4 O16"
_cell_length_a       9.33460462744654
_cell_length_b       9.334535953496692
_cell_length_c       12.514637417790963
_cell_angle_alpha    82.44060386344907
_cell_angle_beta     82.44069674126192
_cell_angle_gamma    87.62035108067603

_space_group_name_H-M_alt    "P 1"
_space_group_IT_number       1

loop_
  _space_group_symop_operation_xyz
  'x, y, z'

loop_
  _atom_site_type_symbol
  _atom_site_label
  _atom_site_symmetry_multiplicity
  _atom_site_fract_x
  _atom_site_fract_y
  _atom_site_fract_z
  _atom_site_occupancy
  Cu  Cu1       1.0  0.8045942225949574  0.1954095715914903  0.749999517279157  1.0000
  Cu  Cu2       1.0  0.19540223818766123  0.8045939437576097  0.25000121357185623  1.0000
  H   H1        1.0  0.8133158434790887  0.7392012465738205  0.22207758951424236  1.0000
  H   H2        1.0  0.2607952201264326  0.18667703139885114  0.27791971060472054  1.0000
  H   H3        1.0  0.18668511338607627  0.2607980137379117  0.7779215205128622  1.0000
  H   H4        1.0  0.7392045748627751  0.8133243765493248  0.7220793068071885  1.0000
  H   H5        1.0  0.7062081342684792  0.977411185566176  0.14375378876874828  1.0000
  H   H6        1.0  0.022587538049357595  0.29378431213901024  0.35624164908340106  1.0000
  H   H7        1.0  0.29379169560089485  0.022589135529543097  0.8562461265679671  1.0000
  H   H8        1.0  0.9774122509895449  0.7062170898584554  0.6437581685357614  1.0000
  H   H9        1.0  0.4377312645892246  0.9964895771370053  0.14163610776559207  1.0000
  H   H10       1.0  0.0035041762529389032  0.5622607521618052  0.3583629569132043  1.0000
  H   H11       1.0  0.5622707724909546  0.0035096973417765008  0.8583628994416228  1.0000
  H   H12       1.0  0.9964956187362689  0.43774065578637084  0.6416360604987047  1.0000
  H   H13       1.0  0.6603587983998762  0.22711056353942644  0.4010901660027599  1.0000
  H   H14       1.0  0.7728837974360162  0.3396357212531882  0.09891046977436697  1.0000
  H   H15       1.0  0.33964000316392173  0.7728875518322056  0.5989140486252182  1.0000
  H   H16       1.0  0.22711821071428764  0.6603646460287538  0.9010868393007881  1.0000
  H   H17       1.0  0.7337718395332689  0.33802544904396115  0.4870463527008154  1.0000
  H   H18       1.0  0.661966834711592  0.26622201805719214  0.01295532950387467  1.0000
  H   H19       1.0  0.2662246969599948  0.6619758985509423  0.5129553737925362  1.0000
  H   H20       1.0  0.33803512665793534  0.7337794241757863  0.9870426820609949  1.0000
  H   H21       1.0  0.5495704985626801  0.28180889049047414  0.5180670085354889  1.0000
  H   H22       1.0  0.7181817961341678  0.45042459660437834  0.9819347826354559  1.0000
  H   H23       1.0  0.45042588055898847  0.7181967866621193  0.4819335268804323  1.0000
  H   H24       1.0  0.28181583842501823  0.5495767830096981  0.018064440416239284  1.0000
  C   C1        1.0  0.9091178686109986  0.9943164670315314  0.9147008861462351  1.0000
  C   C2        1.0  0.005679977043143903  0.0908814638637878  0.5852990725577598  1.0000
  C   C3        1.0  0.09087910593854079  0.0056741012994763005  0.0852978164862748  1.0000
  C   C4        1.0  0.9943262635342978  0.9091199933824045  0.4147041291783465  1.0000
  C   C5        1.0  0.9477727318474862  0.8653329171226574  0.9747303698094284  1.0000
  C   C6        1.0  0.1346647275324386  0.05223144568980591  0.5252714629665718  1.0000
  C   C7        1.0  0.052224330313301  0.13465549535556684  0.025267728050913294  1.0000
  C   C8        1.0  0.8653456408316202  0.9477743620779934  0.47473493765607333  1.0000
  C   C9        1.0  0.9642279879113219  0.13720781312745342  0.9407174857043115  1.0000
  C   C10       1.0  0.862794185259382  0.0357728272870403  0.559283653862515  1.0000
  C   C11       1.0  0.03577011363400829  0.8627816944195673  0.05928041161859448  1.0000
  C   C12       1.0  0.13721615417480845  0.964234073283926  0.4407210486280775  1.0000
  C   C13       1.0  0.46160795088102446  0.6501593232992421  0.23602165073307188  1.0000
  C   C14       1.0  0.34984197131133504  0.5383887157781045  0.2639883538494132  1.0000
  C   C15       1.0  0.5383918143566646  0.34984205489538317  0.7639813677151253  1.0000
  C   C16       1.0  0.6501578058269571  0.4616126743179338  0.7360130641842701  1.0000
  C   C17       1.0  0.6088678193561847  0.6342974507514184  0.24917462483998778  1.0000
  C   C18       1.0  0.3657013899929709  0.3911268553596585  0.25083184559381516  1.0000
  C   C19       1.0  0.39113304989772507  0.3657039654130899  0.7508250899592852  1.0000
  C   C20       1.0  0.6342951762518112  0.6088745219887954  0.7491658798632557  1.0000
  C   C21       1.0  0.6990258709089261  0.7514120309738245  0.2122007678822158  1.0000
  C   C22       1.0  0.2485850082718599  0.3009672102094428  0.28780042070042094  1.0000
  C   C23       1.0  0.3009750332251571  0.24858829833822685  0.7877998448418637  1.0000
  C   C24       1.0  0.7514126381879294  0.6990341813060539  0.7121972019367604  1.0000
  C   C25       1.0  0.6403412976500249  0.8825708113250598  0.16925039974192657  1.0000
  C   C26       1.0  0.11742783289263767  0.35965119369078025  0.3307490445383579  1.0000
  C   C27       1.0  0.359660727529544  0.11742845125229454  0.8307502078798024  1.0000
  C   C28       1.0  0.8825709575922077  0.6403480323361492  0.6692510713357933  1.0000
  C   C29       1.0  0.49187504371047214  0.8943637176914478  0.16658806577785865  1.0000
  C   C30       1.0  0.1056323858949355  0.5081190946780225  0.3334138168872228  1.0000
  C   C31       1.0  0.5081259480348664  0.10563445576782732  0.8334119421740525  1.0000
  C   C32       1.0  0.8943664105402079  0.4918801372996172  0.6665854987796676  1.0000
  C   C33       1.0  0.675099491413512  0.5034112710055255  0.30779081812653425  1.0000
  C   C34       1.0  0.4965873361149704  0.3248967987612091  0.19221477607959506  1.0000
  C   C35       1.0  0.3249013489105296  0.49659123796214993  0.6922071985406859  1.0000
  C   C36       1.0  0.5034081558651095  0.6751045703709053  0.8077822519901119  1.0000
  C   C37       1.0  0.6367075013457679  0.3131168880097377  0.4531385273477682  1.0000
  C   C38       1.0  0.686874820743448  0.3632883225902789  0.04686300484937789  1.0000
  C   C39       1.0  0.3632912015278222  0.686884493869968  0.5468621932985442  1.0000
  C   C40       1.0  0.31312610124154366  0.6367120245739103  0.9531352072529273  1.0000
  N   N1        1.0  0.40626347091235  0.7807021645359526  0.198269125053578  1.0000
  N   N2        1.0  0.21929523608363874  0.593730498057802  0.30173745370174027  1.0000
  N   N3        1.0  0.5937363411061155  0.21929813870763581  0.8017331909049048  1.0000
  N   N4        1.0  0.7807035365502912  0.4062687101169971  0.6982650627941779  1.0000
  Cl  Cl1       1.0  0.8879512383172071  0.7026185573629178  0.9485111240283999  1.0000
  Cl  Cl2       1.0  0.2973794507048311  0.1120511915949933  0.5514908663010161  1.0000
  Cl  Cl3       1.0  0.11204140347168591  0.2973719423984846  0.05148959029818907  1.0000
  Cl  Cl4       1.0  0.7026320506053167  0.8879535613395363  0.44851392880477187  1.0000
  O   O1        1.0  0.8278308223916184  0.0019034372867139028  0.8392812744933308  1.0000
  O   O2        1.0  0.9980962958579339  0.1721713204968864  0.6607191537772366  1.0000
  O   O3        1.0  0.17216399172789923  0.9980871027102012  0.1607176337789582  1.0000
  O   O4        1.0  0.0019120405178370018  0.8278312221823044  0.3392869454305724  1.0000
  O   O5        1.0  0.9271315847202288  0.2509959271902246  0.8849194705889688  1.0000
  O   O6        1.0  0.7490063281046417  0.07286810917194941  0.6150801116815146  1.0000
  O   O7        1.0  0.0728641462924031  0.7489989505807132  0.1150789439932538  1.0000
  O   O8        1.0  0.25099963260977626  0.9271409203371589  0.3849216058245304  1.0000
  O   O9        1.0  0.8000216373713869  0.46152517182421354  0.2852541849171715  1.0000
  O   O10       1.0  0.5384750565950044  0.19997224755920945  0.2147523266193829  1.0000
  O   O11       1.0  0.19998038862983236  0.5384752133098587  0.7147407235362165  1.0000
  O   O12       1.0  0.46151091842401126  0.8000247121174837  0.7852404162487118  1.0000
  O   O13       1.0  0.5824854772757463  0.44178348533652917  0.3912604036756733  1.0000
  O   O14       1.0  0.5582119346896022  0.41751014110988655  0.10874234844325059  1.0000
  O   O15       1.0  0.4175187789158343  0.5582147544267215  0.6087360949875347  1.0000
  O   O16       1.0  0.44179113582480056  0.5824902224869675  0.8912572584337893  1.0000
