data_image0
_chemical_formula_structural       Sr3H33C33N3O18
_chemical_formula_sum              "Sr3 H33 C33 N3 O18"
_cell_length_a       9.836863634104546
_cell_length_b       10.578002542523734
_cell_length_c       10.57891530481549
_cell_angle_alpha    119.99892701083665
_cell_angle_beta     90.00122213222033
_cell_angle_gamma    90.00205469200304

_space_group_name_H-M_alt    "P 1"
_space_group_IT_number       1

loop_
  _space_group_symop_operation_xyz
  'x, y, z'

loop_
  _atom_site_type_symbol
  _atom_site_label
  _atom_site_symmetry_multiplicity
  _atom_site_fract_x
  _atom_site_fract_y
  _atom_site_fract_z
  _atom_site_occupancy
  Sr  Sr1       1.0  0.3385220468621954  0.9046147856972271  0.031844762836982614  1.0000
  Sr  Sr2       1.0  0.0052112372029427005  0.9681759505385729  0.8727191767047983  1.0000
  Sr  Sr3       1.0  0.6718691200854964  0.1272586396231574  0.09536134988805138  1.0000
  H   H1        1.0  0.7333226140418745  0.15580593475133503  0.4869626690482177  1.0000
  H   H2        1.0  0.3997994679792854  0.5129590841720882  0.6688366430609207  1.0000
  H   H3        1.0  0.06666944073126761  0.33127046314984193  0.8443336400598156  1.0000
  H   H4        1.0  0.6287316899531562  0.10455746044930692  0.7797534143747171  1.0000
  H   H5        1.0  0.2952870520296855  0.22024541293383498  0.3247980045969427  1.0000
  H   H6        1.0  0.9622161733029417  0.6754237828124587  0.8956328701631051  1.0000
  H   H7        1.0  0.2204931038619834  0.0097140134214939  0.6087894401049425  1.0000
  H   H8        1.0  0.8869737140719067  0.3910928833458129  0.40090399520438064  1.0000
  H   H9        1.0  0.5539494764450981  0.5990203094945129  0.9901405050537306  1.0000
  H   H10       1.0  0.2955202621864786  0.039253759609700005  0.3991127282004854  1.0000
  H   H11       1.0  0.9620277999778253  0.6008470936618977  0.6401249312889449  1.0000
  H   H12       1.0  0.6289613238170874  0.3599205977760319  0.960678612493801  1.0000
  H   H13       1.0  0.30544331944543773  0.5461509857490582  0.9799769400194477  1.0000
  H   H14       1.0  0.9721083973870039  0.020067329359356696  0.5661129426091307  1.0000
  H   H15       1.0  0.6387954340454984  0.43386403063405504  0.4539393695490618  1.0000
  H   H16       1.0  0.3149963216238234  0.3449186229762233  0.9778117012851697  1.0000
  H   H17       1.0  0.9815593687172497  0.022161557269598103  0.3670431629695017  1.0000
  H   H18       1.0  0.648393053600323  0.6329123904601913  0.6550645623433198  1.0000
  H   H19       1.0  0.1970156070602442  0.3379318778206724  0.10227994752055737  1.0000
  H   H20       1.0  0.8635686353652475  0.8976497133171788  0.23561383535042765  1.0000
  H   H21       1.0  0.5304373407736521  0.7643981357944868  0.6620988029717624  1.0000
  H   H22       1.0  0.3752814125221847  0.3495688860812223  0.139564345823473  1.0000
  H   H23       1.0  0.04185144329673561  0.8604269715025836  0.20994083004143252  1.0000
  H   H24       1.0  0.7087130194392516  0.7900119410090198  0.6504136522051951  1.0000
  H   H25       1.0  0.3543084000109431  0.5846688238227459  0.3763036597913399  1.0000
  H   H26       1.0  0.020976386904102605  0.6236900110474578  0.20842101596853263  1.0000
  H   H27       1.0  0.6875664161475257  0.791595837848604  0.4152851264317548  1.0000
  H   H28       1.0  0.17527541540862054  0.5800512591532225  0.357010403291973  1.0000
  H   H29       1.0  0.8419357510039731  0.6429495457245479  0.22309099691041476  1.0000
  H   H30       1.0  0.5085284274971544  0.7768635132459708  0.41985363400371517  1.0000
  H   H31       1.0  0.26859185781388123  0.7337898093305171  0.3743009340080476  1.0000
  H   H32       1.0  0.9352848293345419  0.625762627906944  0.3595819002827553  1.0000
  H   H33       1.0  0.6019023720389357  0.640409463492368  0.2661823697811982  1.0000
  C   C1        1.0  0.5026145274625052  0.09065880364568099  0.4725560204326769  1.0000
  C   C2        1.0  0.16905793421053525  0.527313544481494  0.6181451151863868  1.0000
  C   C3        1.0  0.836058673758878  0.3819694031929046  0.9093785519096969  1.0000
  C   C4        1.0  0.5972398069711604  0.10967968724526143  0.5820213172644131  1.0000
  C   C5        1.0  0.26369165704400643  0.417872322380994  0.527721815396248  1.0000
  C   C6        1.0  0.9306899588397644  0.47251908997380815  0.8905023463906686  1.0000
  C   C7        1.0  0.5543480483141466  0.09132162308824829  0.6980386055510124  1.0000
  C   C8        1.0  0.22081648800614326  0.3018322445340261  0.39333023582506854  1.0000
  C   C9        1.0  0.8878315391400096  0.6069222571060635  0.9088532986259709  1.0000
  C   C10       1.0  0.4197974833903899  0.05628524514283129  0.70767508140473  1.0000
  C   C11       1.0  0.0862688382624697  0.2921507807809149  0.3486516709086445  1.0000
  C   C12       1.0  0.7532390868986811  0.6515291283250805  0.9437357071204175  1.0000
  C   C13       1.0  0.32521796498717503  0.0372315611439262  0.5995555292330437  1.0000
  C   C14       1.0  0.9916794348661712  0.40027056390691473  0.4377020065018654  1.0000
  C   C15       1.0  0.6586728909120939  0.5623723415877889  0.9626853847537903  1.0000
  C   C16       1.0  0.3673980891274697  0.0541573985444757  0.4837154493159019  1.0000
  C   C17       1.0  0.03384842494018161  0.5161508592052398  0.5704478605542959  1.0000
  C   C18       1.0  0.7008492312786675  0.4296185273741031  0.9458018412869578  1.0000
  C   C19       1.0  0.5478281351432488  0.11103119968680628  0.35060658653824106  1.0000
  C   C20       1.0  0.21426941958755216  0.649314687209845  0.760456143122262  1.0000
  C   C21       1.0  0.8812021965786201  0.23958667793846197  0.8889163444806274  1.0000
  C   C22       1.0  0.3779742250965514  0.03613005094898371  0.8328421577643539  1.0000
  C   C23       1.0  0.04456955627159691  0.16707696548479586  0.2032296020341704  1.0000
  C   C24       1.0  0.7113283536060636  0.7968189328773575  0.9638279615812168  1.0000
  C   C25       1.0  0.29354664487209453  0.6173861113154331  0.09908998983316046  1.0000
  C   C26       1.0  0.9602297849356846  0.9009543662799472  0.5182618035546797  1.0000
  C   C27       1.0  0.6268598237412776  0.48170763719875254  0.3826806893621608  1.0000
  C   C28       1.0  0.29370170000586887  0.3849115877258455  0.09341349676789429  1.0000
  C   C29       1.0  0.9602811681390195  0.9065655141762928  0.29144253526218467  1.0000
  C   C30       1.0  0.6270935648315685  0.708536096830926  0.6151022814966255  1.0000
  C   C31       1.0  0.2699909256502267  0.6154387130924162  0.32906890484878903  1.0000
  C   C32       1.0  0.9366562320873015  0.6709169542201749  0.2864012276773381  1.0000
  C   C33       1.0  0.6032785468539146  0.7135779742338569  0.38451292396537434  1.0000
  N   N1        1.0  0.28622461229942087  0.5435767471003529  0.17140372704778167  1.0000
  N   N2        1.0  0.9528656260658794  0.8286044023926991  0.37214567709116847  1.0000
  N   N3        1.0  0.6195471323411113  0.6278346756993612  0.45644403019237956  1.0000
  O   O1        1.0  0.4664266603001793  0.09151807871069201  0.24872598713924526  1.0000
  O   O2        1.0  0.1329039156469562  0.7512692251577632  0.8427343018343549  1.0000
  O   O3        1.0  0.7997531218523266  0.15718189154031847  0.9083276643961327  1.0000
  O   O4        1.0  0.6726552308120547  0.1491223851534969  0.3496426724954844  1.0000
  O   O5        1.0  0.33905152879593464  0.6502358772072087  0.7995684124102667  1.0000
  O   O6        1.0  0.006028763935368901  0.2005224218723214  0.8508521220961923  1.0000
  O   O7        1.0  0.4648816250632991  0.061927814998348714  0.9333266742575859  1.0000
  O   O8        1.0  0.1315477387081145  0.0666832989072006  0.1285388243439343  1.0000
  O   O9        1.0  0.7981701856802916  0.8715446153287587  0.9380005472968949  1.0000
  O   O10       1.0  0.25873919284173047  0.9905672545853076  0.834449411447899  1.0000
  O   O11       1.0  0.9253985160613569  0.1654951937827889  0.1559342140574742  1.0000
  O   O12       1.0  0.5920831463628816  0.843954283521903  0.009402430104721258  1.0000
  O   O13       1.0  0.7285251440779137  0.1439363659903279  0.5772299238463533  1.0000
  O   O14       1.0  0.3949972612329945  0.4227136955003559  0.5667173520590083  1.0000
  O   O15       1.0  0.06196476372355871  0.4334526846395406  0.8562777717271003  1.0000
  O   O16       1.0  0.28721558988436874  0.7535746838855247  0.15610814778533924  1.0000
  O   O17       1.0  0.953956252893548  0.8439283461344261  0.5974183621687814  1.0000
  O   O18       1.0  0.6204990159956342  0.4025336217554382  0.2465066706743997  1.0000
