data_image0
_chemical_formula_structural       Ho2P2H22C18S2N2O18
_chemical_formula_sum              "Ho2 P2 H22 C18 S2 N2 O18"
_cell_length_a       6.731613365785845
_cell_length_b       7.503461019495214
_cell_length_c       13.328986850388885
_cell_angle_alpha    90.68617341864648
_cell_angle_beta     93.0128832067148
_cell_angle_gamma    101.79019591767148

_space_group_name_H-M_alt    "P 1"
_space_group_IT_number       1

loop_
  _space_group_symop_operation_xyz
  'x, y, z'

loop_
  _atom_site_type_symbol
  _atom_site_label
  _atom_site_symmetry_multiplicity
  _atom_site_fract_x
  _atom_site_fract_y
  _atom_site_fract_z
  _atom_site_occupancy
  Ho  Ho1       1.0  0.28579508421388056  0.76874710049929  0.4553238850177693  1.0000
  Ho  Ho2       1.0  0.7142024819637243  0.23125265638831385  0.5446754813102501  1.0000
  P   P1        1.0  0.250004902648179  0.38652136180125746  0.6202551664937488  1.0000
  P   P2        1.0  0.7499863042355982  0.6134702337080427  0.3797409773844933  1.0000
  H   H1        1.0  0.16768839546679004  0.10616608316404813  0.7741897030627316  1.0000
  H   H2        1.0  0.8323073500285004  0.8938323298314402  0.22581260609771903  1.0000
  H   H3        1.0  0.16949251829736062  0.125659140273612  0.9615558960494823  1.0000
  H   H4        1.0  0.8305196919378162  0.8743460079891535  0.03844541003296341  1.0000
  H   H5        1.0  0.21540950107920045  0.32020951793145963  0.12017499523590663  1.0000
  H   H6        1.0  0.784608018109395  0.6797928767265872  0.8798256950056215  1.0000
  H   H7        1.0  0.272467104511577  0.628917909492685  0.1990187675258852  1.0000
  H   H8        1.0  0.7275489286791201  0.3710844919791469  0.800981881064317  1.0000
  H   H9        1.0  0.32793135918800703  0.9014622537706742  0.09557303393177823  1.0000
  H   H10       1.0  0.6720810707831787  0.0985374322082606  0.9044259987524443  1.0000
  H   H11       1.0  0.3309574137721896  0.8729221839793836  0.9071287591476107  1.0000
  H   H12       1.0  0.6690475785804395  0.1270775416101841  0.09287156559413752  1.0000
  H   H13       1.0  0.3087541755221679  0.6792306802883488  0.7658312015998945  1.0000
  H   H14       1.0  0.691242759431745  0.32076634747879507  0.2341666321248043  1.0000
  H   H15       1.0  0.0267340381483834  0.41845460052112315  0.38656443226031456  1.0000
  H   H16       1.0  0.9732676437095052  0.5815437907609677  0.6134395438196237  1.0000
  H   H17       1.0  0.23422993500986425  0.39171479830824296  0.3444099332239859  1.0000
  H   H18       1.0  0.7657729096050617  0.608282227141572  0.655594818519795  1.0000
  H   H19       1.0  0.2281727770994451  0.9207577270707927  0.6442938648317738  1.0000
  H   H20       1.0  0.7718312379015373  0.0792379270050105  0.3557101622616728  1.0000
  H   H21       1.0  0.10771963526374148  0.03908945253306229  0.5756376931430509  1.0000
  H   H22       1.0  0.8922789710934679  0.9609021310742634  0.4243646602485144  1.0000
  C   C1        1.0  0.23843424160534007  0.3968618019872849  0.7578719682900401  1.0000
  C   C2        1.0  0.7615567417279224  0.6031352585767137  0.24212719914351064  1.0000
  C   C3        1.0  0.19729631840270662  0.2368181168629349  0.8139512252484238  1.0000
  C   C4        1.0  0.8026964627257982  0.7631803042183735  0.18604950029519784  1.0000
  C   C5        1.0  0.19804788123571632  0.24866360486711872  0.9171738418501366  1.0000
  C   C6        1.0  0.8019544547329432  0.7513374989102387  0.08282716589060612  1.0000
  C   C7        1.0  0.23486360344963944  0.4198477810070925  0.9678083557754038  1.0000
  C   C8        1.0  0.7651387439625594  0.5801533144576608  0.032190401494091206  1.0000
  C   C9        1.0  0.2376309462791966  0.4405270314781403  0.07363692611278341  1.0000
  C   C10       1.0  0.7623758553122144  0.55947404631614  0.9263627062677815  1.0000
  C   C11       1.0  0.2712960797195266  0.6117855327970645  0.11784008809011233  1.0000
  C   C12       1.0  0.7287092320594584  0.3882155545818691  0.8821602527962046  1.0000
  C   C13       1.0  0.303165456427088  0.7682855966484752  0.05793119326234831  1.0000
  C   C14       1.0  0.6968398591664099  0.23171548795959038  0.9420683974668834  1.0000
  C   C15       1.0  0.3037619696317152  0.754039254577158  0.9544981786717772  1.0000
  C   C16       1.0  0.6962415405375139  0.24596047505532684  0.0455013542615603  1.0000
  C   C17       1.0  0.2701899021657823  0.579052783819989  0.9086814311875315  1.0000
  C   C18       1.0  0.7298112748603531  0.42094968301877594  0.09131805073229063  1.0000
  S   S1        1.0  0.3981412460175591  0.07894347150185149  0.3095997429339762  1.0000
  S   S2        1.0  0.6018474118016359  0.9210563207267055  0.6903978731718895  1.0000
  N   N1        1.0  0.2714040529929207  0.558432588550751  0.8062186717288357  1.0000
  N   N2        1.0  0.7285905450033852  0.441567179193548  0.19377986113943282  1.0000
  O   O1        1.0  0.24777201009725766  0.5809271559046892  0.5876826359911647  1.0000
  O   O2        1.0  0.75223478386512  0.41907392743132715  0.41231849670356985  1.0000
  O   O3        1.0  0.4426126803752126  0.3193019332033273  0.6025578135469304  1.0000
  O   O4        1.0  0.5573842583932133  0.6806950917929483  0.3974392700206835  1.0000
  O   O5        1.0  0.05688958048339292  0.25054283593921417  0.5843669329175185  1.0000
  O   O6        1.0  0.943100459828841  0.74945012817323  0.41562918545397315  1.0000
  O   O7        1.0  0.27047041019581997  0.8946684720640545  0.2882848516599168  1.0000
  O   O8        1.0  0.7295222122288793  0.10533536696723898  0.7117061447685631  1.0000
  O   O9        1.0  0.4335919193005253  0.08585930895945641  0.4232866972767298  1.0000
  O   O10       1.0  0.5663996209849244  0.9141527338316349  0.5767095638161379  1.0000
  O   O11       1.0  0.298897026208607  0.2251160072087686  0.27432062024994514  1.0000
  O   O12       1.0  0.7010736618002299  0.7748770704206153  0.7256817080680236  1.0000
  O   O13       1.0  0.5983975295724023  0.0964204233391115  0.2624097118076065  1.0000
  O   O14       1.0  0.40159624669756516  0.9036011519775188  0.7375866622972753  1.0000
  O   O15       1.0  0.16305171895865558  0.4846500877976182  0.3708561817954036  1.0000
  O   O16       1.0  0.8369555645774229  0.5153469310651815  0.6291524456877868  1.0000
  O   O17       1.0  0.14012664380741313  0.9156324758412353  0.5817251109595603  1.0000
  O   O18       1.0  0.8598818406308341  0.08436314948063028  0.4182767906166234  1.0000
