data_image0
_chemical_formula_structural       Zn8H60C68O34
_chemical_formula_sum              "Zn8 H60 C68 O34"
_cell_length_a       17.926928433930073
_cell_length_b       18.525575230541815
_cell_length_c       20.170794152397807
_cell_angle_alpha    61.159614588980965
_cell_angle_beta     63.40155169274678
_cell_angle_gamma    89.91549976091059

_space_group_name_H-M_alt    "P 1"
_space_group_IT_number       1

loop_
  _space_group_symop_operation_xyz
  'x, y, z'

loop_
  _atom_site_type_symbol
  _atom_site_label
  _atom_site_symmetry_multiplicity
  _atom_site_fract_x
  _atom_site_fract_y
  _atom_site_fract_z
  _atom_site_occupancy
  Zn  Zn1       1.0  0.129819028159325  0.5412253496703272  0.9260999774839008  1.0000
  Zn  Zn2       1.0  0.9619709750129671  0.5482835311396528  0.06931667199542353  1.0000
  Zn  Zn3       1.0  0.9709011229651877  0.3792750008348165  0.06159502726376331  1.0000
  Zn  Zn4       1.0  0.9546044342379287  0.54244536606469  0.9129980333555922  1.0000
  Zn  Zn5       1.0  0.37887055794862323  0.9704102196885739  0.06003327360077292  1.0000
  Zn  Zn6       1.0  0.5438285135574005  0.12733092722904618  0.9212759369251701  1.0000
  Zn  Zn7       1.0  0.5400121732575659  0.9582895924432291  0.9145709437852148  1.0000
  Zn  Zn8       1.0  0.5556022574425724  0.9600598726180962  0.06919926754709851  1.0000
  H   H1        1.0  0.4286893258831057  0.8195810627986188  0.3510743005304989  1.0000
  H   H2        1.0  0.20745476850478892  0.8369797940232572  0.31886102770940994  1.0000
  H   H3        1.0  0.08548556876159799  0.6797493421659835  0.6338758806449152  1.0000
  H   H4        1.0  0.30649460987667954  0.6604928614560492  0.6664187548065287  1.0000
  H   H5        1.0  0.6778990197782451  0.08485333715358223  0.6387327769822589  1.0000
  H   H6        1.0  0.6671259910362862  0.3051845205670745  0.6584179299688913  1.0000
  H   H7        1.0  0.8261845464973306  0.4220283111076951  0.34520450590634516  1.0000
  H   H8        1.0  0.8420473460986102  0.20157662912800584  0.32591535417304135  1.0000
  H   H9        1.0  0.2193944503479059  0.31658900699483167  0.8818020827753514  1.0000
  H   H10       1.0  0.13417207802294945  0.2301553547205656  0.9831389284016582  1.0000
  H   H11       1.0  0.22602590026948385  0.1406409478399411  0.9788291875787749  1.0000
  H   H12       1.0  0.31142774029196124  0.22827577030611226  0.8787795373758271  1.0000
  H   H13       1.0  0.20248666275337968  0.10963774219860768  0.12381810168424323  1.0000
  H   H14       1.0  0.27295520471564316  0.17277008099488705  0.12708784294228084  1.0000
  H   H15       1.0  0.11297160254041931  0.2015357688704356  0.12674504030110972  1.0000
  H   H16       1.0  0.18547239080967157  0.26554577096583637  0.12720833177618832  1.0000
  H   H17       1.0  0.3230732396108778  0.4103513981637761  0.8820828087173213  1.0000
  H   H18       1.0  0.30819304494531263  0.3905765615669167  0.9821309510186893  1.0000
  H   H19       1.0  0.39735472287615187  0.2983590525307703  0.9830935580894364  1.0000
  H   H20       1.0  0.4137658786616001  0.31990031154778376  0.8820087421781934  1.0000
  H   H21       1.0  0.9062154895693837  0.8137604372937518  0.8787303218651773  1.0000
  H   H22       1.0  0.8864072028083854  0.7879724958459136  0.9829632747534662  1.0000
  H   H23       1.0  0.7972772806876592  0.8800880759070181  0.9827675496115873  1.0000
  H   H24       1.0  0.816557081272009  0.9043694561403511  0.8791435895283116  1.0000
  H   H25       1.0  0.6736731489099411  0.756174309040709  0.12217095172938032  1.0000
  H   H26       1.0  0.6031536943650551  0.69340716554737  0.11875305260632983  1.0000
  H   H27       1.0  0.7615180017797627  0.662695236189677  0.12197400471260517  1.0000
  H   H28       1.0  0.6918492967150556  0.6018710498992377  0.11594895431791492  1.0000
  H   H29       1.0  0.8077891722548642  0.7253179099999939  0.8695299465076404  1.0000
  H   H30       1.0  0.7210014684630226  0.6378913187084122  0.9658786665228335  1.0000
  H   H31       1.0  0.6300410747633266  0.7280864497173807  0.9691640534295233  1.0000
  H   H32       1.0  0.7164889846400232  0.8149686139324572  0.8719139735650075  1.0000
  H   H33       1.0  0.17649858655182984  0.8102836365806068  0.9152896254392007  1.0000
  H   H34       1.0  0.2663959458240229  0.7792275974095444  0.8617346948327979  1.0000
  H   H35       1.0  0.35745084078001094  0.8742625829500384  0.8566750518793287  1.0000
  H   H36       1.0  0.2668533790889569  0.9041765410602948  0.9111144123815721  1.0000
  H   H37       1.0  0.4019084790811079  0.7511002226453766  0.943441021301318  1.0000
  H   H38       1.0  0.3446883740919802  0.6940255171198827  0.05953815965237651  1.0000
  H   H39       1.0  0.30971562648014134  0.654704748612481  0.9506280847897203  1.0000
  H   H40       1.0  0.2517095834899692  0.5996731489548776  0.06665059340930671  1.0000
  H   H41       1.0  0.09143805817539173  0.7289276127905068  0.08286043596797302  1.0000
  H   H42       1.0  0.1220983724468141  0.6427555442294873  0.14423597022400966  1.0000
  H   H43       1.0  0.21391591141616564  0.7367344703933864  0.13937092837607423  1.0000
  H   H44       1.0  0.1829413707341772  0.8227840214485267  0.07842933372162261  1.0000
  H   H45       1.0  0.9127440979060426  0.28096244041644514  0.9083798401217253  1.0000
  H   H46       1.0  0.8740513536958191  0.36343438445243936  0.8519790460818797  1.0000
  H   H47       1.0  0.7907867465457129  0.2635407079081914  0.855360238340623  1.0000
  H   H48       1.0  0.8251695768979489  0.1804988156404406  0.9170832676020382  1.0000
  H   H49       1.0  0.6608853929024081  0.3053060523749592  0.93262682137226  1.0000
  H   H50       1.0  0.5990947315179227  0.24767698865244367  0.0486461490695334  1.0000
  H   H51       1.0  0.7448541481961045  0.4004378315346243  0.9342270301763238  1.0000
  H   H52       1.0  0.6852937826678343  0.33976058661511377  0.050439513459068115  1.0000
  H   H53       1.0  0.8283170322006939  0.19224511179101708  0.07626074635165031  1.0000
  H   H54       1.0  0.7380855486072448  0.21815895166997734  0.1349093946526878  1.0000
  H   H55       1.0  0.6459733052929835  0.12618171372437803  0.137849269320796  1.0000
  H   H56       1.0  0.7356169788161894  0.0955589338573972  0.0849999520267133  1.0000
  H   H57       1.0  0.44512635250901406  0.8679435876840882  0.4282635463253825  1.0000
  H   H58       1.0  0.07147479023846161  0.8075630244275729  0.5515858887852404  1.0000
  H   H59       1.0  0.6296361195457864  0.06980102525302816  0.557952259376755  1.0000
  H   H60       1.0  0.7000875778950474  0.4409382399452608  0.42027404778336575  1.0000
  C   C1        1.0  0.1399348323980192  0.6383263923489082  0.0023757466057716986  1.0000
  C   C2        1.0  0.8859051297088598  0.3743473398620266  0.22901038310731542  1.0000
  C   C3        1.0  0.1481249934479933  0.3651659371349607  0.99785221665816  1.0000
  C   C4        1.0  0.86175735471695  0.366552066653334  0.989829472225246  1.0000
  C   C5        1.0  0.1319040321469984  0.618939090080886  0.7567303364022849  1.0000
  C   C6        1.0  0.8619479627078591  0.6415387137141124  0.9885977168172391  1.0000
  C   C7        1.0  0.36640654191790384  0.14572618718039365  0.9948248045210237  1.0000
  C   C8        1.0  0.616950636294831  0.13239493130189556  0.7549969173295639  1.0000
  C   C9        1.0  0.36066213151319465  0.8654094679979422  0.9924581376659493  1.0000
  C   C10       1.0  0.6436052166724553  0.8628222490710512  0.9909010386441254  1.0000
  C   C11       1.0  0.3815553794259402  0.8831588717816029  0.228085087593243  1.0000
  C   C12       1.0  0.6486180520536922  0.1373688381900564  0.994327988593426  1.0000
  C   C13       1.0  0.35847290442654156  0.8070917403777498  0.3809687345217725  1.0000
  C   C14       1.0  0.23327677270318503  0.8162863260330722  0.3627535857543903  1.0000
  C   C15       1.0  0.17746067189670356  0.7732765842952886  0.4525495124075577  1.0000
  C   C16       1.0  0.21071864549521999  0.7443479372825194  0.5110374073325729  1.0000
  C   C17       1.0  0.1558132330872795  0.6962291109663284  0.6038572625761774  1.0000
  C   C18       1.0  0.28075068679660115  0.684727087891268  0.6223671891993163  1.0000
  C   C19       1.0  0.3366857037277741  0.7318927694614459  0.5324032311061799  1.0000
  C   C20       1.0  0.30360123505927555  0.7625540705584513  0.4736994488750312  1.0000
  C   C21       1.0  0.32411859967898954  0.8341257880241526  0.3264097827099164  1.0000
  C   C22       1.0  0.18997585920474336  0.6675184598918377  0.6585679398718514  1.0000
  C   C23       1.0  0.6923689974987327  0.15435893037643916  0.6055898867782546  1.0000
  C   C24       1.0  0.6867440652587007  0.27911936551836886  0.6168721752302633  1.0000
  C   C25       1.0  0.7314618033712182  0.3334235828479422  0.526438632386423  1.0000
  C   C26       1.0  0.7590979218668042  0.29943390453078667  0.4714519360387044  1.0000
  C   C27       1.0  0.8082173280553845  0.3524976127850152  0.37843484700238866  1.0000
  C   C28       1.0  0.8177684918728332  0.2276940901464214  0.36733829579522853  1.0000
  C   C29       1.0  0.7689993532884428  0.17358097237659814  0.4576799655794447  1.0000
  C   C30       1.0  0.7385916028732781  0.20760590624932707  0.5125847477265355  1.0000
  C   C31       1.0  0.6662322113843189  0.18932318185684932  0.6567212853095441  1.0000
  C   C32       1.0  0.8362664148389881  0.3174903437997329  0.3273750290314155  1.0000
  C   C33       1.0  0.20201484047061055  0.26601941425704473  0.9490404311560852  1.0000
  C   C34       1.0  0.26267980565241794  0.20662276275013614  0.9470282378498994  1.0000
  C   C35       1.0  0.3096480214257298  0.20669488430112168  0.9953516126225711  1.0000
  C   C36       1.0  0.2403416415753199  0.17532296906338019  0.09127453010531641  1.0000
  C   C37       1.0  0.18123311872269451  0.23632407259557903  0.0922922533735928  1.0000
  C   C38       1.0  0.20902801556073317  0.3080839340519929  0.9970253152019027  1.0000
  C   C39       1.0  0.30358830884719623  0.35885706120448885  0.9495015445861414  1.0000
  C   C40       1.0  0.36319179539511737  0.29847077318571263  0.9494289380205105  1.0000
  C   C41       1.0  0.8546798179650776  0.7906883902997206  0.9464569212228329  1.0000
  C   C42       1.0  0.795091313675002  0.8514734040280696  0.9467547235134859  1.0000
  C   C43       1.0  0.7003031033491853  0.8013333331698858  0.9906936035287046  1.0000
  C   C44       1.0  0.6712569030850305  0.7282841240342959  0.0857152019283518  1.0000
  C   C45       1.0  0.7302209420613863  0.6671197820869565  0.0847265058994964  1.0000
  C   C46       1.0  0.8009475523997907  0.699054063220508  0.9891749591340757  1.0000
  C   C47       1.0  0.757542208744539  0.702960785445228  0.9373383139491196  1.0000
  C   C48       1.0  0.6973646404768061  0.7628905753976624  0.9389526884482038  1.0000
  C   C49       1.0  0.23190932369244158  0.7863478860024171  0.9180723527891886  1.0000
  C   C50       1.0  0.29229540851101626  0.8490643675396753  0.9149529758098043  1.0000
  C   C51       1.0  0.2996653810667383  0.8024730149020485  0.9984772143372781  1.0000
  C   C52       1.0  0.3369003971768265  0.726367966468139  0.0016970622692298015  1.0000
  C   C53       1.0  0.2756715473789413  0.6632805932992554  0.005963239350236897  1.0000
  C   C54       1.0  0.1973806545584864  0.6970835693610907  0.0040244734786228  1.0000
  C   C55       1.0  0.1479543929162119  0.7062295907402784  0.08318169411921161  1.0000
  C   C56       1.0  0.20872324544136225  0.7685574221047557  0.08003966756074733  1.0000
  C   C57       1.0  0.8535882718091087  0.2994283661613365  0.9110508160726951  1.0000
  C   C58       1.0  0.7963706027188877  0.23363245809891706  0.9144139670705587  1.0000
  C   C59       1.0  0.7043924319692536  0.19704205675064648  0.9965948549711926  1.0000
  C   C60       1.0  0.6656331468030315  0.2728478146973927  0.9921292142514418  1.0000
  C   C61       1.0  0.7225765598893474  0.33546494363985596  0.99244062015908  1.0000
  C   C62       1.0  0.8021190183967378  0.3044042717448789  0.9935343602305551  1.0000
  C   C63       1.0  0.7714497059973978  0.21428948324743397  0.07631841432029772  1.0000
  C   C64       1.0  0.7112539885420689  0.15140711426528236  0.0796077741901371  1.0000
  C   C65       1.0  0.43189963466101494  0.7473689326300883  0.5016132563761602  1.0000
  C   C66       1.0  0.0822168743530796  0.7583373663625038  0.4832966831550679  1.0000
  C   C67       1.0  0.7514633058548625  0.07910137542876328  0.49373811716287025  1.0000
  C   C68       1.0  0.7508249636451511  0.427874146656684  0.4908563860227134  1.0000
  O   O1        1.0  0.002728761504634823  0.504681206222081  0.9913094660858093  1.0000
  O   O2        1.0  0.17800844214205827  0.6204589473890891  0.943618756731283  1.0000
  O   O3        1.0  0.8960428785749883  0.45470344919529265  0.19534259798430043  1.0000
  O   O4        1.0  0.06742949903785699  0.32817262510159395  0.03850937618162931  1.0000
  O   O5        1.0  0.05876923064524683  0.6127394706633635  0.05761838348114172  1.0000
  O   O6        1.0  0.18122801557298365  0.44531848385696554  0.9575514322142668  1.0000
  O   O7        1.0  0.9129305081695378  0.3364458685212455  0.18777326272376632  1.0000
  O   O8        1.0  0.889523555239542  0.33330073671240257  0.04316362770610741  1.0000
  O   O9        1.0  0.05021394937183033  0.6052247214510017  0.7877635777845455  1.0000
  O   O10       1.0  0.8807734555775825  0.4464984143817432  0.9332867837747046  1.0000
  O   O11       1.0  0.17075922437990715  0.5962960390324525  0.8002395188838919  1.0000
  O   O12       1.0  0.8879447926600008  0.6217923136005082  0.04317304640725442  1.0000
  O   O13       1.0  0.8834535085894614  0.6188190327603492  0.9335110719651923  1.0000
  O   O14       1.0  0.505800712880479  0.0019946828480143387  0.9923062606772463  1.0000
  O   O15       1.0  0.32795058707824154  0.0669220714272285  0.0339363411152505  1.0000
  O   O16       1.0  0.5911816789810301  0.17031737264662883  0.7963627117967748  1.0000
  O   O17       1.0  0.44073225158818025  0.8896825262991042  0.9334904336106364  1.0000
  O   O18       1.0  0.447990808458165  0.17722545979075466  0.9551810118788853  1.0000
  O   O19       1.0  0.3272892055590972  0.8899943081608084  0.04593044271241102  1.0000
  O   O20       1.0  0.6047190482862276  0.05184993799663564  0.7885949482271145  1.0000
  O   O21       1.0  0.6157158371445915  0.8855111448620574  0.9376825648303042  1.0000
  O   O22       1.0  0.46306519031969623  0.8931048317518627  0.19606996545207522  1.0000
  O   O23       1.0  0.6294132991581592  0.8876285141276195  0.043648792041750505  1.0000
  O   O24       1.0  0.3422178984389533  0.9111673553344699  0.18537253829877903  1.0000
  O   O25       1.0  0.633403615267625  0.1728640558358379  0.9311563375107001  1.0000
  O   O26       1.0  0.6217169965617443  0.05765284230539436  0.05386152938431372  1.0000
  O   O27       1.0  0.4817619035221127  0.8305866180631012  0.44104363410166775  1.0000
  O   O28       1.0  0.4643461250808444  0.6911794867439126  0.5300046122443476  1.0000
  O   O29       1.0  0.0339657711612134  0.7817718953929144  0.5409787475866709  1.0000
  O   O30       1.0  0.04856352873559195  0.7298175047179566  0.4572751410359857  1.0000
  O   O31       1.0  0.6663301602341035  0.03196329188672561  0.5509618308787623  1.0000
  O   O32       1.0  0.8075468736822842  0.044828704068798644  0.4726278865286276  1.0000
  O   O33       1.0  0.7282916958429765  0.47719707988012033  0.4297494313097802  1.0000
  O   O34       1.0  0.7824319498372745  0.4601291316705909  0.5156321046365593  1.0000
