data_image0
_chemical_formula_structural       Cd4H48C16N48
_chemical_formula_sum              "Cd4 H48 C16 N48"
_cell_length_a       7.241660644583273
_cell_length_b       11.466718622006765
_cell_length_c       13.378500056731514
_cell_angle_alpha    90.0000598219709
_cell_angle_beta     103.97820757098731
_cell_angle_gamma    89.99987956342324

_space_group_name_H-M_alt    "P 1"
_space_group_IT_number       1

loop_
  _space_group_symop_operation_xyz
  'x, y, z'

loop_
  _atom_site_type_symbol
  _atom_site_label
  _atom_site_symmetry_multiplicity
  _atom_site_fract_x
  _atom_site_fract_y
  _atom_site_fract_z
  _atom_site_occupancy
  Cd  Cd1       1.0  0.9471817269698022  0.7334961581987686  0.18159567217070818  1.0000
  Cd  Cd2       1.0  0.5528182090647036  0.23349731548174188  0.31840494956306037  1.0000
  Cd  Cd3       1.0  0.052818773094351505  0.2665039073829334  0.8184058695591786  1.0000
  Cd  Cd4       1.0  0.44718087764851333  0.7665036221893973  0.6815956548484792  1.0000
  H   H1        1.0  0.6948347850639253  0.6446218251687766  0.340245722115867  1.0000
  H   H2        1.0  0.805165427283839  0.1446215818019922  0.15975485626741903  1.0000
  H   H3        1.0  0.30516713800431455  0.3553791125011685  0.6597560107445517  1.0000
  H   H4        1.0  0.19483365943344924  0.8553767396019438  0.8402457481434809  1.0000
  H   H5        1.0  0.6789850090174882  0.5143082199642561  0.4026016047254188  1.0000
  H   H6        1.0  0.8210141951283633  0.014307007444706695  0.09739797277615035  1.0000
  H   H7        1.0  0.3210155007011791  0.48569271770606554  0.5973991908164464  1.0000
  H   H8        1.0  0.17898490124479594  0.9856913139587603  0.9026018854465151  1.0000
  H   H9        1.0  0.0440192582704455  0.9221402090162485  0.37802665229612126  1.0000
  H   H10       1.0  0.45597969863382554  0.42214146346066167  0.12197283209952299  1.0000
  H   H11       1.0  0.9559812514495789  0.07785985656499148  0.6219741432455308  1.0000
  H   H12       1.0  0.5440194073924829  0.5778586021204858  0.8780262799353338  1.0000
  H   H13       1.0  0.2035334515146303  0.9356340082471135  0.4944414004845967  1.0000
  H   H14       1.0  0.2964668864453515  0.43563358846772343  0.0055582816228252115  1.0000
  H   H15       1.0  0.7964656351972366  0.06436780151310019  0.5055592039271559  1.0000
  H   H16       1.0  0.7035336618981418  0.5643664771116832  0.994439529165895  1.0000
  H   H17       1.0  0.1721736172939146  0.5434963375334191  0.1267256143756086  1.0000
  H   H18       1.0  0.32782650716632133  0.0434945801721582  0.3732744315168262  1.0000
  H   H19       1.0  0.8278254790738231  0.4565054722263397  0.8732742438479092  1.0000
  H   H20       1.0  0.6721740025550602  0.9565046133200141  0.6267263640246129  1.0000
  H   H21       1.0  0.09175969538147653  0.6157541386685139  0.021060799229246602  1.0000
  H   H22       1.0  0.40824164674440067  0.11575327539570417  0.47893798066237286  1.0000
  H   H23       1.0  0.9082408433047958  0.38424679900041525  0.9789377577479215  1.0000
  H   H24       1.0  0.5917588726328444  0.8842459180960061  0.5210620686908314  1.0000
  H   H25       1.0  0.41513233443783554  0.6602514186070179  0.0569717766701174  1.0000
  H   H26       1.0  0.08486885968643068  0.16025268523805633  0.4430277711146431  1.0000
  H   H27       1.0  0.584868204249787  0.3397486469728434  0.9430267803068375  1.0000
  H   H28       1.0  0.9151316500335938  0.8397473803431905  0.556973024427009  1.0000
  H   H29       1.0  0.4192436168658135  0.6718084213537023  0.19002619579098481  1.0000
  H   H30       1.0  0.0807575316733633  0.1718086591625791  0.3099741038189094  1.0000
  H   H31       1.0  0.5807569025100818  0.32819164422708264  0.8099738535624327  1.0000
  H   H32       1.0  0.9192415646984384  0.8281905343299629  0.6900257544039761  1.0000
  H   H33       1.0  0.43044404186160534  0.8658185256067412  0.0985375301549638  1.0000
  H   H34       1.0  0.0695565131541045  0.36581888981717003  0.4014621178988236  1.0000
  H   H35       1.0  0.5695564871701535  0.13418153997358218  0.9014617730102259  1.0000
  H   H36       1.0  0.9304440158790042  0.6341803036740786  0.5985371852661459  1.0000
  H   H37       1.0  0.1975234588418644  0.8358737120502152  0.023429335377834103  1.0000
  H   H38       1.0  0.3024786122783283  0.3358738584539154  0.4765704892000784  1.0000
  H   H39       1.0  0.8024770701898946  0.16412635353010774  0.9765699677873486  1.0000
  H   H40       1.0  0.6975219167534307  0.6641262071264078  0.5234288139651113  1.0000
  H   H41       1.0  0.1741270755418398  0.9503538180692244  0.1644184956380172  1.0000
  H   H42       1.0  0.3258718033026184  0.4503546336219343  0.3355802563310135  1.0000
  H   H43       1.0  0.8258720304858259  0.04964537542285538  0.8355806163966264  1.0000
  H   H44       1.0  0.6741273027250473  0.5496445598701455  0.6644188557036372  1.0000
  H   H45       1.0  0.3030412479166457  0.8614844188705392  0.24840245207108322  1.0000
  H   H46       1.0  0.19695932057168614  0.36148617535751265  0.2515971938690029  1.0000
  H   H47       1.0  0.696957858111027  0.1385147746215409  0.7515966599635675  1.0000
  H   H48       1.0  0.8030412084587226  0.6385147623118783  0.7484021092963928  1.0000
  C   C1        1.0  0.7290509472062752  0.4985110793822613  0.2616896402863916  1.0000
  C   C2        1.0  0.7709467612039093  0.9985102253069867  0.23830942720613282  1.0000
  C   C3        1.0  0.27094814916416965  0.5014889861993481  0.7383102179367  1.0000
  C   C4        1.0  0.2290494891569921  0.0014889681872105995  0.761690048756094  1.0000
  C   C5        1.0  0.1749929100477772  0.7723196138954477  0.4337332661728297  1.0000
  C   C6        1.0  0.32500935866213615  0.2723201023001849  0.0662665274054532  1.0000
  C   C7        1.0  0.825007609328118  0.2276804516853375  0.5662667831805948  1.0000
  C   C8        1.0  0.6749940163818735  0.7276790911894082  0.9337331580201678  1.0000
  C   C9        1.0  0.33314470174352107  0.6894377114466508  0.11181160590762573  1.0000
  C   C10       1.0  0.1668564016432867  0.1894370581542404  0.3881879561128301  1.0000
  C   C11       1.0  0.6668544139373013  0.3105632262231097  0.8881867599392096  1.0000
  C   C12       1.0  0.8331441177339586  0.8105621353374702  0.6118120932403741  1.0000
  C   C13       1.0  0.2971912741844847  0.8197862643546188  0.0982467377265976  1.0000
  C   C14       1.0  0.20281085660617043  0.31978732402198057  0.4017523328163506  1.0000
  C   C15       1.0  0.7028092451900465  0.18021467331524121  0.901753311627033  1.0000
  C   C16       1.0  0.7971911050855526  0.6802136136461242  0.5982464152911433  1.0000
  N   N1        1.0  0.7980120194405844  0.5465404209650798  0.18595186223306834  1.0000
  N   N2        1.0  0.7019899305066631  0.04653875854292979  0.3140481132509052  1.0000
  N   N3        1.0  0.20199132663039882  0.45346226088218344  0.8140500617581025  1.0000
  N   N4        1.0  0.29801058887193926  0.953459562859713  0.6859519361020859  1.0000
  N   N5        1.0  0.8428966659477198  0.4549561795756815  0.1309475709592292  1.0000
  N   N6        1.0  0.657105446896317  0.9549521477258407  0.36905204867877467  1.0000
  N   N7        1.0  0.15710526677232645  0.5450473743610189  0.8690534157136014  1.0000
  N   N8        1.0  0.3428964858345723  0.04504442949829009  0.6309489379923504  1.0000
  N   N9        1.0  0.8016328435926496  0.35692993115011257  0.17065420916300414  1.0000
  N   N10       1.0  0.6983681606650833  0.856926668180577  0.3293444253424767  1.0000
  N   N11       1.0  0.19836483942414426  0.6430727506990834  0.8293447117421735  1.0000
  N   N12       1.0  0.3016337720644486  0.1430707811326215  0.6706565613288689  1.0000
  N   N13       1.0  0.7282051566368466  0.38056189972791526  0.2529283291390456  1.0000
  N   N14       1.0  0.7717929088279193  0.8805575668532556  0.24707142700892604  1.0000
  N   N15       1.0  0.2717896610573193  0.6194407821238528  0.7470717018819499  1.0000
  N   N16       1.0  0.22820616823485554  0.11943988246206769  0.7529299235899956  1.0000
  N   N17       1.0  0.6606882762580425  0.5581114797459321  0.3332516605718824  1.0000
  N   N18       1.0  0.8393107917029851  0.058110327462927096  0.16674793829557188  1.0000
  N   N19       1.0  0.33931366612193864  0.4418894579230965  0.666748579912074  1.0000
  N   N20       1.0  0.16068403565382278  0.9418879939430269  0.8332513465361232  1.0000
  N   N21       1.0  0.10020562866795764  0.6980996039314605  0.3564855600860426  1.0000
  N   N22       1.0  0.3997968514808933  0.19810008717053043  0.1435156896664935  1.0000
  N   N23       1.0  0.8997962944002822  0.3019013337384848  0.6435161727743832  1.0000
  N   N24       1.0  0.6002036678963591  0.8018991063211798  0.8564843596867178  1.0000
  N   N25       1.0  0.15286811134497214  0.5900774067080407  0.39376322865412317  1.0000
  N   N26       1.0  0.3471332719872038  0.09007617027415898  0.10623852346603263  1.0000
  N   N27       1.0  0.8471338020660468  0.40992440305144123  0.6062392503947507  1.0000
  N   N28       1.0  0.6528672473913987  0.9099221511284769  0.8937615258869657  1.0000
  N   N29       1.0  0.2542188773196727  0.5988113690992449  0.4883377266499664  1.0000
  N   N30       1.0  0.24578106550757184  0.09881102408117926  0.0116630924120003  1.0000
  N   N31       1.0  0.7457801997363235  0.40119044066143067  0.5116636239500211  1.0000
  N   N32       1.0  0.7542194635241871  0.9011890414991438  0.9883362107531894  1.0000
  N   N33       1.0  0.2704355554237878  0.7129033005350182  0.5167115313170143  1.0000
  N   N34       1.0  0.2295642716202266  0.21290267988198516  0.9832892207576194  1.0000
  N   N35       1.0  0.7295620889722443  0.28709763713787584  0.48329037434066885  1.0000
  N   N36       1.0  0.7704376804196897  0.7870956415193648  0.016710273537462704  1.0000
  N   N37       1.0  0.16484498821987612  0.891635354576074  0.426333616583463  1.0000
  N   N38       1.0  0.33515691919357243  0.39163496643339357  0.0736654890048811  1.0000
  N   N39       1.0  0.8351555214987914  0.10836558309424048  0.5736671789584022  1.0000
  N   N40       1.0  0.6648464751621718  0.6083642270552758  0.9263327040442775  1.0000
  N   N41       1.0  0.15159086661353166  0.6264023535215557  0.0982049931187987  1.0000
  N   N42       1.0  0.3484090194015295  0.12640147567761773  0.40179360083636334  1.0000
  N   N43       1.0  0.8484082490659332  0.37359945623727936  0.9017933727282497  1.0000
  N   N44       1.0  0.6515914999743584  0.8735985899031675  0.5982064485170611  1.0000
  N   N45       1.0  0.20658209806218514  0.864016114862082  0.17844037866586152  1.0000
  N   N46       1.0  0.29341702023931054  0.364016956429701  0.3215605697550288  1.0000
  N   N47       1.0  0.793416998309617  0.13598307863045994  0.8215594795570241  1.0000
  N   N48       1.0  0.7065820664752637  0.6359831091523702  0.6784400346562975  1.0000
