data_image0
_chemical_formula_structural       Hg4H48C60I8N16
_chemical_formula_sum              "Hg4 H48 C60 I8 N16"
_cell_length_a       9.91959185860357
_cell_length_b       12.91454442091244
_cell_length_c       13.554553239135041
_cell_angle_alpha    90.00050425942011
_cell_angle_beta     90.00003107798344
_cell_angle_gamma    96.62187077571018

_space_group_name_H-M_alt    "P 1"
_space_group_IT_number       1

loop_
  _space_group_symop_operation_xyz
  'x, y, z'

loop_
  _atom_site_type_symbol
  _atom_site_label
  _atom_site_symmetry_multiplicity
  _atom_site_fract_x
  _atom_site_fract_y
  _atom_site_fract_z
  _atom_site_occupancy
  Hg  Hg1       1.0  0.8404988938799036  0.5422168851734526  0.8154214252947584  1.0000
  Hg  Hg2       1.0  0.6594959907379588  0.9577791737091916  0.3154243600653146  1.0000
  Hg  Hg3       1.0  0.15949893553268876  0.4577858027357848  0.1845783063929716  1.0000
  Hg  Hg4       1.0  0.34050083088981603  0.04222351631629101  0.6845746338627592  1.0000
  H   H1        1.0  0.039804448381012505  0.7052323906536416  0.6594323015788817  1.0000
  H   H2        1.0  0.4601963076401958  0.7947663916641402  0.15943398720420987  1.0000
  H   H3        1.0  0.9602039379633992  0.29477339413473663  0.3405681678834257  1.0000
  H   H4        1.0  0.5398019306945584  0.20523239654124845  0.84056721998617  1.0000
  H   H5        1.0  0.574082739188178  0.378420203742195  0.4384219071867862  1.0000
  H   H6        1.0  0.9259181113077516  0.12157872159674105  0.9384248370676929  1.0000
  H   H7        1.0  0.4259225536426996  0.6215785696598884  0.5615866775996281  1.0000
  H   H8        1.0  0.0740806061185566  0.8784231846849764  0.0615771078953387  1.0000
  H   H9        1.0  0.6344065969380921  0.44074747373100825  0.6086985418152082  1.0000
  H   H10       1.0  0.8655927753600068  0.05924990821091571  0.10869673675959042  1.0000
  H   H11       1.0  0.3655956229382085  0.5592575442956758  0.3913100429968069  1.0000
  H   H12       1.0  0.1344125670654251  0.9407426268909946  0.891304470405956  1.0000
  H   H13       1.0  0.9094383067579483  0.5799694656600637  0.3135437502550714  1.0000
  H   H14       1.0  0.5905645163174144  0.9200257790714377  0.8135475771654798  1.0000
  H   H15       1.0  0.0905585148730026  0.42003322437930996  0.6864581947108804  1.0000
  H   H16       1.0  0.4094351387259038  0.0799691073207995  0.18645731880614852  1.0000
  H   H17       1.0  0.710431077941088  0.44572087277886424  0.2941592547692339  1.0000
  H   H18       1.0  0.7895656703414388  0.054278261765425384  0.7941630408337945  1.0000
  H   H19       1.0  0.28956716039843405  0.554277915447365  0.7058463789779594  1.0000
  H   H20       1.0  0.21042889617687166  0.9457228734804275  0.20583964188464424  1.0000
  H   H21       1.0  0.8201770739799911  0.7543948530502435  0.3861355699818745  1.0000
  H   H22       1.0  0.6798192598271697  0.7455971902841514  0.8861357545291214  1.0000
  H   H23       1.0  0.1798235392369207  0.2456062694529848  0.6138619484214376  1.0000
  H   H24       1.0  0.3201822414082187  0.25440315061239727  0.1138684037062987  1.0000
  H   H25       1.0  0.30578688693169903  0.9065583719693748  0.4570495466561938  1.0000
  H   H26       1.0  0.194203643258966  0.5934315388524497  0.9570440327065484  1.0000
  H   H27       1.0  0.6942077993561211  0.09344354278079693  0.5429501850276709  1.0000
  H   H28       1.0  0.8057932279641589  0.40656491287633406  0.0429483213601216  1.0000
  H   H29       1.0  0.12261106506946358  0.6791623641935302  0.3943198189368929  1.0000
  H   H30       1.0  0.37739475653798843  0.8208355010575374  0.8943229270768358  1.0000
  H   H31       1.0  0.877387293035596  0.32083720351965184  0.6056791749783771  1.0000
  H   H32       1.0  0.6226083513417037  0.17916873529648575  0.1056782801373899  1.0000
  H   H33       1.0  0.16988265211109171  0.7504701256250641  0.50456795171813  1.0000
  H   H34       1.0  0.33011990580021694  0.7495279738380137  0.004569943512699101  1.0000
  H   H35       1.0  0.8301180808777103  0.24953177639290663  0.4954288289290077  1.0000
  H   H36       1.0  0.6698783325313613  0.25047081435348423  0.9954283126398027  1.0000
  H   H37       1.0  0.9774349363556067  0.12319685251968343  0.2926743195334822  1.0000
  H   H38       1.0  0.5225646421280814  0.3767944643352835  0.7926681655420398  1.0000
  H   H39       1.0  0.02256318220089072  0.8768011561431734  0.707321723337323  1.0000
  H   H40       1.0  0.47744290580352816  0.6232058638082237  0.20732861509983994  1.0000
  H   H41       1.0  0.37504123574674947  0.09206578965206091  0.4124146441155149  1.0000
  H   H42       1.0  0.1249557873812535  0.40792462759474557  0.9124065789683018  1.0000
  H   H43       1.0  0.6249526823056043  0.9079376862681628  0.5875880386126228  1.0000
  H   H44       1.0  0.8750491461148754  0.5920718071797566  0.0875865128593745  1.0000
  H   H45       1.0  0.21570861312636677  0.19786444535293413  0.3301939770576112  1.0000
  H   H46       1.0  0.28428746472612687  0.30212675889232804  0.8301850869482835  1.0000
  H   H47       1.0  0.7842860731614607  0.8021374693972448  0.6698057546262535  1.0000
  H   H48       1.0  0.7157177083161769  0.6978712349220757  0.16980874264545062  1.0000
  C   C1        1.0  0.8078510164336093  0.5445253959270249  0.5567356615646945  1.0000
  C   C2        1.0  0.6921474620941767  0.9554689983160715  0.0567371144137496  1.0000
  C   C3        1.0  0.1921481304833463  0.45548586670341973  0.4432684967161151  1.0000
  C   C4        1.0  0.30785663300265037  0.0445219798726058  0.9432648305044753  1.0000
  C   C5        1.0  0.9705762014505693  0.6569833752576743  0.6115214464701069  1.0000
  C   C6        1.0  0.5294256579373028  0.8430130874969141  0.11152189033312962  1.0000
  C   C7        1.0  0.029423883074663617  0.343020867445084  0.3884775474651293  1.0000
  C   C8        1.0  0.4705736377855629  0.1569794603302627  0.8884807923502012  1.0000
  C   C9        1.0  0.8833689935763189  0.5839543128868884  0.47335131589628804  1.0000
  C   C10       1.0  0.6166297831450221  0.9160401064711368  0.9733602840299584  1.0000
  C   C11       1.0  0.11662919515831761  0.4160507135943592  0.5266521045986822  1.0000
  C   C12       1.0  0.38336826525002715  0.08395088444627422  0.0266438741655293  1.0000
  C   C13       1.0  0.6616483461590973  0.43639523211265896  0.4497556289624143  1.0000
  C   C14       1.0  0.83835240896078  0.06360302039118443  0.9497521351387096  1.0000
  C   C15       1.0  0.33835564974066296  0.5636082226416335  0.5502536936028619  1.0000
  C   C16       1.0  0.161649620966287  0.9363942003058411  0.05025054756477942  1.0000
  C   C17       1.0  0.6944824027182364  0.4705187614294318  0.5452749727227797  1.0000
  C   C18       1.0  0.8055193276846921  0.029481137214268902  0.045281009156966  1.0000
  C   C19       1.0  0.3055160255641596  0.5294878240986663  0.45473066105719084  1.0000
  C   C20       1.0  0.19448085605030493  0.9705106289784384  0.954722411282731  1.0000
  C   C21       1.0  0.8509233582962281  0.5499508299702427  0.3776224490279816  1.0000
  C   C22       1.0  0.6490792434280477  0.9500426795171111  0.8776206491866603  1.0000
  C   C23       1.0  0.14907180708712528  0.4500542028736377  0.6223817092258841  1.0000
  C   C24       1.0  0.35092621877405605  0.049950635120381996  0.12238424677951801  1.0000
  C   C25       1.0  0.7389144233811535  0.4747943006032927  0.36762251937751245  1.0000
  C   C26       1.0  0.7610882902403729  0.025203953886460802  0.8676267877507586  1.0000
  C   C27       1.0  0.26108530183156375  0.5252076035691288  0.6323816388641248  1.0000
  C   C28       1.0  0.23891136479739572  0.9747909324814619  0.1323729439045849  1.0000
  C   C29       1.0  0.10045631671820843  0.9129700508603592  0.4019278340084824  1.0000
  C   C30       1.0  0.3995394930284277  0.5870216689365719  0.9019267744685566  1.0000
  C   C31       1.0  0.8995429293926234  0.08702873519057867  0.5980659955873976  1.0000
  C   C32       1.0  0.6004592243875563  0.4129802372999905  0.09806557962138382  1.0000
  C   C33       1.0  0.007237016824632315  0.9735723633037808  0.3566259497001738  1.0000
  C   C34       1.0  0.492752698273506  0.526412704387198  0.8566214673232013  1.0000
  C   C35       1.0  0.9927626382107491  0.026422523053724913  0.6433715686767629  1.0000
  C   C36       1.0  0.5072469071553982  0.47358842021838404  0.14337236228256964  1.0000
  C   C37       1.0  0.9000712492192873  0.8192346649702459  0.3819158739267935  1.0000
  C   C38       1.0  0.5999225808394967  0.6807542247833073  0.8819125312073413  1.0000
  C   C39       1.0  0.0999252626929135  0.18075944823515042  0.6180831199652133  1.0000
  C   C40       1.0  0.40007150658169616  0.3192437923618954  0.11808424942216082  1.0000
  C   C41       1.0  0.23393543746970377  0.9533427133655864  0.42297999650141094  1.0000
  C   C42       1.0  0.2660584020320158  0.5466492088625685  0.9229733805550567  1.0000
  C   C43       1.0  0.7660641679663553  0.0466584112712525  0.5770204729395872  1.0000
  C   C44       1.0  0.7339409638507136  0.453350356703105  0.07701971128465603  1.0000
  C   C45       1.0  0.08474946791316285  0.7234560362170728  0.4557488017900582  1.0000
  C   C46       1.0  0.4152529835179876  0.7765392957035431  0.955750815304846  1.0000
  C   C47       1.0  0.9152504968346092  0.27654742694662815  0.5442457655850745  1.0000
  C   C48       1.0  0.5847454943621456  0.22346105153827275  0.044250391892127504  1.0000
  C   C49       1.0  0.047461667276131395  0.07716992912475723  0.33006875553197557  1.0000
  C   C50       1.0  0.45252978031310687  0.42281738485520043  0.8300653723129585  1.0000
  C   C51       1.0  0.952533427925907  0.9228280858868416  0.6699250740598474  1.0000
  C   C52       1.0  0.5474692262523533  0.5771798421593034  0.16992845727632752  1.0000
  C   C53       1.0  0.27188284278066277  0.05709166905015191  0.3971111321004201  1.0000
  C   C54       1.0  0.2281133791617904  0.44290016528056947  0.8971070904560179  1.0000
  C   C55       1.0  0.7281118435023898  0.9429102456791799  0.602884173026631  1.0000
  C   C56       1.0  0.7718872836512601  0.5570947189294274  0.10288452584536151  1.0000
  C   C57       1.0  0.18059519537539603  0.11770784929365871  0.3509645136425378  1.0000
  C   C58       1.0  0.3193955991349283  0.38228824035914505  0.8509585238411077  1.0000
  C   C59       1.0  0.8193994909116356  0.8822940654530458  0.6490344802818555  1.0000
  C   C60       1.0  0.6806065009543827  0.6177159980868085  0.14903678129716985  1.0000
  I   I1        1.0  0.9799479832675002  0.7198799469209549  0.8896282595823595  1.0000
  I   I2        1.0  0.5200491964701823  0.7801175859322457  0.38962964712318643  1.0000
  I   I3        1.0  0.020051502399042014  0.2801203982115582  0.1103751608932129  1.0000
  I   I4        1.0  0.4799516562944888  0.21988509561783331  0.6103700845651261  1.0000
  I   I5        1.0  0.8372637875607507  0.3315461783681926  0.8164725851965076  1.0000
  I   I6        1.0  0.6627428470561723  0.16845158601264396  0.3164716163656536  1.0000
  I   I7        1.0  0.16274512747612851  0.6684564862241377  0.1835271464933328  1.0000
  I   I8        1.0  0.3372685626474592  0.8315541924478325  0.6835354929324425  1.0000
  N   N1        1.0  0.98551650973927  0.6566957133720949  0.5111750940593822  1.0000
  N   N2        1.0  0.5144917089797685  0.8432966716438345  0.011173321100272903  1.0000
  N   N3        1.0  0.014488733483546026  0.34330929827112305  0.4888283264369236  1.0000
  N   N4        1.0  0.48551072986786886  0.15669664934240052  0.9888293615869301  1.0000
  N   N5        1.0  0.8663885148920583  0.5916115137242317  0.6413841790826639  1.0000
  N   N6        1.0  0.6336089687412283  0.9083891384041681  0.14138668882777952  1.0000
  N   N7        1.0  0.1336122386699969  0.408403644367148  0.3586177659364154  1.0000
  N   N8        1.0  0.3663931107875412  0.09160184402394832  0.8586152560900615  1.0000
  N   N9        1.0  0.02831478118287832  0.8151297068154902  0.41702418091094273  1.0000
  N   N10       1.0  0.471678277262356  0.6848637205181518  0.9170232338411285  1.0000
  N   N11       1.0  0.9716859518083113  0.18487219521289694  0.5829748130146016  1.0000
  N   N12       1.0  0.5283214479416287  0.315138183616071  0.0829728090463462  1.0000
  N   N13       1.0  0.8834674856342914  0.9121844887302044  0.3457962950127182  1.0000
  N   N14       1.0  0.6165247301791366  0.5878071832667049  0.8457966050050347  1.0000
  N   N15       1.0  0.116533247352919  0.08781741328081692  0.6541990101154767  1.0000
  N   N16       1.0  0.3834760028120455  0.41219471876168967  0.15420238892050261  1.0000
