data_image0
_chemical_formula_structural       Zn4H7C13N3O13
_chemical_formula_sum              "Zn4 H7 C13 N3 O13"
_cell_length_a       10.836393902846167
_cell_length_b       10.880009187555652
_cell_length_c       10.92234887590471
_cell_angle_alpha    85.89590851351927
_cell_angle_beta     81.55040835446319
_cell_angle_gamma    82.24955231654194

_space_group_name_H-M_alt    "P 1"
_space_group_IT_number       1

loop_
  _space_group_symop_operation_xyz
  'x, y, z'

loop_
  _atom_site_type_symbol
  _atom_site_label
  _atom_site_symmetry_multiplicity
  _atom_site_fract_x
  _atom_site_fract_y
  _atom_site_fract_z
  _atom_site_occupancy
  Zn  Zn1       1.0  0.591438644063942  0.3782789169835255  0.609787097288013  1.0000
  Zn  Zn2       1.0  0.6116894935156765  0.5866204028815221  0.38878209558878035  1.0000
  Zn  Zn3       1.0  0.37701742612468797  0.6198106458787082  0.6061979360499237  1.0000
  Zn  Zn4       1.0  0.4065699861818358  0.40534394853506234  0.4120516195434191  1.0000
  H   H1        1.0  0.4911725492753192  0.9908309904371891  0.6302542440179194  1.0000
  H   H2        1.0  0.9771356569829666  0.6508129232731578  0.5153340639486926  1.0000
  H   H3        1.0  0.013021053699667086  0.36453602979232624  0.5053094667519672  1.0000
  H   H4        1.0  0.4873453055631671  0.9433385116107262  0.2578911987702028  1.0000
  H   H5        1.0  0.4734132226161877  0.09884991593650481  0.30197795246927933  1.0000
  H   H6        1.0  0.3083475079171052  0.4831114153737702  0.1217562153193441  1.0000
  H   H7        1.0  0.2566279302589862  0.504134940976087  0.9732563500451407  1.0000
  C   C1        1.0  0.5324986289553095  0.49428176164912707  0.1749927151799895  1.0000
  C   C2        1.0  0.4837493215197953  0.037267389330075715  0.5397756801521183  1.0000
  C   C3        1.0  0.47662205966945254  0.9663362316152876  0.4424671950497725  1.0000
  C   C4        1.0  0.4448237127180119  0.4968231162788401  0.975001463499389  1.0000
  C   C5        1.0  0.6680493550589902  0.5134331375669775  0.9751953211124088  1.0000
  C   C6        1.0  0.5467177359961684  0.497832782478291  0.03918901234008129  1.0000
  C   C7        1.0  0.02561780631808829  0.5563688852651438  0.5098382304309794  1.0000
  C   C8        1.0  0.9637079485734361  0.45883092873962283  0.5036584917327787  1.0000
  C   C9        1.0  0.46190543385496596  0.5040066739138357  0.8344194631878921  1.0000
  C   C10       1.0  0.8260516927762327  0.4708977953582549  0.5020171819857779  1.0000
  C   C11       1.0  0.16296342398317168  0.5388516226018824  0.5155472154343386  1.0000
  C   C12       1.0  0.482634957451083  0.8272983413552882  0.4652499154992639  1.0000
  C   C13       1.0  0.4936047238188906  0.16843561973710314  0.52668850517761  1.0000
  N   N1        1.0  0.46989732283136476  0.0067861264682065004  0.32377385350505256  1.0000
  N   N2        1.0  0.32616263498459125  0.49029505530564443  0.027346336997069887  1.0000
  N   N3        1.0  0.769034924579131  0.5275173781975443  0.9262593897676084  1.0000
  O   O1        1.0  0.49478516552041907  0.5010483268833072  0.5083274128890665  1.0000
  O   O2        1.0  0.5370783960946923  0.7632670087136902  0.3744603908459041  1.0000
  O   O3        1.0  0.47080656917029995  0.22875424383006768  0.4231392140400486  1.0000
  O   O4        1.0  0.4333668434305268  0.7865090448829409  0.5705059958427157  1.0000
  O   O5        1.0  0.5255529865912508  0.21952600271246336  0.6181975217257119  1.0000
  O   O6        1.0  0.7717395074979266  0.3786978504458177  0.5515950387084203  1.0000
  O   O7        1.0  0.2259588301463396  0.43938772267213017  0.4730638016209596  1.0000
  O   O8        1.0  0.6253995759325194  0.5177378972563886  0.2254208236603432  1.0000
  O   O9        1.0  0.37587286355116595  0.5739068923527385  0.7856693375142356  1.0000
  O   O10       1.0  0.42652655553636987  0.4677088647583646  0.23586532779552274  1.0000
  O   O11       1.0  0.5561189661064532  0.43738529521309755  0.7814844832932409  1.0000
  O   O12       1.0  0.7743932206335133  0.5698619744470366  0.4503931246296061  1.0000
  O   O13       1.0  0.206261448879836  0.6258787274296226  0.5624922277611546  1.0000
