data_image0
_chemical_formula_structural       V6Cu2H18C20N6O17
_chemical_formula_sum              "V6 Cu2 H18 C20 N6 O17"
_cell_length_a       7.301183333620413
_cell_length_b       10.073766636121011
_cell_length_c       10.635068092615704
_cell_angle_alpha    82.33242217001882
_cell_angle_beta     69.75687223701148
_cell_angle_gamma    87.74817502783166

_space_group_name_H-M_alt    "P 1"
_space_group_IT_number       1

loop_
  _space_group_symop_operation_xyz
  'x, y, z'

loop_
  _atom_site_type_symbol
  _atom_site_label
  _atom_site_symmetry_multiplicity
  _atom_site_fract_x
  _atom_site_fract_y
  _atom_site_fract_z
  _atom_site_occupancy
  V   V1        1.0  0.09096900152753308  0.8992405205917534  0.5821100151057124  1.0000
  V   V2        1.0  0.9090358052181176  0.10076136581032809  0.41788647323028266  1.0000
  V   V3        1.0  0.43380647132138245  0.06822453438285687  0.3809153965513445  1.0000
  V   V4        1.0  0.5661939871127686  0.9317793649140853  0.6190818517939434  1.0000
  V   V5        1.0  0.8710529871508116  0.9496505903250563  0.8978226574175069  1.0000
  V   V6        1.0  0.1289459303958509  0.05034728518857889  0.1021729270233251  1.0000
  Cu  Cu1       1.0  0.43438905508690334  0.823561846416005  0.1931640613461952  1.0000
  Cu  Cu2       1.0  0.5656142569917008  0.176438045631933  0.8068339824811802  1.0000
  H   H1        1.0  0.4098389235436101  0.40659427227692635  0.31707926254780017  1.0000
  H   H2        1.0  0.5901614454213444  0.5934056604918964  0.6829251116581859  1.0000
  H   H3        1.0  0.6526434786056825  0.3842347755573171  0.3936182040447775  1.0000
  H   H4        1.0  0.3473569215729029  0.6157661359774166  0.6063822726208343  1.0000
  H   H5        1.0  0.9337276214264063  0.4847632617017794  0.4259117987119368  1.0000
  H   H6        1.0  0.06627271335322149  0.5152315999709244  0.5740829083820318  1.0000
  H   H7        1.0  0.9997849248316368  0.7351845540561397  0.3547164626073923  1.0000
  H   H8        1.0  0.00022707600656699913  0.26481132363863213  0.645281942157105  1.0000
  H   H9        1.0  0.7729059755497686  0.8664473602921986  0.2560037293863786  1.0000
  H   H10       1.0  0.22710903749274536  0.13355554533756478  0.7439968003758466  1.0000
  H   H11       1.0  0.3259949511358045  0.8047213842316336  0.9650808953391349  1.0000
  H   H12       1.0  0.6739951262348071  0.1952725325509945  0.03492199654087365  1.0000
  H   H13       1.0  0.1941629145868973  0.6350832197691715  0.8689197907667889  1.0000
  H   H14       1.0  0.8058242545753912  0.364912735294098  0.13108821975615836  1.0000
  H   H15       1.0  0.15739495691827443  0.3945898751350255  0.9849494625265863  1.0000
  H   H16       1.0  0.8425951551176566  0.6054070637194825  0.015055843900306322  1.0000
  H   H17       1.0  0.25502890509736176  0.33926909730556787  0.18691098462808506  1.0000
  H   H18       1.0  0.7449655938471195  0.6607288450076749  0.8130950358585239  1.0000
  C   C1        1.0  0.5640561701637097  0.5716218092819431  0.3081322904432682  1.0000
  C   C2        1.0  0.4359471571617064  0.42838010891713896  0.6918692440377612  1.0000
  C   C3        1.0  0.6832121177425351  0.4911506133755167  0.3662659923796027  1.0000
  C   C4        1.0  0.3167883483150219  0.5088542989970007  0.6337330012925193  1.0000
  C   C5        1.0  0.8404131248578822  0.5486008271437939  0.38331022125657904  1.0000
  C   C6        1.0  0.15959159659028896  0.45139606249976777  0.6166888261796688  1.0000
  C   C7        1.0  0.8778586515153319  0.6858333596934469  0.3432709364391401  1.0000
  C   C8        1.0  0.12214909393225781  0.3141705407302807  0.6567274145612317  1.0000
  C   C9        1.0  0.7537479547877693  0.7593550498359036  0.28841531372963664  1.0000
  C   C10       1.0  0.24626115726063347  0.24064386206023863  0.7115871335710225  1.0000
  C   C11       1.0  0.30331457495906017  0.701183136376521  0.01227001617444763  1.0000
  C   C12       1.0  0.6966770278122213  0.2988158025504005  0.9877346752389329  1.0000
  C   C13       1.0  0.2307290469312377  0.6059087855511008  0.9595663713570702  1.0000
  C   C14       1.0  0.7692580602837894  0.39408316295610746  0.04044218168149166  1.0000
  C   C15       1.0  0.21005668427435606  0.47371719306777027  0.0243952171721205  1.0000
  C   C16       1.0  0.7899378340886399  0.5262817451662085  0.9756097272077116  1.0000
  C   C17       1.0  0.26385338305985323  0.4417611048467619  0.13704143918603512  1.0000
  C   C18       1.0  0.7361396212175749  0.5582348431123377  0.862966136791954  1.0000
  C   C19       1.0  0.3426164720859433  0.5433984364569964  0.18265225923981637  1.0000
  C   C20       1.0  0.657382444980712  0.45660148808089207  0.8173505777661348  1.0000
  N   N1        1.0  0.41373705704597796  0.5090022748349198  0.28707837453016083  1.0000
  N   N2        1.0  0.5862633352692016  0.49099864813636873  0.71292398309118  1.0000
  N   N3        1.0  0.5979705354559925  0.7044959243313471  0.27248907096804237  1.0000
  N   N4        1.0  0.40203576178500094  0.29550898665527814  0.7275104286369896  1.0000
  N   N5        1.0  0.35543949333386127  0.6706727040496289  0.12290550691943741  1.0000
  N   N6        1.0  0.6445564383304047  0.329323226061696  0.8770995005914061  1.0000
  O   O1        1.0  0.6826953363948576  0.8562326790023106  0.9911931057989918  1.0000
  O   O2        1.0  0.3173007120205256  0.1437682021213149  0.00880181878866179  1.0000
  O   O3        1.0  0.2048254687090818  0.9124066394791793  0.17605286018033442  1.0000
  O   O4        1.0  0.7951778551646383  0.08759323541392659  0.8239423622134368  1.0000
  O   O5        1.0  0.5074607601206579  0.9914511249912291  0.24108938134814661  1.0000
  O   O6        1.0  0.4925425789998739  0.008550776053020601  0.7589093316992861  1.0000
  O   O7        1.0  0.45040595718442217  0.23085569491883717  0.34038341776157216  1.0000
  O   O8        1.0  0.5495959843616587  0.7691491913749572  0.6596114702433766  1.0000
  O   O9        1.0  0.15319835060284245  0.04451245525652329  0.42699769759443745  1.0000
  O   O10       1.0  0.8468035405510931  0.9554894318385082  0.572998537775092  1.0000
  O   O11       1.0  0.33773411401371334  0.9667198567039673  0.5654526801449008  1.0000
  O   O12       1.0  0.6622649387425737  0.03328806379120411  0.43454625039620964  1.0000
  O   O13       1.0  0.1369843630510914  0.7604104662711748  0.5182404352072538  1.0000
  O   O14       1.0  0.8630263060916332  0.23959239751092548  0.4817526615212843  1.0000
  O   O15       1.0  0.0163304362356271  0.856484740268918  0.7610663676243162  1.0000
  O   O16       1.0  0.9836699255859286  0.14351213040009  0.23892900868970918  1.0000
  O   O17       1.0  4.147879089100386e-06  0.9999989072185042  0.9999945037016361  1.0000
