data_image0
_chemical_formula_structural       Zn2H24C20N4O10
_chemical_formula_sum              "Zn2 H24 C20 N4 O10"
_cell_length_a       5.2092896774094175
_cell_length_b       9.19728571950232
_cell_length_c       14.714530323583675
_cell_angle_alpha    84.17476633004611
_cell_angle_beta     85.3446854038386
_cell_angle_gamma    79.66541859337502

_space_group_name_H-M_alt    "P 1"
_space_group_IT_number       1

loop_
  _space_group_symop_operation_xyz
  'x, y, z'

loop_
  _atom_site_type_symbol
  _atom_site_label
  _atom_site_symmetry_multiplicity
  _atom_site_fract_x
  _atom_site_fract_y
  _atom_site_fract_z
  _atom_site_occupancy
  Zn  Zn1       1.0  0.7623987431281164  0.6188122244831432  0.653231028249124  1.0000
  Zn  Zn2       1.0  0.23760154516779153  0.3811875483537648  0.3467693807969142  1.0000
  H   H1        1.0  0.6984523234490752  0.15560321079524897  0.5986568231948015  1.0000
  H   H2        1.0  0.30154603821859643  0.8443965642120613  0.4013436372960158  1.0000
  H   H3        1.0  0.4625883892975864  0.26003463826504  0.5286271505912057  1.0000
  H   H4        1.0  0.5374122327547326  0.739964024997242  0.4713733193625132  1.0000
  H   H5        1.0  0.12126553852449722  0.26023775010209965  0.6559362090955787  1.0000
  H   H6        1.0  0.878734760527017  0.739762022547545  0.3440635200634433  1.0000
  H   H7        1.0  0.35426794512756726  0.16948577477347726  0.7330492808964878  1.0000
  H   H8        1.0  0.6457323431683407  0.8305139980634305  0.26695112814955735  1.0000
  H   H9        1.0  0.0746547949356753  0.001753897515222  0.6695196934142589  1.0000
  H   H10       1.0  0.925343232975585  0.9982469870667148  0.3304807061688849  1.0000
  H   H11       1.0  0.23259318021975867  0.03344595434630549  0.5618800509927058  1.0000
  H   H12       1.0  0.7674051922035191  0.966553820473741  0.43811972961108847  1.0000
  H   H13       1.0  0.0335990719716364  0.7846281632638109  0.7632998945385411  1.0000
  H   H14       1.0  0.9664008825678606  0.21537271914772294  0.2367004535998234  1.0000
  H   H15       1.0  0.8544742150629078  0.3621864078272452  0.7962718450863306  1.0000
  H   H16       1.0  0.14552414660476393  0.6378133671800652  0.20372861540448645  1.0000
  H   H17       1.0  0.15524402691357864  0.2860641709421684  0.9261177962929568  1.0000
  H   H18       1.0  0.8447546685105038  0.7139344944905157  0.07388272510553409  1.0000
  H   H19       1.0  0.34807112401502144  0.7261234439579879  0.8891980068618254  1.0000
  H   H20       1.0  0.6519291642808867  0.27387632887891994  0.11080240218421983  1.0000
  H   H21       1.0  0.1843629228009861  0.7343908998677973  0.5929627431463658  1.0000
  H   H22       1.0  0.8156373654949222  0.26560887296910346  0.40703766589967233  1.0000
  H   H23       1.0  0.11170523654428877  0.640156549821171  0.5150272522983315  1.0000
  H   H24       1.0  0.8882973121362738  0.3598421112707015  0.4849731662106081  1.0000
  C   C1        1.0  0.5885407183381445  0.37860342611817527  0.6289236161820926  1.0000
  C   C2        1.0  0.41145958071336947  0.6213963465314619  0.3710761129769297  1.0000
  C   C3        1.0  0.5178622112805015  0.2390480205284149  0.5999783474902785  1.0000
  C   C4        1.0  0.48213966988723195  0.7609528597127166  0.400021949203314  1.0000
  C   C5        1.0  0.30328884064019945  0.17943968658046566  0.6614436843344365  1.0000
  C   C6        1.0  0.6967111138992976  0.8205611958310682  0.3385566638039351  1.0000
  C   C7        1.0  0.2583642067006622  0.02996429986330899  0.6357892518057326  1.0000
  C   C8        1.0  0.7416341764782288  0.9700354747694673  0.3642098489110453  1.0000
  C   C9        1.0  0.47578714567298863  0.9017589373379733  0.6603962930196516  1.0000
  C   C10       1.0  0.5242096123672367  0.09823973045238428  0.3396049597106271  1.0000
  C   C11       1.0  0.07162226744834749  0.6755991906918836  0.8007956791599754  1.0000
  C   C12       1.0  0.9283757712185192  0.3244016937027893  0.19920404053614504  1.0000
  C   C13       1.0  0.9685671712107434  0.4381269224443827  0.8193444374647358  1.0000
  C   C14       1.0  0.031433127840770715  0.5618728502052618  0.1806552916942863  1.0000
  C   C15       1.0  0.1330353943943194  0.3970515027158328  0.8907604817887249  1.0000
  C   C16       1.0  0.8669649046571947  0.6029482699338117  0.10923924737030433  1.0000
  C   C17       1.0  0.2737542971298764  0.500551308844173  0.9164213897589237  1.0000
  C   C18       1.0  0.7262460019216448  0.4994484638054713  0.08357833940009843  1.0000
  C   C19       1.0  0.24031755369790622  0.643528410654909  0.8708735900591124  1.0000
  C   C20       1.0  0.7596827453536079  0.3564713619947355  0.12912613909990972  1.0000
  N   N1        1.0  0.9404498538525913  0.5744019190123878  0.7745395867737488  1.0000
  N   N2        1.0  0.05954850781507296  0.4255978559949227  0.22546087371706855  1.0000
  N   N3        1.0  0.44475532379541954  0.4501816592725801  0.9874324200563082  1.0000
  N   N4        1.0  0.5552449752561018  0.5498181133770642  0.012567309102713906  1.0000
  O   O1        1.0  0.7531681905984301  0.4445888898509549  0.575221430736626  1.0000
  O   O2        1.0  0.24684079472405787  0.5554075457677142  0.42477963514036093  1.0000
  O   O3        1.0  0.4997130082896177  0.43057787504973527  0.7030939036458508  1.0000
  O   O4        1.0  0.5002782707345118  0.5694263442055103  0.296904427887533  1.0000
  O   O5        1.0  0.034462169777214134  0.7020984310677674  0.5664043701159259  1.0000
  O   O6        1.0  0.9655377955178892  0.2979024511565028  0.4335952981354226  1.0000
  O   O7        1.0  0.6636782587085434  0.9160771842115734  0.7038213675326904  1.0000
  O   O8        1.0  0.33631977995832324  0.08392370018309948  0.2961783521634303  1.0000
  O   O9        1.0  0.44866476261388744  0.7734316280172207  0.6336530840980856  1.0000
  O   O10       1.0  0.5513335990537839  0.22656814699009686  0.36634737639273157  1.0000
