data_image0
_chemical_formula_structural       Zn2H58C66N2O44
_chemical_formula_sum              "Zn2 H58 C66 N2 O44"
_cell_length_a       14.480137820011455
_cell_length_b       15.14995933443116
_cell_length_c       15.819947683453195
_cell_angle_alpha    86.71334498695599
_cell_angle_beta     82.58020656853944
_cell_angle_gamma    93.13677106547152

_space_group_name_H-M_alt    "P 1"
_space_group_IT_number       1

loop_
  _space_group_symop_operation_xyz
  'x, y, z'

loop_
  _atom_site_type_symbol
  _atom_site_label
  _atom_site_symmetry_multiplicity
  _atom_site_fract_x
  _atom_site_fract_y
  _atom_site_fract_z
  _atom_site_occupancy
  Zn  Zn1       1.0  0.6045744228271631  0.5048007446608692  0.4995126638041469  1.0000
  Zn  Zn2       1.0  0.39468475724286384  0.49812763888107964  0.5001251942933891  1.0000
  H   H1        1.0  0.24612625570905075  0.41356970767568413  0.1857408862482401  1.0000
  H   H2        1.0  0.27157363823471314  0.5191799958517505  0.22813433683350579  1.0000
  H   H3        1.0  0.25223786970297374  0.4207412679631801  0.2977336003668042  1.0000
  H   H4        1.0  0.711747536563479  0.5434625625987975  0.7924641563585978  1.0000
  H   H5        1.0  0.6717187034972627  0.5540911742292136  0.6893050767373481  1.0000
  H   H6        1.0  0.7232298811585595  0.4544721888956928  0.7207304749743955  1.0000
  H   H7        1.0  0.9892949448865028  0.5049312334472518  0.32677294702632037  1.0000
  H   H8        1.0  0.10269709879028001  0.529989069144676  0.26554668175283064  1.0000
  H   H9        1.0  0.0165740147419129  0.6112777098763117  0.2711502275650304  1.0000
  H   H10       1.0  0.9842363413291013  0.34237776202031955  0.35873226281976395  1.0000
  H   H11       1.0  0.8674635847724588  0.29058555707482003  0.3820338420571331  1.0000
  H   H12       1.0  0.9660814576065423  0.23203874818584316  0.4079119899338721  1.0000
  H   H13       1.0  0.3445858995723371  0.7200302992950326  0.41920442574525646  1.0000
  H   H14       1.0  0.7112244156913052  0.21058692665771156  0.5442651887926288  1.0000
  H   H15       1.0  0.3181508326628659  0.28544655028038324  0.6341875111819987  1.0000
  H   H16       1.0  0.7642510383684569  0.7710334585965981  0.5183742952642871  1.0000
  H   H17       1.0  0.020737451738774806  0.4537834092972304  0.707932122108012  1.0000
  H   H18       1.0  0.1254243903473126  0.3945452660236341  0.7074052474468998  1.0000
  H   H19       1.0  0.012960300756795103  0.33717392586628847  0.7372843380862404  1.0000
  H   H20       1.0  0.003213100933677992  0.6102123420002028  0.6351016134305212  1.0000
  H   H21       1.0  0.9015259304508875  0.6742692627391091  0.6366738099205448  1.0000
  H   H22       1.0  0.0153519409501186  0.724340547703548  0.5957329608957592  1.0000
  H   H23       1.0  0.1761464317522012  0.5790627672456026  0.7224954545025852  1.0000
  H   H24       1.0  0.7654092208243103  0.6259883002852291  0.30454609073107963  1.0000
  H   H25       1.0  0.3524994473243553  0.7909184708176011  0.02595800153084578  1.0000
  H   H26       1.0  0.36050649259655637  0.871425335415658  0.9371145350318884  1.0000
  H   H27       1.0  0.4386483227714707  0.8810972790961029  0.01649739653749549  1.0000
  H   H28       1.0  0.6722611913680299  0.7900665836576336  0.007929789796712322  1.0000
  H   H29       1.0  0.6288167202112335  0.8712668488995091  0.07847420424738519  1.0000
  H   H30       1.0  0.5855252104121079  0.8618243530569314  0.9773263506294114  1.0000
  H   H31       1.0  0.7678240030753971  0.5427069483154554  0.0908404984984301  1.0000
  H   H32       1.0  0.8242253681473316  0.6489614020012905  0.056330739086490694  1.0000
  H   H33       1.0  0.7567891102521216  0.5910024070624117  0.9865792178275753  1.0000
  H   H34       1.0  0.2832909237420793  0.6464454144693689  0.0018315271535130028  1.0000
  H   H35       1.0  0.21111526902380723  0.6002382354024716  0.928683028460611  1.0000
  H   H36       1.0  0.20057776973498423  0.712864211235363  0.9563873174339577  1.0000
  H   H37       1.0  0.5538576550940776  0.4205415782414974  0.9438759625792628  1.0000
  H   H38       1.0  0.6242694814500709  0.46530057302224026  0.018157921241488895  1.0000
  H   H39       1.0  0.6761401733899106  0.4428581254747143  0.9124985640293204  1.0000
  H   H40       1.0  0.36190608951742587  0.40677444162685117  0.07206807072694228  1.0000
  H   H41       1.0  0.4013335832795379  0.4691786321439437  0.9724589670620603  1.0000
  H   H42       1.0  0.2811611795306206  0.46615130040648006  0.016729807210353415  1.0000
  H   H43       1.0  0.5700557225465491  0.9614888261558361  0.759316662245986  1.0000
  H   H44       1.0  0.6725186861795152  0.077523950053191  0.2400520924408056  1.0000
  H   H45       1.0  0.6876220137229654  0.7670655553505269  0.7133020133803356  1.0000
  H   H46       1.0  0.6948093242522406  0.341566926155302  0.2920795814895243  1.0000
  H   H47       1.0  0.5546850396255111  0.6984869523187313  0.32922691375961216  1.0000
  H   H48       1.0  0.5409889956005999  0.799512682660243  0.2673754504384007  1.0000
  H   H49       1.0  0.45696602370019707  0.7069022520837646  0.2702614685909168  1.0000
  H   H50       1.0  0.43122312490889675  0.2741332553801712  0.7459231699233229  1.0000
  H   H51       1.0  0.5241131915745926  0.3064797800575505  0.6618533825521524  1.0000
  H   H52       1.0  0.5174313853219275  0.19698580718282696  0.7133597920182166  1.0000
  H   H53       1.0  0.3555868508550973  0.018471279176942797  0.4274221295817  1.0000
  H   H54       1.0  0.32341252536917864  0.9158809930689953  0.3829531622465723  1.0000
  H   H55       1.0  0.3612424598595396  0.013189148624036298  0.31395197823361076  1.0000
  H   H56       1.0  0.28773882757929675  0.0874843313561726  0.612573571389504  1.0000
  H   H57       1.0  0.3258694857087222  0.08899989010011922  0.7158121859623776  1.0000
  H   H58       1.0  0.2881069188399509  0.9855477938298802  0.6768796281543175  1.0000
  C   C1        1.0  0.5271186651803179  0.6699444684814182  0.502834857848029  1.0000
  C   C2        1.0  0.507290016330643  0.33545391507021793  0.4973208295996372  1.0000
  C   C3        1.0  0.5589437321440158  0.9094970974416084  0.5672097936224816  1.0000
  C   C4        1.0  0.5698517808820969  0.1100060401772041  0.4260371392383888  1.0000
  C   C5        1.0  0.5596765168061779  0.8165019010643488  0.5692571590900002  1.0000
  C   C6        1.0  0.5602005252493287  0.2017806273348128  0.4236796128804129  1.0000
  C   C7        1.0  0.5251670766698098  0.7693552275212951  0.5044940729370779  1.0000
  C   C8        1.0  0.5080130714783168  0.23733007379802018  0.4935433804846028  1.0000
  C   C9        1.0  0.48935193366747143  0.8168080759298563  0.4385585856686731  1.0000
  C   C10       1.0  0.4615363736858031  0.18314814588757858  0.5618816195434064  1.0000
  C   C11       1.0  0.4934530616788351  0.9096364308263458  0.4340427325853398  1.0000
  C   C12       1.0  0.4640904081684881  0.09073679935714549  0.5602765155854428  1.0000
  C   C13       1.0  0.5277168104010813  0.9568685663775937  0.49833151406907217  1.0000
  C   C14       1.0  0.5226976991779112  0.05449552422128081  0.4947105322378746  1.0000
  C   C15       1.0  0.112533802832651  0.538500946132487  0.4350740689905876  1.0000
  C   C16       1.0  0.8923146525454301  0.4071743608222531  0.49826318240123874  1.0000
  C   C17       1.0  0.2081771430920298  0.5447449520301219  0.4408849297421611  1.0000
  C   C18       1.0  0.7946308341863644  0.4142106606568276  0.5118173766177705  1.0000
  C   C19       1.0  0.19381813703628845  0.42089936243738885  0.5368292165118119  1.0000
  C   C20       1.0  0.8144737132389184  0.5673810236291034  0.5020026681652823  1.0000
  C   C21       1.0  0.09606471396229918  0.42247360387571575  0.5475701678257607  1.0000
  C   C22       1.0  0.9099590277376991  0.5644086954215907  0.5089795023359827  1.0000
  C   C23       1.0  0.5081841278482955  0.4977003926593682  0.3359986905355683  1.0000
  C   C24       1.0  0.45714915265519107  0.5066772458839707  0.6611624249329822  1.0000
  C   C25       1.0  0.05363098176236753  0.480259083574488  0.4940978169767263  1.0000
  C   C26       1.0  0.9515911935952561  0.4835017847454067  0.5011011378749117  1.0000
  C   C27       1.0  0.5223413051288048  0.5040724636576854  0.2404031200836911  1.0000
  C   C28       1.0  0.4516390613567013  0.5356714849468887  0.7504972740449674  1.0000
  C   C29       1.0  0.44643031682202416  0.49332918606851445  0.1934765504846183  1.0000
  C   C30       1.0  0.5231804616695899  0.5222813152305575  0.8011972774411618  1.0000
  C   C31       1.0  0.4455939994174969  0.5474041766205672  0.117743408393352  1.0000
  C   C32       1.0  0.5273226693994603  0.5680884227363592  0.8757838534405522  1.0000
  C   C33       1.0  0.5213022950747758  0.6089427998520023  0.08856440931749178  1.0000
  C   C34       1.0  0.46346506685878114  0.6331218757653047  0.8980729572660878  1.0000
  C   C35       1.0  0.6052529178762568  0.6003164366725641  0.1247614095045932  1.0000
  C   C36       1.0  0.3867289955398335  0.6385301434333781  0.8511476285064106  1.0000
  C   C37       1.0  0.6062124084743061  0.5481044997101278  0.20022429702969896  1.0000
  C   C38       1.0  0.38074304049448676  0.5910954184621671  0.7788416742338384  1.0000
  C   C39       1.0  0.5144083976711826  0.6899706196274378  0.034349882819320506  1.0000
  C   C40       1.0  0.4791599707357933  0.7003217112393187  0.958966321903965  1.0000
  C   C41       1.0  0.2811001464698111  0.4481108190432508  0.23333583619547937  1.0000
  C   C42       1.0  0.6801922945347131  0.5077543953454294  0.743357592791078  1.0000
  C   C43       1.0  0.0450037902785283  0.5570192372254537  0.3063189694179371  1.0000
  C   C44       1.0  0.9366493139992971  0.29687720648798427  0.40328562644818067  1.0000
  C   C45       1.0  0.26690828949239187  0.6219228105801448  0.39261276230730857  1.0000
  C   C46       1.0  0.7357457406866744  0.33353931410054827  0.55217752315815  1.0000
  C   C47       1.0  0.2370851428020232  0.3359413451518946  0.5627113051829581  1.0000
  C   C48       1.0  0.7872334367160577  0.658636521960588  0.47592869999621706  1.0000
  C   C49       1.0  0.052212406110932405  0.3902879032169223  0.6955992626631015  1.0000
  C   C50       1.0  0.9702280257562422  0.6633290174460456  0.6016624017782917  1.0000
  C   C51       1.0  0.3015293526761199  0.6120686897933324  0.7295859099571159  1.0000
  C   C52       1.0  0.6924314485710215  0.5453932369667313  0.24399330476093445  1.0000
  C   C53       1.0  0.40035635700630223  0.8347227387427836  0.9804070016976069  1.0000
  C   C54       1.0  0.610721459681905  0.8254134727972228  0.031120893736982663  1.0000
  C   C55       1.0  0.7620220655702428  0.6051205628195289  0.053405452995640666  1.0000
  C   C56       1.0  0.24939353876056458  0.6606984566585296  0.9446293489610723  1.0000
  C   C57       1.0  0.6140441677549335  0.46548727392914907  0.9506107679791995  1.0000
  C   C58       1.0  0.3528126979259767  0.46669948731772587  0.0321878701473821  1.0000
  C   C59       1.0  0.5881092226575717  0.9605611231187153  0.6388569568300609  1.0000
  C   C60       1.0  0.6320577831693159  0.0692369460461109  0.35832995988262434  1.0000
  C   C61       1.0  0.5925269746753374  0.7662365717707047  0.6425454173666054  1.0000
  C   C62       1.0  0.59323454771355  0.2668169936555031  0.34789435646324307  1.0000
  C   C63       1.0  0.5044042635510878  0.7429525025610673  0.3065743063237746  1.0000
  C   C64       1.0  0.4767803588458578  0.25119523999842386  0.6918619707676682  1.0000
  C   C65       1.0  0.3703891659164287  0.9762411536811796  0.3735141740526941  1.0000
  C   C66       1.0  0.32389319790237187  0.05087272673073781  0.6590921033077206  1.0000
  N   N1        1.0  0.248072709468076  0.48624194373142166  0.49042472415138855  1.0000
  N   N2        1.0  0.7566164996789553  0.49405502488867353  0.507319785887347  1.0000
  O   O1        1.0  0.6058817789419563  0.6373627900359223  0.5075129625743884  1.0000
  O   O2        1.0  0.4298834171227953  0.36856334002678176  0.5140371741844376  1.0000
  O   O3        1.0  0.45188889002010063  0.6282192023969414  0.4940372365562595  1.0000
  O   O4        1.0  0.5880021542908054  0.3756267275066135  0.4841523290039618  1.0000
  O   O5        1.0  0.5797590772119963  0.5173030781423192  0.37234520997319004  1.0000
  O   O6        1.0  0.38110737942722767  0.505513850907235  0.6283665858572006  1.0000
  O   O7        1.0  0.4250287901144035  0.48590371474668353  0.3738065848184391  1.0000
  O   O8        1.0  0.5364725979912991  0.4908028168744424  0.6227158838614884  1.0000
  O   O9        1.0  0.3782663638535198  0.4299903586037104  0.2233730289963063  1.0000
  O   O10       1.0  0.5911668409056574  0.4648226688685637  0.7783866845835874  1.0000
  O   O11       1.0  0.07896744665799103  0.5956751931866862  0.3784010903422157  1.0000
  O   O12       1.0  0.9305247901276136  0.32778723497924744  0.4887151875429439  1.0000
  O   O13       1.0  0.2882768139776958  0.6289042826207378  0.31515147182606995  1.0000
  O   O14       1.0  0.28968932850121126  0.680213994990602  0.4473498373809121  1.0000
  O   O15       1.0  0.6935019185116148  0.3359511230299858  0.6239167267706236  1.0000
  O   O16       1.0  0.7455784574659036  0.26034626540424444  0.5090201893007559  1.0000
  O   O17       1.0  0.23546742152143452  0.2758208330866622  0.514598871568971  1.0000
  O   O18       1.0  0.27364509015806965  0.33413221520878267  0.6357258017323275  1.0000
  O   O19       1.0  0.7841110569511544  0.6815218559163578  0.401090484733828  1.0000
  O   O20       1.0  0.7800694727653621  0.7124357707669801  0.5399951121380653  1.0000
  O   O21       1.0  0.04318020998393022  0.3678313769863236  0.6092490207917649  1.0000
  O   O22       1.0  0.9613498932996835  0.6416018797980457  0.515376702440882  1.0000
  O   O23       1.0  0.30167755947869074  0.6737744329243184  0.6769661717867093  1.0000
  O   O24       1.0  0.22301125649808995  0.5576087509108801  0.7569094299243275  1.0000
  O   O25       1.0  0.7350034525379672  0.4783656263424658  0.255535265916663  1.0000
  O   O26       1.0  0.7212143830688122  0.6270570083384539  0.2617889465237154  1.0000
  O   O27       1.0  0.4630480199202865  0.7844701993991804  0.9271768954846705  1.0000
  O   O28       1.0  0.539783568026934  0.7638444675128891  0.0763533604237452  1.0000
  O   O29       1.0  0.6831030185607575  0.6515139083892477  0.0871611633040743  1.0000
  O   O30       1.0  0.3159978663525679  0.6941323904792681  0.8730215639246097  1.0000
  O   O31       1.0  0.5985128432836718  0.5556421687938311  0.9239525962106894  1.0000
  O   O32       1.0  0.3666912849253592  0.5455706602333379  0.07708882467191812  1.0000
  O   O33       1.0  0.6409901750338564  0.027174867274922593  0.6299095742822586  1.0000
  O   O34       1.0  0.5460232119361735  0.925899211121873  0.7162189558281256  1.0000
  O   O35       1.0  0.6828774912400706  0.009502545592766906  0.3713640065687328  1.0000
  O   O36       1.0  0.6275111639705103  0.10686189692321339  0.27892470252879775  1.0000
  O   O37       1.0  0.5530579150066901  0.6999330759883973  0.6804228681653441  1.0000
  O   O38       1.0  0.6745917056405092  0.8029924964320825  0.6631868473381672  1.0000
  O   O39       1.0  0.5361309659350156  0.29937454559590987  0.3071234938924974  1.0000
  O   O40       1.0  0.6857269281927645  0.28859743371353364  0.33290867691975023  1.0000
  O   O41       1.0  0.44501606603041216  0.7753512959200677  0.37820438658176403  1.0000
  O   O42       1.0  0.41488275609663827  0.2186776680841547  0.6333036158147037  1.0000
  O   O43       1.0  0.4665011873753358  0.9538527937562477  0.3640452818885578  1.0000
  O   O44       1.0  0.41672155514879006  0.03293309738862151  0.6218772827519174  1.0000
