data_image0
_chemical_formula_structural       Ag8H16C16N24O8
_chemical_formula_sum              "Ag8 H16 C16 N24 O8"
_cell_length_a       6.662422084000409
_cell_length_b       9.82217070801604
_cell_length_c       12.566672131016812
_cell_angle_alpha    90.0001830170551
_cell_angle_beta     89.99994958035884
_cell_angle_gamma    89.99996369886463

_space_group_name_H-M_alt    "P 1"
_space_group_IT_number       1

loop_
  _space_group_symop_operation_xyz
  'x, y, z'

loop_
  _atom_site_type_symbol
  _atom_site_label
  _atom_site_symmetry_multiplicity
  _atom_site_fract_x
  _atom_site_fract_y
  _atom_site_fract_z
  _atom_site_occupancy
  Ag  Ag1       1.0  0.5754987890970753  0.23783995112072634  0.33468319456582674  1.0000
  Ag  Ag2       1.0  0.9245059943009578  0.7621678421986003  0.8346826380068753  1.0000
  Ag  Ag3       1.0  0.07549541613532539  0.26216828135898845  0.6653149284144251  1.0000
  Ag  Ag4       1.0  0.4244997032166039  0.7378340454692633  0.16530890327551623  1.0000
  Ag  Ag5       1.0  0.42453193185580307  0.7621686723258561  0.6653187993702405  1.0000
  Ag  Ag6       1.0  0.0754616865211872  0.23782041916793162  0.1653209474137257  1.0000
  Ag  Ag7       1.0  0.924536805774778  0.7378454326073651  0.3346846782618302  1.0000
  Ag  Ag8       1.0  0.5754574709292299  0.2621613426152862  0.8346843373322275  1.0000
  H   H1        1.0  0.3358783834591747  0.7622140506480547  0.41184358047102904  1.0000
  H   H2        1.0  0.16412196848806096  0.2377881475052845  0.9118463498171967  1.0000
  H   H3        1.0  0.8358779616152674  0.7377909330166829  0.5881559231392972  1.0000
  H   H4        1.0  0.6641125834476328  0.26220171742071596  0.08815176837028824  1.0000
  H   H5        1.0  0.6641493355828058  0.23779660900756744  0.5881576177123339  1.0000
  H   H6        1.0  0.8358532171141987  0.7622102949011734  0.08815325683929134  1.0000
  H   H7        1.0  0.16414225265861396  0.26221056368954265  0.4118412962533783  1.0000
  H   H8        1.0  0.33584909356464715  0.7377977430808825  0.9118406764873872  1.0000
  H   H9        1.0  0.5128409264401199  0.8798866608550991  0.46115591997164546  1.0000
  H   H10       1.0  0.9871604594115054  0.12011955252906147  0.9611503861678233  1.0000
  H   H11       1.0  0.0128320654885385  0.6201225471265559  0.5388523543338197  1.0000
  H   H12       1.0  0.48718146093268183  0.37987525104563946  0.038854080693475616  1.0000
  H   H13       1.0  0.48720480404301714  0.12012196261809285  0.5388627848320768  1.0000
  H   H14       1.0  0.012805720451268598  0.8798687088421245  0.03885558651968781  1.0000
  H   H15       1.0  0.9871971545307261  0.3798840400862034  0.4611361117538665  1.0000
  H   H16       1.0  0.5128162390133112  0.6201221732405884  0.9611399556716339  1.0000
  C   C1        1.0  0.942965823622309  0.027228597807869907  0.34502293950919966  1.0000
  C   C2        1.0  0.5570389274202582  0.9727822871391112  0.845027764710068  1.0000
  C   C3        1.0  0.44296380572568944  0.4727886248526118  0.6549783467388581  1.0000
  C   C4        1.0  0.05706286603150798  0.5272075560488787  0.15497334538936516  1.0000
  C   C5        1.0  0.05706039444287818  0.9727820618725076  0.6549917865197801  1.0000
  C   C6        1.0  0.44293926004923617  0.027220227734993312  0.15499889764317495  1.0000
  C   C7        1.0  0.557071418117566  0.5272322158185432  0.34500534483481016  1.0000
  C   C8        1.0  0.9429363348894169  0.4727766328576736  0.8450119376454029  1.0000
  C   C9        1.0  0.2536514515035506  0.9643333353528759  0.4077735745592365  1.0000
  C   C10       1.0  0.2463324026582043  0.03568717400625591  0.9077749799847229  1.0000
  C   C11       1.0  0.75365569081535  0.5356900128729762  0.592233891056033  1.0000
  C   C12       1.0  0.7463318396010975  0.4642782177468093  0.09222233799042102  1.0000
  C   C13       1.0  0.7463597569977765  0.03570379505378439  0.5922387642401932  1.0000
  C   C14       1.0  0.7536352781358884  0.964317377062862  0.09224213330418253  1.0000
  C   C15       1.0  0.24637202824439436  0.46432573728411347  0.4077545750444715  1.0000
  C   C16       1.0  0.2536238336248999  0.5356825547475241  0.9077573747235025  1.0000
  N   N1        1.0  0.8229389035996632  0.1108261960733827  0.32266153058804303  1.0000
  N   N2        1.0  0.6770659174001066  0.8891815538810945  0.8226645246393436  1.0000
  N   N3        1.0  0.3229263798129551  0.38917886575858057  0.6773373748330871  1.0000
  N   N4        1.0  0.17706720098475157  0.6108072147609817  0.17732862144634967  1.0000
  N   N5        1.0  0.1770798096900066  0.8891722463529845  0.6773547869353396  1.0000
  N   N6        1.0  0.32291076910733796  0.11083317825344349  0.1773629334865988  1.0000
  N   N7        1.0  0.6770848287427496  0.6108297576624437  0.3226479082354318  1.0000
  N   N8        1.0  0.8228989789267015  0.3891718836145445  0.8226487040259802  1.0000
  N   N9        1.0  0.0692561334488744  0.929649519359799  0.3633409244731782  1.0000
  N   N10       1.0  0.43074286927453176  0.0703453770758813  0.8633448039531691  1.0000
  N   N11       1.0  0.5692662082541559  0.5703382818833659  0.6366633679890656  1.0000
  N   N12       1.0  0.9307256860345345  0.42966879700016125  0.13664534236984596  1.0000
  N   N13       1.0  0.9307460693480465  0.0703356876911272  0.6366666397203462  1.0000
  N   N14       1.0  0.5692593335016624  0.9296652826087097  0.13666912632083245  1.0000
  N   N15       1.0  0.4307630117618543  0.42966423291557737  0.3633282811154361  1.0000
  N   N16       1.0  0.06924499673144169  0.5703337177895803  0.8633335746462766  1.0000
  N   N17       1.0  0.3837032802070155  0.8610435296693311  0.41886228160377226  1.0000
  N   N18       1.0  0.1163015526535958  0.1389525851749056  0.9188647778506368  1.0000
  N   N19       1.0  0.8836954591592985  0.6389716125735418  0.5811443812488692  1.0000
  N   N20       1.0  0.6163056145294378  0.36103832033754907  0.08113413866596633  1.0000
  N   N21       1.0  0.6163304426392884  0.13896611190152436  0.5811508529123375  1.0000
  N   N22       1.0  0.8836811377084286  0.8610305856851853  0.08115074389679934  1.0000
  N   N23       1.0  0.1163172503526226  0.3610268298025687  0.4188432890722782  1.0000
  N   N24       1.0  0.3836785768415608  0.6389570677133705  0.9188439825842213  1.0000
  O   O1        1.0  0.2943802133328575  0.08568747552580191  0.4341277742736837  1.0000
  O   O2        1.0  0.20562607274212039  0.9143066581677315  0.9341220835768528  1.0000
  O   O3        1.0  0.7943677041528828  0.41432879890432867  0.5658806817668067  1.0000
  O   O4        1.0  0.7056439239765098  0.5856596987422407  0.06587503971891813  1.0000
  O   O5        1.0  0.7056475056688141  0.9143272565938716  0.5658980923396444  1.0000
  O   O6        1.0  0.7943461109148655  0.08566327735569959  0.06590696599798213  1.0000
  O   O7        1.0  0.20564050250949606  0.5856726977659648  0.43409505222438605  1.0000
  O   O8        1.0  0.29435527696146113  0.41432245393588113  0.9340998984899261  1.0000
