data_image0
_chemical_formula_structural       In4H68C60S8
_chemical_formula_sum              "In4 H68 C60 S8"
_cell_length_a       7.325485935
_cell_length_b       13.926071451311717
_cell_length_c       14.625
_cell_angle_alpha    90.0
_cell_angle_beta     90.0
_cell_angle_gamma    99.63936762973003

_space_group_name_H-M_alt    "P 1"
_space_group_IT_number       1

loop_
  _space_group_symop_operation_xyz
  'x, y, z'

loop_
  _atom_site_type_symbol
  _atom_site_label
  _atom_site_symmetry_multiplicity
  _atom_site_fract_x
  _atom_site_fract_y
  _atom_site_fract_z
  _atom_site_occupancy
  In  In1       1.0  0.39930070941006335  0.7379886528597979  0.19488615384615576  1.0000
  In  In2       1.0  0.6007012754330532  0.26201263706784067  0.6948888888888903  1.0000
  In  In3       1.0  0.9384170960416612  0.7594862329355152  0.3049921367521335  1.0000
  In  In4       1.0  0.06158419324006561  0.24051287190859946  0.8049887179487174  1.0000
  H   H1        1.0  0.283109752057996  0.7013076557331461  0.0190365811965805  1.0000
  H   H2        1.0  0.7168653685240117  0.2986907207497964  0.5190345299145278  1.0000
  H   H3        1.0  0.5318926161522057  0.7341334371613187  0.0222092307692279  1.0000
  H   H4        1.0  0.46808273628359137  0.2658656676828032  0.5222208547008549  1.0000
  H   H5        1.0  0.38751667651120414  0.8262682123352221  0.0303958974358949  1.0000
  H   H6        1.0  0.6124557138764931  0.17373016414772025  0.5303972649572657  1.0000
  H   H7        1.0  0.770169567553026  0.7766420520479471  0.4668157264957245  1.0000
  H   H8        1.0  0.22983378238723878  0.22335923787969142  0.9668164102564136  1.0000
  H   H9        1.0  0.012107793142789038  0.826593061419203  0.4802871794871778  1.0000
  H   H10       1.0  0.9878941917003277  0.1734082285084355  0.9802817094017089  1.0000
  H   H11       1.0  0.9373753341465588  0.6973723203054334  0.4816259829059818  1.0000
  H   H12       1.0  0.06262778393990939  0.3026282412610329  0.9816205128205129  1.0000
  H   H13       1.0  0.5798744587239852  0.3027025341008739  0.3660998290598273  1.0000
  H   H14       1.0  0.42012505380424875  0.6973038543549919  0.8660895726495712  1.0000
  H   H15       1.0  0.4191131171581406  0.24111886840607616  0.22351179487179715  1.0000
  H   H16       1.0  0.5808777671052001  0.7588904334944859  0.7234994871794882  1.0000
  H   H17       1.0  0.3462078093744124  0.3594717324299027  0.10516170940170613  1.0000
  H   H18       1.0  0.6537928624227973  0.6405382978318386  0.6051494017094045  1.0000
  H   H19       1.0  0.4226839665270816  0.5362420761214537  0.1344205128205118  1.0000
  H   H20       1.0  0.5773321590207915  0.46376504069559144  0.6344088888888919  1.0000
  H   H21       1.0  0.7211454091127225  0.4304192093885747  0.4614769230769228  1.0000
  H   H22       1.0  0.2788568336098082  0.569587179067284  0.9614639316239321  1.0000
  H   H23       1.0  0.5944272065227667  0.5292359699805617  0.4634639316239345  1.0000
  H   H24       1.0  0.4055711467364773  0.4707667766694286  0.9634550427350419  1.0000
  H   H25       1.0  0.8107186989627095  0.5415824202554518  0.4067699145299174  1.0000
  H   H26       1.0  0.18928377561362453  0.4584246965615862  0.9067528205128215  1.0000
  H   H27       1.0  0.40094593573169135  0.049867247836147016  0.5668574358974328  1.0000
  H   H28       1.0  0.5990460297237448  0.95013258536914  0.066854700854698  1.0000
  H   H29       1.0  0.4596951301914559  0.9065481810272544  0.6542762393162391  1.0000
  H   H30       1.0  0.540313911991227  0.09345383726155633  0.15427692307692106  1.0000
  H   H31       1.0  0.44740257865383626  0.7462307879144134  0.5739863247863255  1.0000
  H   H32       1.0  0.552598041092125  0.2537705020132321  0.07398769230768923  1.0000
  H   H33       1.0  0.38009664682781624  0.7337306534316212  0.4087733333333362  1.0000
  H   H34       1.0  0.6199001094804758  0.2662713648571895  0.9087747008546999  1.0000
  H   H35       1.0  0.1697557998363806  0.04883370332903782  0.3606844444444449  1.0000
  H   H36       1.0  0.8302423215690669  0.9511683149597803  0.8606810256410287  1.0000
  H   H37       1.0  0.4034951156307046  0.08086557107661461  0.32865299145299093  1.0000
  H   H38       1.0  0.5964987046551116  0.9191400890180719  0.8286502564102565  1.0000
  H   H39       1.0  0.3249364702561124  0.1263225919990418  0.4330358974359002  1.0000
  H   H40       1.0  0.6750582253936417  0.8736772412062451  0.933031794871795  1.0000
  H   H41       1.0  0.8046308059998567  0.3931191052633025  0.9922851282051257  1.0000
  H   H42       1.0  0.19537251791478386  0.6068778144972884  0.4922851282051256  1.0000
  H   H43       1.0  0.7668073034988511  0.5226566834881369  0.8809955555555578  1.0000
  H   H44       1.0  0.23319625226958615  0.4773409646336334  0.3809955555555576  1.0000
  H   H45       1.0  0.8461285189619262  0.6975879152131839  0.9275309401709395  1.0000
  H   H46       1.0  0.1538734398555591  0.30240900454740693  0.4275302564102575  1.0000
  H   H47       1.0  0.9744226114151999  0.7397629406817361  0.08180376068376213  1.0000
  H   H48       1.0  0.025571826355125928  0.26023179399533103  0.5818023931623915  1.0000
  H   H49       1.0  0.8472230426198879  0.4139516915863766  0.22548581196581105  1.0000
  H   H50       1.0  0.15277598017512156  0.5860488699800825  0.7254851282051291  1.0000
  H   H51       1.0  0.07720485107497412  0.41546231266301703  0.18950017094017116  1.0000
  H   H52       1.0  0.9227921110614903  0.5845360638199184  0.6894994871794895  1.0000
  H   H53       1.0  0.892152482828287  0.33903318950242334  0.1325880341880321  1.0000
  H   H54       1.0  0.10784311421102186  0.6609651869805191  0.632584615384616  1.0000
  H   H55       1.0  0.1269271449211047  0.18237872473789454  0.14655316239316116  1.0000
  H   H56       1.0  0.8730632235833867  0.8176203801062203  0.6465620512820536  1.0000
  H   H57       1.0  0.9891018557689507  0.2489771571215371  0.28245128205128384  1.0000
  H   H58       1.0  0.010905769265313772  0.7510161208331781  0.7824526495726476  1.0000
  H   H59       1.0  0.7680700957593842  0.1382225568737496  0.38168341880341944  1.0000
  H   H60       1.0  0.23194365919926704  0.8617685359974417  0.8816841025641011  1.0000
  H   H61       1.0  0.6843049481747061  0.9630762918074113  0.34068239316239624  1.0000
  H   H62       1.0  0.3157063084434313  0.036915529424952416  0.8406878632478654  1.0000
  H   H63       1.0  0.9698531872596093  0.9668113279120476  0.0325018803418828  1.0000
  H   H64       1.0  0.030147380435096204  0.0331812216814953  0.5325080341880337  1.0000
  H   H65       1.0  0.1500116903106345  0.9387920018767204  0.10235487179487283  1.0000
  H   H66       1.0  0.8499829793134881  0.061203461161525814  0.6023596581196601  1.0000
  H   H67       1.0  0.1723803535586299  0.0553161177852033  0.05030632478632671  1.0000
  H   H68       1.0  0.827619982282279  0.9446757034471603  0.5503158974358939  1.0000
  C   C1        1.0  0.40034599904088713  0.7511443123999513  0.0476485470085493  1.0000
  C   C2        1.0  0.5996318517354241  0.24885406408299104  0.5476512820512838  1.0000
  C   C3        1.0  0.9124747562331664  0.766471944963506  0.4524143589743589  1.0000
  C   C4        1.0  0.08753155575520573  0.23353007332530507  0.9524116239316245  1.0000
  C   C5        1.0  0.5367100846786174  0.5197774717639518  0.2689059829059843  1.0000
  C   C6        1.0  0.463307405966404  0.4802296450530861  0.7688957264957283  1.0000
  C   C7        1.0  0.586531453648746  0.4538542301893998  0.3345141880341914  1.0000
  C   C8        1.0  0.41348194170481634  0.5461528866276454  0.8345073504273515  1.0000
  C   C9        1.0  0.542797923627198  0.3540417998713893  0.3158550427350448  1.0000
  C   C10       1.0  0.45720841438680543  0.6459645885844766  0.8158447863247889  1.0000
  C   C11       1.0  0.454085438033772  0.3193434018626817  0.23506119658119937  1.0000
  C   C12       1.0  0.5459188393216862  0.68066080150966  0.7350509401709431  1.0000
  C   C13       1.0  0.41247674904342096  0.3852331388231961  0.16946940170939945  1.0000
  C   C14       1.0  0.5875277601658269  0.614771792910318  0.6694618803418778  1.0000
  C   C15       1.0  0.45448523632139637  0.48508125883876835  0.1861429059829049  1.0000
  C   C16       1.0  0.5455306833983045  0.5149294997841452  0.6861353846153835  1.0000
  C   C17       1.0  0.6829097102290619  0.49028321434955313  0.4212929914529938  1.0000
  C   C18       1.0  0.3170966277849346  0.5097231741063126  0.9212793162393141  1.0000
  C   C19       1.0  0.35024567266183476  0.8846084857184024  0.3937935042735036  1.0000
  C   C20       1.0  0.6497568019144992  0.11539863109863553  0.893796239316238  1.0000
  C   C21       1.0  0.35631379197651114  0.9754635303080976  0.4380601709401689  1.0000
  C   C22       1.0  0.6436856945260914  0.0245384879807204  0.9380581196581235  1.0000
  C   C23       1.0  0.39883586005089455  0.9806931635435276  0.5315685470085469  1.0000
  C   C24       1.0  0.6011611020855696  0.019305212939414708  0.031569914529917815  1.0000
  C   C25       1.0  0.4319775237528276  0.8997875326022964  0.5810789743589739  1.0000
  C   C26       1.0  0.5680214990421746  0.10021302896416982  0.08107760683761003  1.0000
  C   C27       1.0  0.42541448037017204  0.8108298688730857  0.5364362393162381  1.0000
  C   C28       1.0  0.5745875044729376  0.189171421054553  0.036436239316238114  1.0000
  C   C29       1.0  0.38556185092232914  0.8035739348492259  0.443231452991455  1.0000
  C   C30       1.0  0.6144358067755249  0.19642662671724057  0.9432328205128189  1.0000
  C   C31       1.0  0.31168036746505834  0.06265799842770291  0.3879090598290632  1.0000
  C   C32       1.0  0.6883161569894442  0.9373432914999428  0.8879070085470105  1.0000
  C   C33       1.0  0.9660524957413231  0.5902668095436427  0.12378529914529683  1.0000
  C   C34       1.0  0.033942173882799374  0.4097286534945965  0.6237825641025623  1.0000
  C   C35       1.0  0.9151432534451445  0.4910523637501925  0.0995692307692337  1.0000
  C   C36       1.0  0.08485461008088181  0.5089445560103983  0.599569230769234  1.0000
  C   C37       1.0  0.8433103375050524  0.4695584254803506  0.011649914529911603  1.0000
  C   C38       1.0  0.15669002436148113  0.5304377659190679  0.5116492307692297  1.0000
  C   C39       1.0  0.8200991948999248  0.5421942436423279  0.949232136752137  1.0000
  C   C40       1.0  0.1799057259656678  0.457803404479435  0.44923145299145534  1.0000
  C   C41       1.0  0.8658849219220884  0.6397909992664383  0.9750434188034163  1.0000
  C   C42       1.0  0.13411361113969633  0.3602037354106287  0.47504205128205274  1.0000
  C   C43       1.0  0.9387547800205597  0.663526104871295  0.061844102564101916  1.0000
  C   C44       1.0  0.0612440109206531  0.3364737283339921  0.5618420512820492  1.0000
  C   C45       1.0  0.934323491357482  0.4103936472472327  0.16484307692307715  1.0000
  C   C46       1.0  0.06567437216854437  0.589603272513358  0.6648403418803426  1.0000
  C   C47       1.0  0.8581042024234835  0.9744379977739117  0.22090324786324805  1.0000
  C   C48       1.0  0.14189639129685366  0.025558921986686307  0.7209114529914517  1.0000
  C   C49       1.0  0.9868156736308437  0.0355527656668073  0.16546324786325076  1.0000
  C   C50       1.0  0.0131869807480314  0.9644463391773074  0.6654728205128182  1.0000
  C   C51       1.0  0.030510633865965503  0.13413936412754174  0.18969982905982627  1.0000
  C   C52       1.0  0.9694854008553052  0.8658560989107045  0.6897087179487189  1.0000
  C   C53       1.0  0.9526640501583402  0.1717752427544212  0.2660622222222244  1.0000
  C   C54       1.0  0.04734154024301057  0.828220220283818  0.7660676923076936  1.0000
  C   C55       1.0  0.8287697028686767  0.1101223827480169  0.321232136752137  1.0000
  C   C56       1.0  0.17123699475040877  0.8898679817620023  0.8212362393162423  1.0000
  C   C57       1.0  0.7819495702976627  0.0117419104997651  0.2985634188034184  1.0000
  C   C58       1.0  0.21805738520084367  0.9882535525384741  0.7985702564102584  1.0000
  C   C59       1.0  0.07428816862227448  0.99758968607771  0.08312752136752273  1.0000
  C   C60       1.0  0.925711497682869  0.0024043202381847  0.583136410256408  1.0000
  S   S1        1.0  0.5759724790185103  0.6441953992907585  0.29880273504273464  1.0000
  S   S2        1.0  0.4240299955578166  0.3558117175262795  0.7987952136752129  1.0000
  S   S3        1.0  0.2787595447843998  0.876112880974951  0.2775083760683756  1.0000
  S   S4        1.0  0.7212458658144101  0.1238905940362187  0.7775097435897467  1.0000
  S   S5        1.0  0.07302902465292502  0.6184412765092164  0.23228512820512756  1.0000
  S   S6        1.0  0.9269704358240463  0.3815563716125467  0.7322830769230748  1.0000
  S   S7        1.0  0.786253674413807  0.8509618412461821  0.1884088888888868  1.0000
  S   S8        1.0  0.21375031903659908  0.14903289343088497  0.6884143589743561  1.0000
