data_image0
_chemical_formula_structural       Tm4H32C24O28
_chemical_formula_sum              "Tm4 H32 C24 O28"
_cell_length_a       7.568849070136471
_cell_length_b       10.626847214333614
_cell_length_c       12.589695216195576
_cell_angle_alpha    72.158055220929
_cell_angle_beta     72.51344064645248
_cell_angle_gamma    69.1496370262688

_space_group_name_H-M_alt    "P 1"
_space_group_IT_number       1

loop_
  _space_group_symop_operation_xyz
  'x, y, z'

loop_
  _atom_site_type_symbol
  _atom_site_label
  _atom_site_symmetry_multiplicity
  _atom_site_fract_x
  _atom_site_fract_y
  _atom_site_fract_z
  _atom_site_occupancy
  Tm  Tm1       1.0  0.5545951294463335  0.6892925106414155  0.7703389119209731  1.0000
  Tm  Tm2       1.0  0.014210365282352276  0.8106818538267506  0.7296895540468001  1.0000
  Tm  Tm3       1.0  0.4454056484715566  0.3107070346981757  0.22966160390348733  1.0000
  Tm  Tm4       1.0  0.9857899919138474  0.1893187246639201  0.27031077030940054  1.0000
  H   H1        1.0  0.34496676089548833  0.6381012113173911  0.46736016507939854  1.0000
  H   H2        1.0  0.45033758185747524  0.861932932986278  0.032528237548056935  1.0000
  H   H3        1.0  0.6550392947800107  0.36190349885944073  0.532636179172968  1.0000
  H   H4        1.0  0.5496605534657419  0.13806557911466652  0.9674727603558679  1.0000
  H   H5        1.0  0.30029378055007755  0.5026869571098587  0.5815026900534478  1.0000
  H   H6        1.0  0.38462683077589327  0.9974020275204512  0.9183628447445783  1.0000
  H   H7        1.0  0.6997066071141592  0.49731775209841084  0.4184923962169549  1.0000
  H   H8        1.0  0.6153690373428163  0.0025964841930772005  0.08163764996656658  1.0000
  H   H9        1.0  0.9869983047075692  0.8640444662497375  0.040747595228047884  1.0000
  H   H10       1.0  0.8917731755212512  0.6359717960727524  0.45923193042789023  1.0000
  H   H11       1.0  0.013003690043873728  0.1359540456389183  0.959252318260674  1.0000
  H   H12       1.0  0.1082323032682451  0.36402568275239133  0.54076788391788  1.0000
  H   H13       1.0  0.13284114627582977  0.7420540784508349  0.13751671247143804  1.0000
  H   H14       1.0  0.012413992328305347  0.7579565557601385  0.36245721714671225  1.0000
  H   H15       1.0  0.8671615613561701  0.2579454667826155  0.8624832611454138  1.0000
  H   H16       1.0  0.9875867402580666  0.2420450555817553  0.637542121937237  1.0000
  H   H17       1.0  0.807351047522914  0.7016102713116156  0.15096204448872902  1.0000
  H   H18       1.0  0.6600002490013709  0.7983735456042568  0.3488962213363252  1.0000
  H   H19       1.0  0.1926493096732854  0.2983903071790621  0.8490382798674717  1.0000
  H   H20       1.0  0.340000191426128  0.20162599924177022  0.6511032490877469  1.0000
  H   H21       1.0  0.9023773143292073  0.663500904703213  0.015356748802979343  1.0000
  H   H22       1.0  0.5812875824758237  0.8365367600920594  0.4844788316719147  1.0000
  H   H23       1.0  0.09762270537660105  0.33649967329388636  0.9846425301528329  1.0000
  H   H24       1.0  0.41871369939505604  0.16346071845180182  0.5155210216886701  1.0000
  H   H25       1.0  0.30608192947227036  0.5066182776602517  0.8514627940911127  1.0000
  H   H26       1.0  0.6641600800228886  0.9932865053417502  0.6485624424378288  1.0000
  H   H27       1.0  0.693920778159729  0.4933812675731987  0.14853717952574644  1.0000
  H   H28       1.0  0.33583993968292  0.006714072655349  0.3514368365179905  1.0000
  H   H29       1.0  0.49250751470569293  0.4242835374674528  0.911876011569241  1.0000
  H   H30       1.0  0.8286591664347256  0.07564731597592811  0.5881897496118142  1.0000
  H   H31       1.0  0.5074948554359224  0.5757160072724262  0.08812291664722245  1.0000
  H   H32       1.0  0.17134043254939277  0.9243542951722573  0.41180933787573804  1.0000
  C   C1        1.0  0.4149842251779532  0.5508271229985839  0.529383329663645  1.0000
  C   C2        1.0  0.4952305917500795  0.9492025097160595  0.9705639413792325  1.0000
  C   C3        1.0  0.5850176335789282  0.4491775868969727  0.4706130536035431  1.0000
  C   C4        1.0  0.504765193137338  0.0507970356421126  0.02943740726404802  1.0000
  C   C5        1.0  0.4706628901747863  0.6072530118099735  0.6061422590447237  1.0000
  C   C6        1.0  0.684124247490331  0.8927827007727488  0.8938794425260497  1.0000
  C   C7        1.0  0.5293370462997228  0.3927485998317836  0.3938578738432242  1.0000
  C   C8        1.0  0.3158719581187768  0.10721581143434382  0.10612209758548372  1.0000
  C   C9        1.0  0.24147490931243012  0.731570729872111  0.9626735750396307  1.0000
  C   C10       1.0  0.9356451511663761  0.7685213057786698  0.5372811526056439  1.0000
  C   C11       1.0  0.7585254932152949  0.2684277826162643  0.037327926057081205  1.0000
  C   C12       1.0  0.06435684358506671  0.23147720610998598  0.4627187608830781  1.0000
  C   C13       1.0  0.07435663006750556  0.7561290517396844  0.06354609289796541  1.0000
  C   C14       1.0  0.8940016599557694  0.7439050428083152  0.4364065166378595  1.0000
  C   C15       1.0  0.9256445685720751  0.24386946044882765  0.936454614394755  1.0000
  C   C16       1.0  0.1059979843598739  0.2560945023375681  0.5635937475902111  1.0000
  C   C17       1.0  0.03511718513410489  0.5126877890884886  0.1469796185174843  1.0000
  C   C18       1.0  0.694911369957772  0.9873386125782919  0.35291877370496383  1.0000
  C   C19       1.0  0.9648809048575945  0.4873127890147588  0.8530202026459293  1.0000
  C   C20       1.0  0.30508861184826247  0.012660933061162902  0.647082535923495  1.0000
  C   C21       1.0  0.9441361061416983  0.6624885648747141  0.09213811887132554  1.0000
  C   C22       1.0  0.6987821411101787  0.8375201548822206  0.4077293038742269  1.0000
  C   C23       1.0  0.05586546788805444  0.3375109801650212  0.9078616031491363  1.0000
  C   C24       1.0  0.3012179239271476  0.1624783571125832  0.5922711518220964  1.0000
  O   O1        1.0  0.21204515895967527  0.7659926684808982  0.8608052831449627  1.0000
  O   O2        1.0  0.8387605406701223  0.7340614426406163  0.639149274285721  1.0000
  O   O3        1.0  0.7879517141984705  0.23400894307329176  0.1391951403541967  1.0000
  O   O4        1.0  0.16123947903568575  0.26593913535648284  0.3608500046700911  1.0000
  O   O5        1.0  0.204252552118433  0.48130459216817917  0.16207426044355341  1.0000
  O   O6        1.0  0.8477914889314417  0.0186579584384035  0.33778537628671057  1.0000
  O   O7        1.0  0.7957478504092849  0.5186939203201889  0.8379272406531583  1.0000
  O   O8        1.0  0.15220585027991265  0.9813405539624044  0.66221641542122  1.0000
  O   O9        1.0  0.44612577665701303  0.4904251966823028  0.843690527457042  1.0000
  O   O10       1.0  0.7802309269040961  0.009469969866316298  0.6563632048922442  1.0000
  O   O11       1.0  0.5538734848367141  0.5095764139723117  0.15630751463012163  1.0000
  O   O12       1.0  0.21977022640396635  0.9905306083244981  0.34363632565996477  1.0000
  O   O13       1.0  0.34011786386100346  0.696968123369544  0.6605299224165649  1.0000
  O   O14       1.0  0.6977469329304424  0.8029921097124344  0.8395077325022625  1.0000
  O   O15       1.0  0.6598805636210797  0.3030324552272817  0.3394709441472442  1.0000
  O   O16       1.0  0.30224885195697476  0.19700743564574452  0.16049361614101806  1.0000
  O   O17       1.0  0.9346364712376313  0.4281477187437305  0.17412384275178996  1.0000
  O   O18       1.0  0.536976009180215  0.07193261847545782  0.3259309549690173  1.0000
  O   O19       1.0  0.06536161875406767  0.5718528593595239  0.8258759784116309  1.0000
  O   O20       1.0  0.463019692475896  0.928067960527372  0.6740712476063919  1.0000
  O   O21       1.0  0.415871885036111  0.6799208758116608  0.9742828156971228  1.0000
  O   O22       1.0  0.06993814592669888  0.8202128891997233  0.5257160318050254  1.0000
  O   O23       1.0  0.5841296889936416  0.3200786692280744  0.02571690632334626  1.0000
  O   O24       1.0  0.9300626319911913  0.17978665613987493  0.4742844840194352  1.0000
  O   O25       1.0  0.6421784375061179  0.5694256408728365  0.6192547800913956  1.0000
  O   O26       1.0  0.8308813638900292  0.9306265589767336  0.8808278890394095  1.0000
  O   O27       1.0  0.35782019890353906  0.4305780378644998  0.3807468090644194  1.0000
  O   O28       1.0  0.1691155999311604  0.06937092057285811  0.1191748879407726  1.0000
