data_image0
_chemical_formula_structural       Co2H32C32N8O8
_chemical_formula_sum              "Co2 H32 C32 N8 O8"
_cell_length_a       7.581184281613975
_cell_length_b       8.650074426037468
_cell_length_c       13.296187438938771
_cell_angle_alpha    81.48127518941861
_cell_angle_beta     77.38427399035116
_cell_angle_gamma    72.83286468638958

_space_group_name_H-M_alt    "P 1"
_space_group_IT_number       1

loop_
  _space_group_symop_operation_xyz
  'x, y, z'

loop_
  _atom_site_type_symbol
  _atom_site_label
  _atom_site_symmetry_multiplicity
  _atom_site_fract_x
  _atom_site_fract_y
  _atom_site_fract_z
  _atom_site_occupancy
  Co  Co1       1.0  0.2026443407434185  0.7938396207630446  0.7815871022534677  1.0000
  Co  Co2       1.0  0.7973584879505679  0.20616561283850388  0.2184117153993269  1.0000
  H   H1        1.0  0.5393850631749757  0.10443979471472888  0.8145811252049027  1.0000
  H   H2        1.0  0.4605978233506391  0.8955614880126175  0.18540683729190008  1.0000
  H   H3        1.0  0.782922256025145  0.8630935762189222  0.07838963945872729  1.0000
  H   H4        1.0  0.21706245071444394  0.1369260409401248  0.9216031682237538  1.0000
  H   H5        1.0  0.8361042289067054  0.5686564493128969  0.6771858010381278  1.0000
  H   H6        1.0  0.16391710587414107  0.4313331854944095  0.32281984772653505  1.0000
  H   H7        1.0  0.32133014136138627  0.534961429378633  0.4352714306730759  1.0000
  H   H8        1.0  0.6786865417839678  0.4650342410128586  0.5647319375622144  1.0000
  H   H9        1.0  0.5102289451595182  0.7490116306765626  0.9287459219991443  1.0000
  H   H10       1.0  0.4897638690831129  0.25099833464506094  0.07126565094986147  1.0000
  H   H11       1.0  0.7625860699648469  0.28238297802851514  0.81998012044518  1.0000
  H   H12       1.0  0.23739178632183672  0.7176194447102018  0.1800301327373574  1.0000
  H   H13       1.0  0.42824320193305704  0.42203637833735286  0.7484998074655063  1.0000
  H   H14       1.0  0.5717291815663401  0.5779696233757503  0.2515190206028065  1.0000
  H   H15       1.0  0.8955837357091241  0.36770445500854965  0.9670524944114472  1.0000
  H   H16       1.0  0.10440337495570866  0.6323066480649756  0.03295662558915068  1.0000
  H   H17       1.0  0.9510083673030538  0.5350944344982338  0.8798290659564213  1.0000
  H   H18       1.0  0.04897517353549565  0.464915396153465  0.12017833078968468  1.0000
  H   H19       1.0  0.7970006335889437  0.5707395002441514  0.001781235712663008  1.0000
  H   H20       1.0  0.20298463651136706  0.42926913493997176  0.998226824180605  1.0000
  H   H21       1.0  0.6103953635184283  0.7858279992947457  0.6746677987221756  1.0000
  H   H22       1.0  0.389613380511193  0.21417121636938663  0.3253361598448236  1.0000
  H   H23       1.0  0.43616266804825443  0.2838070978919447  0.5725337554825669  1.0000
  H   H24       1.0  0.563853128669045  0.7161849042301113  0.4274482451324315  1.0000
  H   H25       1.0  0.1257119256769386  0.18361974663493186  0.6897953389002536  1.0000
  H   H26       1.0  0.8743066699457528  0.81637473306435  0.3102019011289625  1.0000
  H   H27       1.0  0.7698623155619515  0.14436763337384656  0.5170710750361563  1.0000
  H   H28       1.0  0.23015336852122925  0.8556121591957362  0.4829165925983146  1.0000
  H   H29       1.0  0.8562484648377405  0.008439822848430397  0.622640329411787  1.0000
  H   H30       1.0  0.14376869603478346  0.9915436533778953  0.37734682259365815  1.0000
  H   H31       1.0  0.8259976550605327  0.9303083666634676  0.5111752862882496  1.0000
  H   H32       1.0  0.1740107767426977  0.0696725385828927  0.4888176323402431  1.0000
  C   C1        1.0  0.8709108244952547  0.9571464753724751  0.872614314657596  1.0000
  C   C2        1.0  0.12907698916498586  0.042876852640823394  0.12736725507421195  1.0000
  C   C3        1.0  0.6805252331880353  0.9817984633328362  0.9398320229040986  1.0000
  C   C4        1.0  0.3194617593136684  0.018206540997773895  0.0601573717593098  1.0000
  C   C5        1.0  0.5206901913759339  0.0598982142491522  0.8960426742095957  1.0000
  C   C6        1.0  0.4792953039791286  0.940103105894124  0.10394799067764639  1.0000
  C   C7        1.0  0.6584618052641602  0.9220367017502651  0.04447575679770207  1.0000
  C   C8        1.0  0.3415265024932168  0.07796466111490467  0.9555100645319354  1.0000
  C   C9        1.0  0.17826665502233394  0.629703487460496  0.627420522932418  1.0000
  C   C10       1.0  0.8217525853902217  0.3702800123862459  0.3725889509283674  1.0000
  C   C11       1.0  0.08623280501115721  0.5609546748027796  0.5625371097276997  1.0000
  C   C12       1.0  0.9137989555644169  0.43901558189133977  0.4374721481809799  1.0000
  C   C13       1.0  0.906472048628885  0.5389672327435517  0.5991358814264626  1.0000
  C   C14       1.0  0.09354711168587217  0.4610248111762799  0.40087054683389295  1.0000
  C   C15       1.0  0.1798942437446415  0.5211188456375236  0.4625758090621373  1.0000
  C   C16       1.0  0.8201247441954961  0.47886953333353677  0.5374324860224602  1.0000
  C   C17       1.0  0.5304643405746532  0.6426753282430366  0.8889830561383218  1.0000
  C   C18       1.0  0.4695239224875677  0.35733212912027307  0.11102852728693338  1.0000
  C   C19       1.0  0.659752553934908  0.3990100999727772  0.8322807453418901  1.0000
  C   C20       1.0  0.3402312285351029  0.6009985117280152  0.16773275470939095  1.0000
  C   C21       1.0  0.49366146849678216  0.46883770201075936  0.7974813121535999  1.0000
  C   C22       1.0  0.5063122804891975  0.5311683200020951  0.20253660332551945  1.0000
  C   C23       1.0  0.8420380574064125  0.4943426080361774  0.9371706363546433  1.0000
  C   C24       1.0  0.15794542236027098  0.5056672210237351  0.06283902417587937  1.0000
  C   C25       1.0  0.5187706371183936  0.9073681558624427  0.6654709409216577  1.0000
  C   C26       1.0  0.48124063563614783  0.09262377421782018  0.3345296439518036  1.0000
  C   C27       1.0  0.4233135071313754  0.16842872464042094  0.6137855231484008  1.0000
  C   C28       1.0  0.5767015091486911  0.8315608219330314  0.38620582369213696  1.0000
  C   C29       1.0  0.2724721448949055  0.11735799893580176  0.6708794521569315  1.0000
  C   C30       1.0  0.7275445911373241  0.8826425585389611  0.3291114183801154  1.0000
  C   C31       1.0  0.7708582328655423  0.02834988437035689  0.5627116228562627  1.0000
  C   C32       1.0  0.22915037131230773  0.9716346858247744  0.4372794289479953  1.0000
  N   N1        1.0  0.4144918373602239  0.6213844243974762  0.8327249139857781  1.0000
  N   N2        1.0  0.5855001380292889  0.37862430910183775  0.16728311053034153  1.0000
  N   N3        1.0  0.6804206564272091  0.5103811047958045  0.8901561391306172  1.0000
  N   N4        1.0  0.3195658977305412  0.4896275485656856  0.10985402655266796  1.0000
  N   N5        1.0  0.334241696947096  0.9537396372802146  0.7027781743251678  1.0000
  N   N6        1.0  0.6657668054510637  0.046260797334838295  0.2972196809366422  1.0000
  N   N7        1.0  0.5772856725831658  0.033636095300714396  0.6112869055061834  1.0000
  N   N8        1.0  0.42272642132317634  0.9663582913893477  0.38870282395213696  1.0000
  O   O1        1.0  0.00957162752371228  0.8501335920606509  0.9073576702107854  1.0000
  O   O2        1.0  0.9904172380788409  0.14989463378493176  0.09262407194005104  1.0000
  O   O3        1.0  0.890954509696371  0.03364925140894569  0.784558980121815  1.0000
  O   O4        1.0  0.10902161181300585  0.9663922117526905  0.21543127852397953  1.0000
  O   O5        1.0  0.07521780860011514  0.6822344839415633  0.7139844824328418  1.0000
  O   O6        1.0  0.9247934628230825  0.3177488999432184  0.2860221664202668  1.0000
  O   O7        1.0  0.3440066746994007  0.63863287373411  0.5965218510559038  1.0000
  O   O8        1.0  0.6560051640785645  0.3613651667621908  0.40348185806905673  1.0000
