data_image0
_chemical_formula_structural       Zn4H40C68N8O12
_chemical_formula_sum              "Zn4 H40 C68 N8 O12"
_cell_length_a       10.660480079202223
_cell_length_b       12.577017594358162
_cell_length_c       13.670133296064147
_cell_angle_alpha    90.00003350025118
_cell_angle_beta     90.00034978583336
_cell_angle_gamma    91.25283057868253

_space_group_name_H-M_alt    "P 1"
_space_group_IT_number       1

loop_
  _space_group_symop_operation_xyz
  'x, y, z'

loop_
  _atom_site_type_symbol
  _atom_site_label
  _atom_site_symmetry_multiplicity
  _atom_site_fract_x
  _atom_site_fract_y
  _atom_site_fract_z
  _atom_site_occupancy
  Zn  Zn1       1.0  0.46507498269244957  0.1289258427363151  0.4318001525285027  1.0000
  Zn  Zn2       1.0  0.034921187939986  0.3710751130209858  0.9318008946414339  1.0000
  Zn  Zn3       1.0  0.5349218225407951  0.8710744247260749  0.5682007881277613  1.0000
  Zn  Zn4       1.0  0.9650756522165905  0.6289259496377115  0.0681978514498311  1.0000
  H   H1        1.0  0.6883888624106262  0.08039046254973671  0.1500404365918726  1.0000
  H   H2        1.0  0.8116134150928572  0.4196081855754982  0.6500395997725192  1.0000
  H   H3        1.0  0.31160974820024717  0.9196081900681321  0.8499619671118241  1.0000
  H   H4        1.0  0.18839352925162697  0.5803879714192989  0.34995475721107283  1.0000
  H   H5        1.0  0.8099456694495399  0.21686791755652726  0.0523189642298334  1.0000
  H   H6        1.0  0.6900531708445782  0.2831338685814373  0.5523189398414416  1.0000
  H   H7        1.0  0.19005391371111807  0.783131518033187  0.9476834394763856  1.0000
  H   H8        1.0  0.3099481827532173  0.7168631569656652  0.4476827323466352  1.0000
  H   H9        1.0  0.6756494985872763  0.4633411301648989  0.23823423057103102  1.0000
  H   H10       1.0  0.824346940114829  0.03665847044126019  0.7382339907218878  1.0000
  H   H11       1.0  0.32435015442862175  0.5366598958183316  0.7617659785704732  1.0000
  H   H12       1.0  0.1756488227162549  0.9633394236560663  0.2617698760183345  1.0000
  H   H13       1.0  0.5366689151468051  0.4350020583053578  0.3574587710918991  1.0000
  H   H14       1.0  0.9633321713142635  0.0649967951377093  0.8574584784268853  1.0000
  H   H15       1.0  0.4633325781814932  0.5649981480308526  0.6425436326190805  1.0000
  H   H16       1.0  0.03667203005760909  0.935000988929339  0.1425402676811345  1.0000
  H   H17       1.0  0.3748938930251881  0.500613261062071  0.41223767689572105  1.0000
  H   H18       1.0  0.125109178283374  0.9993885296660708  0.9122345263785905  1.0000
  H   H19       1.0  0.6251094406040777  0.49938612562593226  0.587763995297685  1.0000
  H   H20       1.0  0.8748923848830116  0.0006132670618655015  0.0877612936371008  1.0000
  H   H21       1.0  0.22462589016173948  0.5725741427063653  0.5309223529748763  1.0000
  H   H22       1.0  0.27537506738200784  0.9274257353729427  0.0309179304536826  1.0000
  H   H23       1.0  0.7753765407787083  0.42742605140389855  0.469078587694817  1.0000
  H   H24       1.0  0.7246227103895819  0.0725753150601065  0.9690800841180619  1.0000
  H   H25       1.0  0.1396972599014674  0.4600504309837989  0.6671058701976734  1.0000
  H   H26       1.0  0.3603021873267025  0.03994387463344401  0.16710531344885746  1.0000
  H   H27       1.0  0.8603042683530191  0.5399505705490242  0.3328950704700659  1.0000
  H   H28       1.0  0.6396955555129651  0.9600563806024028  0.8328927011225957  1.0000
  H   H29       1.0  0.1364047085385067  0.2861891881783123  0.7536485000607203  1.0000
  H   H30       1.0  0.3635945825611983  0.21380758562094118  0.2536517053802001  1.0000
  H   H31       1.0  0.8635939719333335  0.71381105483367  0.2463531721217862  1.0000
  H   H32       1.0  0.6364060429930447  0.7861942233329487  0.7463455776767773  1.0000
  H   H33       1.0  0.2050496307049272  0.09562885072999452  0.7595037156622129  1.0000
  H   H34       1.0  0.29495060885903956  0.4043671204068886  0.25950595863041315  1.0000
  H   H35       1.0  0.7949461670466248  0.9043698385633406  0.2404972249912447  1.0000
  H   H36       1.0  0.7050481414566078  0.5956347129974162  0.740490592900322  1.0000
  H   H37       1.0  0.3439125389754878  0.028817347704368508  0.626663336019739  1.0000
  H   H38       1.0  0.1560868016343306  0.47118169621545286  0.126665680932021  1.0000
  H   H39       1.0  0.6560851689408479  0.9711821123351639  0.3733368731167205  1.0000
  H   H40       1.0  0.8439100385193896  0.5288193664429528  0.8733323336374853  1.0000
  C   C1        1.0  0.6137033240134497  0.19243901870940758  0.25199905842043085  1.0000
  C   C2        1.0  0.8862960701062547  0.3075613516098629  0.7519999844051029  1.0000
  C   C3        1.0  0.386296363940076  0.8075628024716224  0.7480026137648821  1.0000
  C   C4        1.0  0.11370531841487258  0.692436469133547  0.24799949321796794  1.0000
  C   C5        1.0  0.6880692944904891  0.1645619602335771  0.16908489486552017  1.0000
  C   C6        1.0  0.8119323340288389  0.33543989638961597  0.6690832850974644  1.0000
  C   C7        1.0  0.311933206328078  0.8354398242725763  0.8309197034135637  1.0000
  C   C8        1.0  0.18807204200258099  0.6645618636634512  0.33091546101199043  1.0000
  C   C9        1.0  0.7539315234521238  0.2395702488333811  0.11550914904130143  1.0000
  C   C10       1.0  0.7460649282140394  0.2604300349634486  0.6155101122931299  1.0000
  C   C11       1.0  0.24606795490993955  0.7604268011644281  0.8844925231422991  1.0000
  C   C12       1.0  0.2539383704861748  0.7395685565276436  0.3844922914217578  1.0000
  C   C13       1.0  0.7519285223371382  0.3489970280626195  0.14083372406573602  1.0000
  C   C14       1.0  0.7480663568966008  0.15100568636606942  0.6408331780023602  1.0000
  C   C15       1.0  0.24807574891857334  0.6510023464009151  0.8591701426951986  1.0000
  C   C16       1.0  0.2519322537171362  0.8489929662520981  0.35916995722310224  1.0000
  C   C17       1.0  0.6791735906220635  0.37907931493105435  0.219664537555829  1.0000
  C   C18       1.0  0.8208227028889821  0.1209202705776136  0.7196657869066883  1.0000
  C   C19       1.0  0.32082786776288685  0.620920096206767  0.7803349400678173  1.0000
  C   C20       1.0  0.17917583786093155  0.8790767916461419  0.2803373483181986  1.0000
  C   C21       1.0  0.6083518529272425  0.3049154329487607  0.2759907935703154  1.0000
  C   C22       1.0  0.8916476938438079  0.1950841616788921  0.7759894931684954  1.0000
  C   C23       1.0  0.391650647885605  0.6950863515567961  0.7240123416652366  1.0000
  C   C24       1.0  0.10835095169039728  0.804915286135291  0.22401071597020217  1.0000
  C   C25       1.0  0.5317925928387837  0.3477666254347582  0.3512466543748758  1.0000
  C   C26       1.0  0.9682065348850699  0.15223145221137463  0.8512471610493508  1.0000
  C   C27       1.0  0.46820792793688065  0.652232797929301  0.6487550178118158  1.0000
  C   C28       1.0  0.0317939858820111  0.8477679711517967  0.1487523165720575  1.0000
  C   C29       1.0  0.3776632225896108  0.343999101273468  0.47632260754170375  1.0000
  C   C30       1.0  0.12233690689858889  0.1559986609915356  0.9763207315914287  1.0000
  C   C31       1.0  0.6223382707358311  0.6560011050624439  0.5236790646475172  1.0000
  C   C32       1.0  0.8776655240246993  0.8440015331169377  0.023675819947691  1.0000
  C   C33       1.0  0.3395778322521322  0.4490929800380102  0.4707183551244683  1.0000
  C   C34       1.0  0.16041853787436366  0.050905621768826806  0.9707158760356835  1.0000
  C   C35       1.0  0.6604226535887605  0.5509056481285485  0.529282585540173  1.0000
  C   C36       1.0  0.8395820527422371  0.9490953919872639  0.0292799439774853  1.0000
  C   C37       1.0  0.2533947387850333  0.49035899849209835  0.5384512227230402  1.0000
  C   C38       1.0  0.24660484968214286  0.0096399614785838  0.038446449503062814  1.0000
  C   C39       1.0  0.7466067545404087  0.5096412078438135  0.4615504494661807  1.0000
  C   C40       1.0  0.7533967134899626  0.9903618352499494  0.9615508335561531  1.0000
  C   C41       1.0  0.2053774644633534  0.4286608482584668  0.6137832033203239  1.0000
  C   C42       1.0  0.2946226431750745  0.0713365825677954  0.11378161716353222  1.0000
  C   C43       1.0  0.794625904094964  0.5713393336264404  0.3862177373516077  1.0000
  C   C44       1.0  0.7053770796903505  0.9286660338083551  0.8862149343697396  1.0000
  C   C45       1.0  0.24224231998631043  0.3215165752493974  0.6226844208805532  1.0000
  C   C46       1.0  0.257760705038848  0.1784816213353935  0.12268344474033911  1.0000
  C   C47       1.0  0.7577582357184055  0.678483643311573  0.3773165197846708  1.0000
  C   C48       1.0  0.7422408930565892  0.8215209705894537  0.8773116437538775  1.0000
  C   C49       1.0  0.1989874742193507  0.25378256906789437  0.6988342526486376  1.0000
  C   C50       1.0  0.301015173671516  0.24621490645849056  0.19883278627982293  1.0000
  C   C51       1.0  0.8010120740036725  0.746216071324021  0.3011666880137724  1.0000
  C   C52       1.0  0.6989854518770002  0.7537869024948023  0.8011630337336302  1.0000
  C   C53       1.0  0.23653877764039777  0.149707723141546  0.7018591583156139  1.0000
  C   C54       1.0  0.2634658040722968  0.35029052559098517  0.20185829711391534  1.0000
  C   C55       1.0  0.763459832964763  0.8502909294757259  0.2981417823445582  1.0000
  C   C56       1.0  0.7365366967205346  0.6497112589124897  0.7981397174693045  1.0000
  C   C57       1.0  0.3158403474661852  0.11172756494462992  0.627751062952207  1.0000
  C   C58       1.0  0.18416080700942666  0.3882698650132994  0.1277505736375915  1.0000
  C   C59       1.0  0.6841582631418318  0.8882710876729405  0.3722506092297238  1.0000
  C   C60       1.0  0.8158369358331041  0.6117303902228457  0.8722481724556276  1.0000
  C   C61       1.0  0.326342181046698  0.27808171720144514  0.5528871933370709  1.0000
  C   C62       1.0  0.17365936061573  0.2219164348601765  0.05288656893977622  1.0000
  C   C63       1.0  0.6736592773468288  0.7219176939372642  0.4471144788518657  1.0000
  C   C64       1.0  0.8263412649356494  0.7780853740934149  0.9471099825954354  1.0000
  C   C65       1.0  0.827415251534269  0.4285964531814131  0.08470206537468532  1.0000
  C   C66       1.0  0.6725791538740254  0.07140542041234  0.5847018494358168  1.0000
  C   C67       1.0  0.17258426175112615  0.571401392012703  0.9152974122439093  1.0000
  C   C68       1.0  0.3274194567368482  0.928593232205529  0.41530055426787993  1.0000
  N   N1        1.0  0.4579773455716065  0.2937447369655005  0.4109013323938272  1.0000
  N   N2        1.0  0.042020432092250794  0.2062537917576677  0.9109020243232209  1.0000
  N   N3        1.0  0.5420241128219274  0.7062546741732091  0.5891003397951096  1.0000
  N   N4        1.0  0.957980158538653  0.7937472219999082  0.0890974532987556  1.0000
  N   N5        1.0  0.35926739686020426  0.1739844419104841  0.5562690705635518  1.0000
  N   N6        1.0  0.14073608141530508  0.3260144836475264  0.056269073454402  1.0000
  N   N7        1.0  0.6407312486825842  0.8260150059045869  0.44373333314042906  1.0000
  N   N8        1.0  0.8592636065239248  0.6739873375320113  0.9437289411221029  1.0000
  O   O1        1.0  0.5535548874306286  0.11833806176115762  0.2988067787850994  1.0000
  O   O2        1.0  0.9464420249012659  0.3816615880947296  0.7988094930904951  1.0000
  O   O3        1.0  0.44644007749021586  0.8816630253482528  0.7011919673016963  1.0000
  O   O4        1.0  0.053558460928186884  0.6183370400706423  0.2011885214871043  1.0000
  O   O5        1.0  0.8749350376122038  0.3994391435861502  0.0035522678305426  1.0000
  O   O6        1.0  0.6250615461366068  0.10056262735258063  0.5035518396636363  1.0000
  O   O7        1.0  0.12506253058221253  0.600557135665163  0.9964494043482974  1.0000
  O   O8        1.0  0.3749344612178618  0.8994408331251691  0.49645202707858266  1.0000
  O   O9        1.0  0.8397598860293554  0.5220575741335693  0.1208063753011288  1.0000
  O   O10       1.0  0.660233381838111  0.9779444945235554  0.6208063078212618  1.0000
  O   O11       1.0  0.1602369541243647  0.4779434885248295  0.8791916392683776  1.0000
  O   O12       1.0  0.3397615481651215  0.0220557973901379  0.3791960958740574  1.0000
