data_image0
_chemical_formula_structural       Mn6H6C30O30
_chemical_formula_sum              "Mn6 H6 C30 O30"
_cell_length_a       7.035116858174967
_cell_length_b       15.35872478425142
_cell_length_c       15.361393200659014
_cell_angle_alpha    117.69784475784334
_cell_angle_beta     98.79242560664551
_cell_angle_gamma    98.77516309219692

_space_group_name_H-M_alt    "P 1"
_space_group_IT_number       1

loop_
  _space_group_symop_operation_xyz
  'x, y, z'

loop_
  _atom_site_type_symbol
  _atom_site_label
  _atom_site_symmetry_multiplicity
  _atom_site_fract_x
  _atom_site_fract_y
  _atom_site_fract_z
  _atom_site_occupancy
  Mn  Mn1       1.0  0.4722291511285873  0.26078161870548655  0.5877590754986031  1.0000
  Mn  Mn2       1.0  0.21153961720581543  0.3269788474813779  0.7392057110993733  1.0000
  Mn  Mn3       1.0  0.8845099859124588  0.4122852706526813  0.6731226915520168  1.0000
  Mn  Mn4       1.0  0.5277754699394633  0.7392177671473873  0.41223971846642377  1.0000
  Mn  Mn5       1.0  0.7884636484693175  0.6730235804057257  0.26079700616583773  1.0000
  Mn  Mn6       1.0  0.11549357714370247  0.5877148757244796  0.3268770329302342  1.0000
  H   H1        1.0  0.8030631702234029  0.4422306562141996  0.4655396203420993  1.0000
  H   H2        1.0  0.36079908855222703  0.02318458415664539  0.5576676113213992  1.0000
  H   H3        1.0  0.3375276454218863  0.5343694313166267  0.9767368905218561  1.0000
  H   H4        1.0  0.19693531735399009  0.5577679690275231  0.5344590418886243  1.0000
  H   H5        1.0  0.6392023585471802  0.9768170831470111  0.44233462512587346  1.0000
  H   H6        1.0  0.6624738014094405  0.4656322364752795  0.023262742203108536  1.0000
  C   C1        1.0  0.25869454334291925  0.43689005318622504  0.6075221256111547  1.0000
  C   C2        1.0  0.821751392106563  0.1706536427718176  0.5631307094852787  1.0000
  C   C3        1.0  0.6510663299431131  0.39252724539827705  0.8293899077180527  1.0000
  C   C4        1.0  0.7413028862225844  0.5631093325797706  0.39247746713679277  1.0000
  C   C5        1.0  0.17825149318612424  0.8293480247445185  0.4368703257164909  1.0000
  C   C6        1.0  0.34893473663980495  0.6074736617787336  0.1706093448046246  1.0000
  C   C7        1.0  0.38527943714417745  0.46613650005130564  0.5517793008863876  1.0000
  C   C8        1.0  0.9191860656419804  0.0856557852355735  0.5338854612684187  1.0000
  C   C9        1.0  0.8334694710090742  0.4482355509717732  0.914344714773442  1.0000
  C   C10       1.0  0.6147204887605255  0.5338621251589613  0.4482194619599865  1.0000
  C   C11       1.0  0.08081280231785834  0.9143436003769166  0.46611488302575316  1.0000
  C   C12       1.0  0.1665287189192101  0.5517653562681416  0.08565433651794045  1.0000
  C   C13       1.0  0.5603162327302654  0.43198374549893964  0.5318562079206544  1.0000
  C   C14       1.0  0.12835315236470987  0.09986446317140715  0.5680114193710253  1.0000
  C   C15       1.0  0.02844913487678725  0.4680779524237835  0.9001491644664625  1.0000
  C   C16       1.0  0.43968225484712786  0.5680148797427761  0.468142454310069  1.0000
  C   C17       1.0  0.8716475341708616  0.9001356830245226  0.43198940574108485  1.0000
  C   C18       1.0  0.9715508736272155  0.5319237153995714  0.09985036764285841  1.0000
  C   C19       1.0  0.6692928919601542  0.4675500683178696  0.4806317148096043  1.0000
  C   C20       1.0  0.20171887200012145  0.013030186646517398  0.5323864013141204  1.0000
  C   C21       1.0  0.1886467159904867  0.5192805409901664  0.9869559049015848  1.0000
  C   C22       1.0  0.33070559555021367  0.5324485570459103  0.5193662964905457  1.0000
  C   C23       1.0  0.7982825750992927  0.9869714806571392  0.4676158351331523  1.0000
  C   C24       1.0  0.8113532924464977  0.4807211269552523  0.013042976277162725  1.0000
  C   C25       1.0  0.28044994557315306  0.06651910297343018  0.3528255266910848  1.0000
  C   C26       1.0  0.21438165543832347  0.28620063414985697  0.9334208751169513  1.0000
  C   C27       1.0  0.928149957944271  0.6471606999049158  0.7137338938251077  1.0000
  C   C28       1.0  0.7195466408292078  0.933475719071758  0.6471718854587465  1.0000
  C   C29       1.0  0.7856205522249268  0.7138025542615338  0.06658277266548404  1.0000
  C   C30       1.0  0.07184163611478307  0.3528356426414304  0.2862684327807514  1.0000
  O   O1        1.0  0.3081570267387619  0.3777786761118165  0.6402110669853586  1.0000
  O   O2        1.0  0.9301970551093103  0.2624256528083819  0.6222048304354431  1.0000
  O   O3        1.0  0.6677977566401906  0.3597137125690961  0.7375994653961087  1.0000
  O   O4        1.0  0.6918422213354488  0.6222214703596904  0.3597883556499468  1.0000
  O   O5        1.0  0.06980506961953366  0.7375744936002274  0.377794793431164  1.0000
  O   O6        1.0  0.33220292982835525  0.6402864337488976  0.2624007087854281  1.0000
  O   O7        1.0  0.10489830053008119  0.4706319961928924  0.6226067411647449  1.0000
  O   O8        1.0  0.6342225583960611  0.15197603843980537  0.5293612450618781  1.0000
  O   O9        1.0  0.4822327442083676  0.3775784270906683  0.8480922980468223  1.0000
  O   O10       1.0  0.89509912883436  0.5293673899392954  0.377390898791475  1.0000
  O   O11       1.0  0.36577994671523567  0.8480248683395781  0.4706400608681775  1.0000
  O   O12       1.0  0.5177672642956425  0.6224232407326866  0.1519072340624988  1.0000
  O   O13       1.0  0.6278608140645402  0.36897681847897684  0.5599592514967711  1.0000
  O   O14       1.0  0.25886920779243633  0.1909227664578735  0.6310723560568974  1.0000
  O   O15       1.0  0.06787971684548914  0.4400343697207345  0.8090799570573566  1.0000
  O   O16       1.0  0.3721388143250976  0.6310240884853611  0.4400412022714093  1.0000
  O   O17       1.0  0.741132239306978  0.809078900845783  0.3689298803903752  1.0000
  O   O18       1.0  0.9321199114771301  0.5599665373656675  0.19091984578025023  1.0000
  O   O19       1.0  0.2928577321555892  0.9834088562842065  0.30221549423841043  1.0000
  O   O20       1.0  0.30974922342846867  0.3187154846323209  0.016560845895170855  1.0000
  O   O21       1.0  0.9910762177910755  0.6976958246073295  0.6811317057964743  1.0000
  O   O22       1.0  0.7071410530038874  0.016587487081380893  0.6977821280010872  1.0000
  O   O23       1.0  0.6902540422466642  0.6812869432547827  0.9834418713700402  1.0000
  O   O24       1.0  0.008918715904371818  0.3023043208599672  0.3188732733670747  1.0000
  O   O25       1.0  0.2660816103073315  0.15028093533440764  0.4020271363809371  1.0000
  O   O26       1.0  0.11631584570440621  0.25162788813165093  0.8496473042832378  1.0000
  O   O27       1.0  0.8646735142505616  0.5980218215682382  0.7483860063857647  1.0000
  O   O28       1.0  0.7339120995074068  0.8497138866516207  0.5979707254681799  1.0000
  O   O29       1.0  0.8836863620258695  0.7483753001576684  0.15035699442977082  1.0000
  O   O30       1.0  0.13531981531577486  0.4019722398028944  0.2516114752610576  1.0000
