data_image0
_chemical_formula_structural       Cd2H24C24N4Cl4F4
_chemical_formula_sum              "Cd2 H24 C24 N4 Cl4 F4"
_cell_length_a       6.607919092087457
_cell_length_b       7.367689048797133
_cell_length_c       14.787894659328012
_cell_angle_alpha    83.68202809919111
_cell_angle_beta     82.00287871541342
_cell_angle_gamma    72.30475594289042

_space_group_name_H-M_alt    "P 1"
_space_group_IT_number       1

loop_
  _space_group_symop_operation_xyz
  'x, y, z'

loop_
  _atom_site_type_symbol
  _atom_site_label
  _atom_site_symmetry_multiplicity
  _atom_site_fract_x
  _atom_site_fract_y
  _atom_site_fract_z
  _atom_site_occupancy
  Cd  Cd1       1.0  0.25086802271794534  0.5701580533612115  0.4439130877333782  1.0000
  Cd  Cd2       1.0  0.7491187311766511  0.4298490538392842  0.5560888021989072  1.0000
  H   H1        1.0  0.9589555957622551  0.996177229745392  0.3349746072197775  1.0000
  H   H2        1.0  0.04104279191103901  0.0038269648360085007  0.6650280750515878  1.0000
  H   H3        1.0  0.5068116199033171  0.5092905211738028  0.20026906231898076  1.0000
  H   H4        1.0  0.4931910624144606  0.49070509384601735  0.799731796367908  1.0000
  H   H5        1.0  0.6318709549906528  0.9460123227230214  0.2725927746986231  1.0000
  H   H6        1.0  0.3681367821419029  0.053981838700167394  0.7274064984843208  1.0000
  H   H7        1.0  0.8221608500211061  0.6133043263599872  0.23630737416549152  1.0000
  H   H8        1.0  0.17783723486531502  0.38670557081377405  0.7636909564875509  1.0000
  H   H9        1.0  0.7976752771630731  0.7924070758581436  0.08382413526641132  1.0000
  H   H10       1.0  0.20232863320394046  0.20759423363745097  0.91617227750924  1.0000
  H   H11       1.0  0.5620092943708669  0.11671707949309251  0.12043120760883853  1.0000
  H   H12       1.0  0.4379938513678709  0.8832771058314108  0.8795676721795047  1.0000
  H   H13       1.0  0.19072346565735634  0.23155482964385501  0.07578021113159393  1.0000
  H   H14       1.0  0.8092772290903127  0.7684422204971069  0.9242186631068706  1.0000
  H   H15       1.0  0.13122170684947315  0.8298419151884461  0.988363378451659  1.0000
  H   H16       1.0  0.868788783595953  0.17015793483623304  0.011634735893700605  1.0000
  H   H17       1.0  0.2505478365810276  0.947142477420961  0.45231479157806836  1.0000
  H   H18       1.0  0.7494519302102205  0.05285743255910091  0.5476887167307896  1.0000
  H   H19       1.0  0.03949702911180711  0.41118483856590865  0.3374623166549782  1.0000
  H   H20       1.0  0.9604987636537246  0.5888179412079637  0.6625365464837287  1.0000
  H   H21       1.0  0.4960192153785955  0.8294120008633  0.4122850087567329  1.0000
  H   H22       1.0  0.5039816266292476  0.17058932755625725  0.5877156502445899  1.0000
  H   H23       1.0  0.3012029643118339  0.32188019431977477  0.3113832371413637  1.0000
  H   H24       1.0  0.6987893033605274  0.6781240313826089  0.6886177934816902  1.0000
  C   C1        1.0  0.1637643074346115  0.5520118070392357  0.22814756307545997  1.0000
  C   C2        1.0  0.8362368473905377  0.44798381475179383  0.7718513610844014  1.0000
  C   C3        1.0  0.09294279069243322  0.02036346649975231  0.2886262649705102  1.0000
  C   C4        1.0  0.9070540683737461  0.9796407353013167  0.7113751590471368  1.0000
  C   C5        1.0  0.3503505278181437  0.5730827697299005  0.17621382349592812  1.0000
  C   C6        1.0  0.6496533758619025  0.42691854245646976  0.8237866469195866  1.0000
  C   C7        1.0  0.470521144736182  0.991687522329016  0.2524974145863653  1.0000
  C   C8        1.0  0.5294832190213512  0.008312361507414297  0.7475031057505391  1.0000
  C   C9        1.0  0.9651323535558946  0.6333356750621421  0.1952709838586202  1.0000
  C   C10       1.0  0.034870947244470964  0.3666627854017221  0.804724946779416  1.0000
  C   C11       1.0  0.06138374246520327  0.11546687579168947  0.2031471260493731  1.0000
  C   C12       1.0  0.9386144979479167  0.8845330405111157  0.7968537714591478  1.0000
  C   C13       1.0  0.30144900600618724  0.9580517347906152  0.31347906279119553  1.0000
  C   C14       1.0  0.6985524466827969  0.04195244221221369  0.6865214020744405  1.0000
  C   C15       1.0  0.9528654632267008  0.7330130635967508  0.1094268149152668  1.0000
  C   C16       1.0  0.0471393661807866  0.2669853896474379  0.8905703739764805  1.0000
  C   C17       1.0  0.4311396691397462  0.08726698618067989  0.16684558983555323  1.0000
  C   C18       1.0  0.5688616340600775  0.9127329134404787  0.8331544428138501  1.0000
  C   C19       1.0  0.3305267715022423  0.674051269717836  0.09156238362029971  1.0000
  C   C20       1.0  0.6694769860321302  0.3259457637414797  0.9084356257590471  1.0000
  C   C21       1.0  0.22486494273316282  0.1514313530966689  0.1409358676930097  1.0000
  C   C22       1.0  0.7751342178349248  0.8485657065062712  0.8590651296582906  1.0000
  C   C23       1.0  0.13651962556166802  0.7545946231296625  0.0559352148198329  1.0000
  C   C24       1.0  0.8634879665397008  0.24539525911800544  0.9440609210536409  1.0000
  N   N1        1.0  0.1778188633708381  0.4461411740686502  0.3148444946260583  1.0000
  N   N2        1.0  0.8221764659737328  0.5538630354005463  0.6851563474111871  1.0000
  N   N3        1.0  0.33818439288043584  0.8614597037965765  0.4014819525617455  1.0000
  N   N4        1.0  0.6618150677804662  0.13854591012123757  0.5985192329487108  1.0000
  Cl  Cl1       1.0  0.8381745480831169  0.7575534769579947  0.4744250776669717  1.0000
  Cl  Cl2       1.0  0.16181297155424085  0.24246075396511912  0.5255736689793125  1.0000
  Cl  Cl3       1.0  0.3395217558197244  0.6177630673508718  0.6065055145375454  1.0000
  Cl  Cl4       1.0  0.6604689814815997  0.3822269104577956  0.3935011263842014  1.0000
  F   F1        1.0  0.8571596050815203  0.17899875198404663  0.17937382083615463  1.0000
  F   F2        1.0  0.1428377140621393  0.8210040214670897  0.8206276531028892  1.0000
  F   F3        1.0  0.5124935250238352  0.6945936054724344  0.0401477620376056  1.0000
  F   F4        1.0  0.48751084096268466  0.30540627746707827  0.9598514057526801  1.0000
