data_image0
_chemical_formula_structural       Zn2H20C28S4N24
_chemical_formula_sum              "Zn2 H20 C28 S4 N24"
_cell_length_a       6.397932675085769
_cell_length_b       11.077865589366501
_cell_length_c       14.178124571831844
_cell_angle_alpha    90.00042926913294
_cell_angle_beta     94.30574985280165
_cell_angle_gamma    89.99986262643003

_space_group_name_H-M_alt    "P 1"
_space_group_IT_number       1

loop_
  _space_group_symop_operation_xyz
  'x, y, z'

loop_
  _atom_site_type_symbol
  _atom_site_label
  _atom_site_symmetry_multiplicity
  _atom_site_fract_x
  _atom_site_fract_y
  _atom_site_fract_z
  _atom_site_occupancy
  Zn  Zn1       1.0  0.4999806981829094  0.5000053623785873  0.49999592267544557  1.0000
  Zn  Zn2       1.0  1.39999138469e-05  2.7081295286e-06  2.7294735645000003e-06  1.0000
  H   H1        1.0  0.024104469189012396  0.9696324765018857  0.255073078247527  1.0000
  H   H2        1.0  0.475900816381241  0.4696359527830367  0.2449254470904094  1.0000
  H   H3        1.0  0.9759160272133656  0.030358388938502397  0.7449305254127624  1.0000
  H   H4        1.0  0.5240965188155471  0.5303684532460408  0.75507008804059  1.0000
  H   H5        1.0  0.6346105214829478  0.813643706030554  0.03624825494939191  1.0000
  H   H6        1.0  0.8653655889831099  0.3136343797425667  0.4637545978624757  1.0000
  H   H7        1.0  0.3653803381844369  0.18637694843025807  0.9637512299907485  1.0000
  H   H8        1.0  0.13460615606789614  0.686371831159036  0.5362503991509371  1.0000
  H   H9        1.0  0.5664477173930322  0.6537707606525133  0.3202599155932546  1.0000
  H   H10       1.0  0.9335584561710064  0.15376703150710108  0.179733692280891  1.0000
  H   H11       1.0  0.4335527519930054  0.3462300345944059  0.6797357566656358  1.0000
  H   H12       1.0  0.0664557718981698  0.8462292500956465  0.8202696370779207  1.0000
  H   H13       1.0  0.9057926756695024  0.9210599944709015  0.5572223558454752  1.0000
  H   H14       1.0  0.5942042647120757  0.4210619579559136  0.9427805748861645  1.0000
  H   H15       1.0  0.09419021132240601  0.0789398977184916  0.44277960141182143  1.0000
  H   H16       1.0  0.40580999786715216  0.5789334209695766  0.0572220504770584  1.0000
  H   H17       1.0  0.7187875035495281  0.7325268450653154  0.6047389317646009  1.0000
  H   H18       1.0  0.7811998844438007  0.23252427474456275  0.8952578547309002  1.0000
  H   H19       1.0  0.2811830195526923  0.26747033905282785  0.3952589566833069  1.0000
  H   H20       1.0  0.218814378044847  0.7674747149848002  0.10474477072372679  1.0000
  C   C1        1.0  0.9043755424142077  0.9180067164118813  0.21443038987255392  1.0000
  C   C2        1.0  0.5956271556392139  0.4180038175511526  0.2855692631377877  1.0000
  C   C3        1.0  0.09564502284976577  0.08198866258075549  0.7855718059565149  1.0000
  C   C4        1.0  0.40436537506056425  0.5819960748693659  0.7144281779682303  1.0000
  C   C5        1.0  0.7040605915355869  0.8343444997886847  0.1063717454135755  1.0000
  C   C6        1.0  0.7959224190043769  0.3343368687298138  0.3936303865655261  1.0000
  C   C7        1.0  0.2959394981719115  0.1656689330110055  0.893631670865318  1.0000
  C   C8        1.0  0.2040541652348509  0.6656657314953377  0.6063720002944848  1.0000
  C   C9        1.0  0.6444069964131174  0.7112066807839241  0.3740983696661502  1.0000
  C   C10       1.0  0.8555932303165719  0.21120522584526918  0.1258966008403775  1.0000
  C   C11       1.0  0.35559190596887896  0.2887923090502014  0.625897233937394  1.0000
  C   C12       1.0  0.14441309353111353  0.788791055655757  0.874107793415682  1.0000
  C   C13       1.0  0.7546514156624156  0.8140684881767586  0.3495889757397137  1.0000
  C   C14       1.0  0.745351485521347  0.31406896922153743  0.1504115453256318  1.0000
  C   C15       1.0  0.24535511520031145  0.1859241826626459  0.6504111945885285  1.0000
  C   C16       1.0  0.2546517732477795  0.6859255069032456  0.8495913037199614  1.0000
  C   C17       1.0  0.8319487119934124  0.8601947259943611  0.5040416025815517  1.0000
  C   C18       1.0  0.6680481135465612  0.3601952926856526  0.9959588135150952  1.0000
  C   C19       1.0  0.1680311098972922  0.1398042635197569  0.4959588094881369  1.0000
  C   C20       1.0  0.3319677505014766  0.6398027943773101  0.004043176553587101  1.0000
  C   C21       1.0  0.7268046990223027  0.7564852577791966  0.5305767919287518  1.0000
  C   C22       1.0  0.7731894255934222  0.2564848403664826  0.9694194386651418  1.0000
  C   C23       1.0  0.2731704906499317  0.24351553715169416  0.46942200641223053  1.0000
  C   C24       1.0  0.2268264384772607  0.743512343995512  0.0305825513806965  1.0000
  C   C25       1.0  0.16028031090010583  0.5587936771256211  0.3355240504090204  1.0000
  C   C26       1.0  0.3397101118684275  0.0587984162888304  0.16447258171398  1.0000
  C   C27       1.0  0.8396966527685593  0.4412062152574095  0.6644705926823421  1.0000
  C   C28       1.0  0.6603213192107303  0.9411996708116207  0.835532206369372  1.0000
  S   S1        1.0  0.0634000788992424  0.579565779064403  0.22819144145670123  1.0000
  S   S2        1.0  0.4365911447182358  0.07956771041869358  0.271800679027308  1.0000
  S   S3        1.0  0.9365883026096071  0.4204277947960833  0.7717945300966561  1.0000
  S   S4        1.0  0.5634403553810257  0.9204285713272358  0.7282027010648662  1.0000
  N   N1        1.0  0.6350766086291982  0.6820959845885141  0.4650349897885492  1.0000
  N   N2        1.0  0.8649202740240014  0.1820944175734241  0.0349604130520405  1.0000
  N   N3        1.0  0.364904987144719  0.3179066158825918  0.5349612671457677  1.0000
  N   N4        1.0  0.13509712256331602  0.8179045721776603  0.965042349621875  1.0000
  N   N5        1.0  0.8494387277204325  0.8886031955089705  0.4129175817896354  1.0000
  N   N6        1.0  0.6505668745724477  0.3886035918818819  0.0870834672278633  1.0000
  N   N7        1.0  0.1505630329515313  0.11139218335333109  0.5870837907236891  1.0000
  N   N8        1.0  0.3494457864473972  0.6113926897100015  0.9129197935213043  1.0000
  N   N9        1.0  0.6422769755050695  0.78633212260096  0.1848467279779129  1.0000
  N   N10       1.0  0.8577130416038372  0.28632352765680474  0.31515529105878676  1.0000
  N   N11       1.0  0.3577265243362433  0.21367589420430733  0.8151511936012739  1.0000
  N   N12       1.0  0.1422759411257175  0.7136772671584595  0.6848504605236271  1.0000
  N   N13       1.0  0.8648546130324846  0.9154151340727523  0.12089199890673541  1.0000
  N   N14       1.0  0.6351341461145026  0.4154111881543087  0.37910620141662577  1.0000
  N   N15       1.0  0.1351549826370615  0.08459017455451348  0.8791097169061644  1.0000
  N   N16       1.0  0.36484278302146583  0.5845905096069542  0.6208891456931696  1.0000
  N   N17       1.0  0.7708599043693808  0.8410021030434078  0.2533702499254105  1.0000
  N   N18       1.0  0.7291401130487074  0.3409986184554938  0.24663086199304024  1.0000
  N   N19       1.0  0.2291560632088192  0.15899327598777546  0.7466296281565121  1.0000
  N   N20       1.0  0.27085214179708567  0.6589994683734232  0.7533722108491716  1.0000
  N   N21       1.0  0.23306026842502803  0.5427416423736134  0.4143399898919212  1.0000
  N   N22       1.0  0.26693273370891285  0.0427449885492734  0.0856516743218947  1.0000
  N   N23       1.0  0.7669043655696156  0.4572663743734963  0.5856498806915056  1.0000
  N   N24       1.0  0.7330941684554801  0.9572612229458527  0.9143493882744878  1.0000
