data_image0
_chemical_formula_structural       Zn4P4H20C20N4O12
_chemical_formula_sum              "Zn4 P4 H20 C20 N4 O12"
_cell_length_a       7.440771217002043
_cell_length_b       9.69148017542602
_cell_length_c       10.09188778737267
_cell_angle_alpha    99.59064626974661
_cell_angle_beta     90.00000989087138
_cell_angle_gamma    89.99991509021743

_space_group_name_H-M_alt    "P 1"
_space_group_IT_number       1

loop_
  _space_group_symop_operation_xyz
  'x, y, z'

loop_
  _atom_site_type_symbol
  _atom_site_label
  _atom_site_symmetry_multiplicity
  _atom_site_fract_x
  _atom_site_fract_y
  _atom_site_fract_z
  _atom_site_occupancy
  Zn  Zn1       1.0  0.565608876540786  0.6264375206767738  0.8592810283803586  1.0000
  Zn  Zn2       1.0  0.934391826851588  0.6264384501066971  0.3592806056497365  1.0000
  Zn  Zn3       1.0  0.4343914552803909  0.3735617996689058  0.140719665578807  1.0000
  Zn  Zn4       1.0  0.0656085049684805  0.3735619196360175  0.6407192681040355  1.0000
  P   P1        1.0  0.6148697833918889  0.663179687302339  0.17662936605763946  1.0000
  P   P2        1.0  0.8851308059868258  0.6631794410160552  0.6766289504217224  1.0000
  P   P3        1.0  0.38513054842818667  0.33682068244037566  0.8233705076961326  1.0000
  P   P4        1.0  0.1148681818865356  0.3368209287274269  0.3233709233320923  1.0000
  H   H1        1.0  0.49035570207244217  0.7729670597917176  0.17317991643957947  1.0000
  H   H2        1.0  0.009643493929694104  0.7729682903646233  0.6731796923607901  1.0000
  H   H3        1.0  0.5096446297476264  0.22703330995099694  0.8268199573141926  1.0000
  H   H4        1.0  0.9903568378893796  0.22703312583420399  0.3268203516080205  1.0000
  H   H5        1.0  0.20143428954165904  0.6114489218613954  0.981799283140553  1.0000
  H   H6        1.0  0.2985679791726739  0.6114479111277189  0.4817995181203542  1.0000
  H   H7        1.0  0.7985646983325696  0.388550404366903  0.018199429977784072  1.0000
  H   H8        1.0  0.7014350405415684  0.388551418039185  0.5181982045774375  1.0000
  H   H9        1.0  0.9496924842595718  0.7711511135505235  0.053032384550313304  1.0000
  H   H10       1.0  0.550307867351492  0.7711512539972034  0.5530309975247858  1.0000
  H   H11       1.0  0.0503078475604966  0.22884925619218424  0.9469674892034589  1.0000
  H   H12       1.0  0.4496924644683419  0.22884912162735563  0.44696689538812245  1.0000
  H   H13       1.0  0.2396404982066898  0.09097036104673609  0.8853433358659331  1.0000
  H   H14       1.0  0.2603600657761831  0.09097044056417052  0.38534374323240417  1.0000
  H   H15       1.0  0.7603598336134991  0.9090300057550494  0.11465752830827115  1.0000
  H   H16       1.0  0.7396402660430185  0.9090309726937277  0.6146572911568383  1.0000
  H   H17       1.0  0.4813310385441767  0.9155457890782511  0.8221717207565218  1.0000
  H   H18       1.0  0.018669260939141497  0.9155471920907271  0.32217231207535946  1.0000
  H   H19       1.0  0.5186692932768864  0.08445353420835029  0.17782798278221174  1.0000
  H   H20       1.0  0.9813324148277617  0.08445317471029766  0.677828552098802  1.0000
  C   C1        1.0  0.20497413874095116  0.7194533708851054  0.9642040961570754  1.0000
  C   C2        1.0  0.29502657315358505  0.719453416547843  0.46420252071229834  1.0000
  C   C3        1.0  0.795024849133398  0.28054595240227087  0.03579560738169359  1.0000
  C   C4        1.0  0.7049710707728281  0.2805469590782579  0.5357953722006883  1.0000
  C   C5        1.0  0.06449656325798261  0.8111850875005259  0.004459140377186112  1.0000
  C   C6        1.0  0.4355038631053176  0.8111847864147491  0.5044577314576982  1.0000
  C   C7        1.0  0.9355037685631942  0.1888142328451536  0.9955415535819795  1.0000
  C   C8        1.0  0.564496468715504  0.188814542753704  0.49553999124016446  1.0000
  C   C9        1.0  0.0728572371961391  0.9491302598948932  0.9791389585781258  1.0000
  C   C10       1.0  0.4271443782895616  0.9491301482357245  0.47913935646486294  1.0000
  C   C11       1.0  0.927143094624924  0.050869063391708394  0.0208607449606077  1.0000
  C   C12       1.0  0.5728586414249223  0.05086917504933551  0.5208603470737926  1.0000
  C   C13       1.0  0.22538439274961058  0.9868869664764471  0.9110155274773813  1.0000
  C   C14       1.0  0.2746157897814571  0.9868859831968705  0.4110157638185326  1.0000
  C   C15       1.0  0.7746159390705786  0.013113400325344996  0.08898533669682247  1.0000
  C   C16       1.0  0.7253845420387321  0.0131143836049219  0.5889851003556714  1.0000
  C   C17       1.0  0.360568050077184  0.8897155477663998  0.8742453278185988  1.0000
  C   C18       1.0  0.13943231158590666  0.889717858809874  0.3742460824884901  1.0000
  C   C19       1.0  0.6394322817448667  0.11028272906408888  0.12575420550510324  1.0000
  C   C20       1.0  0.8605653323397533  0.11028355739048831  0.6257539614803987  1.0000
  N   N1        1.0  0.3517021638932007  0.7581895447711345  0.9011825866272785  1.0000
  N   N2        1.0  0.14829845830082183  0.7581897586215262  0.4011810195222977  1.0000
  N   N3        1.0  0.6482981679279832  0.24180977557454497  0.09881810733188698  1.0000
  N   N4        1.0  0.851701873519012  0.2418106170030327  0.5988168733906105  1.0000
  O   O1        1.0  0.6770770781828332  0.6109448379795664  0.031651478879666725  1.0000
  O   O2        1.0  0.822923578008222  0.6109446629986123  0.5316510667795169  1.0000
  O   O3        1.0  0.3229219096905211  0.3890555317639155  0.9683483948741407  1.0000
  O   O4        1.0  0.17707675381284105  0.3890546602879894  0.4683486367592166  1.0000
  O   O5        1.0  0.5179820933789828  0.5506782194020232  0.24053896159161067  1.0000
  O   O6        1.0  0.9820200724136117  0.5506789055721129  0.7405397010841737  1.0000
  O   O7        1.0  0.482018238443068  0.4493200574284727  0.7594605717320845  1.0000
  O   O8        1.0  0.01798160335329161  0.44932146122890526  0.25946116308999473  1.0000
  O   O9        1.0  0.7706170227635027  0.7327652773936819  0.26357445491910164  1.0000
  O   O10       1.0  0.7293834526062922  0.7327652096333777  0.7635740481356235  1.0000
  O   O11       1.0  0.22938330905669346  0.2672350894081105  0.7364264092551023  1.0000
  O   O12       1.0  0.27061687921389693  0.2672351571684145  0.23642681603858046  1.0000
