data_image0
_chemical_formula_structural       Cu6H12C20N12Cl6
_chemical_formula_sum              "Cu6 H12 C20 N12 Cl6"
_cell_length_a       6.516985360360526
_cell_length_b       7.968325016335379
_cell_length_c       13.636922353259726
_cell_angle_alpha    96.07771353114116
_cell_angle_beta     90.00122185268782
_cell_angle_gamma    90.00008430470174

_space_group_name_H-M_alt    "P 1"
_space_group_IT_number       1

loop_
  _space_group_symop_operation_xyz
  'x, y, z'

loop_
  _atom_site_type_symbol
  _atom_site_label
  _atom_site_symmetry_multiplicity
  _atom_site_fract_x
  _atom_site_fract_y
  _atom_site_fract_z
  _atom_site_occupancy
  Cu  Cu1       1.0  0.7595049279406255  9.045995618399813e-06  0.7499996375052903  1.0000
  Cu  Cu2       1.0  0.2404934148906364  0.99999619565898  0.2500019071083912  1.0000
  Cu  Cu3       1.0  0.7826343127589583  0.4028508868090981  0.6301508015464492  1.0000
  Cu  Cu4       1.0  0.21737679035705773  0.402844746377383  0.1301468347118231  1.0000
  Cu  Cu5       1.0  0.21736709896799064  0.5971505686692282  0.3698505129955549  1.0000
  Cu  Cu6       1.0  0.7826246212579875  0.5971516465758456  0.8698497723517918  1.0000
  H   H1        1.0  0.6547570395316455  0.1639647942292513  0.2752924122374196  1.0000
  H   H2        1.0  0.3452220487890401  0.163970743605482  0.7752883824321799  1.0000
  H   H3        1.0  0.3452336309375995  0.8360316010868374  0.7247049282213567  1.0000
  H   H4        1.0  0.6547686217530355  0.8360281853537045  0.2247120452150497  1.0000
  H   H5        1.0  0.16996205587436455  0.08509521088571152  0.4656250481872064  1.0000
  H   H6        1.0  0.8300425621937676  0.0851014623069659  0.9656155570831969  1.0000
  H   H7        1.0  0.8300485627428812  0.9149113166550863  0.5343839076766059  1.0000
  H   H8        1.0  0.1699711249023892  0.9149037436646168  0.03437498586887951  1.0000
  H   H9        1.0  0.35429291644150845  0.25470917583915303  0.6039324884940028  1.0000
  H   H10       1.0  0.6457152376980205  0.25468801618883663  0.1039245049833184  1.0000
  H   H11       1.0  0.6457192365653199  0.7452998663028508  0.3960736869719099  1.0000
  H   H12       1.0  0.3542923116345662  0.7453058407508595  0.8960682814734966  1.0000
  C   C1        1.0  0.6874213801969375  0.2762687801843171  0.425412363468034  1.0000
  C   C2        1.0  0.3125847236357586  0.27625317171018793  0.9254081678277258  1.0000
  C   C3        1.0  0.31258003154324854  0.7237389855962277  0.5745893345525204  1.0000
  C   C4        1.0  0.6874059469304684  0.7237331437862338  0.07459369321018978  1.0000
  C   C5        1.0  0.5845590925521478  0.18197874482368095  0.3481281659019331  1.0000
  C   C6        1.0  0.41541723582346896  0.18197733170875804  0.8481177820007061  1.0000
  C   C7        1.0  0.4154392503830663  0.8180277731746841  0.6518778561030062  1.0000
  C   C8        1.0  0.5845857102327942  0.8180140130052321  0.151878518287802  1.0000
  C   C9        1.0  0.3197534805547306  0.14037077594020528  0.4540870805884012  1.0000
  C   C10       1.0  0.6802506838204534  0.14037779824153057  0.9540768907106667  1.0000
  C   C11       1.0  0.6802463968216941  0.8596306938189143  0.5459186346414313  1.0000
  C   C12       1.0  0.31974612433158  0.8596236262820157  0.0459148889677863  1.0000
  C   C13       1.0  0.4227814739580822  0.2329566756402102  0.5307698044306974  1.0000
  C   C14       1.0  0.5772202129799311  0.23294412473372011  0.0307616678413467  1.0000
  C   C15       1.0  0.5772168689681934  0.7670536261589262  0.469235714212111  1.0000
  C   C16       1.0  0.4227827329955575  0.7670409001558411  0.9692313151715766  1.0000
  C   C17       1.0  0.12633325581038693  0.6417046676574784  0.5936812266961269  1.0000
  C   C18       1.0  0.8736688309232292  0.6416779607208838  0.0936788232628487  1.0000
  C   C19       1.0  0.873677362788989  0.35830942748487615  0.406326722443417  1.0000
  C   C20       1.0  0.12631723618361693  0.3583070784241826  0.9063185603606172  1.0000
  N   N1        1.0  0.6085389016473215  0.30193742797424516  0.5182484863489805  1.0000
  N   N2        1.0  0.39145923678925953  0.30192555324089915  0.018246623161168405  1.0000
  N   N3        1.0  0.39145790665566693  0.6980715879563915  0.48174962109779784  1.0000
  N   N4        1.0  0.6085437093408218  0.6980607551340795  0.9817530375907993  1.0000
  N   N5        1.0  0.39959040336441387  0.11363689046022069  0.3619451979284136  1.0000
  N   N6        1.0  0.600398740848803  0.11364364253385162  0.8619320033939957  1.0000
  N   N7        1.0  0.6004079395913209  0.8863633219970312  0.6380619074965068  1.0000
  N   N8        1.0  0.3996011362485632  0.8863615729371901  0.1380614732855534  1.0000
  N   N9        1.0  0.9789425772218651  0.5677665129490849  0.6123682883515399  1.0000
  N   N10       1.0  0.021057197307413802  0.5677496529883327  0.11236906488530708  1.0000
  N   N11       1.0  0.021063437869457895  0.43223115873605183  0.38763352957578684  1.0000
  N   N12       1.0  0.9789365420584917  0.4322353861693813  0.8876283187768053  1.0000
  Cl  Cl1       1.0  0.5388158150089808  0.4999951774076409  0.7499961467237171  1.0000
  Cl  Cl2       1.0  0.46117332105379216  0.49999870092669596  0.2500032406836894  1.0000
  Cl  Cl3       1.0  0.9787855298514287  0.1697735547982191  0.6679796346962376  1.0000
  Cl  Cl4       1.0  0.0212254536945338  0.1697680467757294  0.16797890278206754  1.0000
  Cl  Cl5       1.0  0.021220485197190407  0.8302278959265905  0.3320202129704342  1.0000
  Cl  Cl6       1.0  0.9787728891598989  0.8302321513982065  0.8320238019472939  1.0000
