data_image0
_chemical_formula_structural       Sr2H12C12S4N8O12
_chemical_formula_sum              "Sr2 H12 C12 S4 N8 O12"
_cell_length_a       5.941506461148568
_cell_length_b       7.2547187607861385
_cell_length_c       14.188360473035718
_cell_angle_alpha    92.73769112638841
_cell_angle_beta     101.36266672158614
_cell_angle_gamma    97.73598138254764

_space_group_name_H-M_alt    "P 1"
_space_group_IT_number       1

loop_
  _space_group_symop_operation_xyz
  'x, y, z'

loop_
  _atom_site_type_symbol
  _atom_site_label
  _atom_site_symmetry_multiplicity
  _atom_site_fract_x
  _atom_site_fract_y
  _atom_site_fract_z
  _atom_site_occupancy
  Sr  Sr1       1.0  0.1778050997941563  0.7709778311828687  0.4816416005106204  1.0000
  Sr  Sr2       1.0  0.8221896484417074  0.22902450875056246  0.5183606924356852  1.0000
  H   H1        1.0  0.2870730494192272  0.7001680566856406  0.9799340625493966  1.0000
  H   H2        1.0  0.7129263550027218  0.2998315094680565  0.02006855304339438  1.0000
  H   H3        1.0  0.7851634381969106  0.7821491494644944  0.9505544993804305  1.0000
  H   H4        1.0  0.21482714278748458  0.21784897727268773  0.04944312002853479  1.0000
  H   H5        1.0  0.19693267079198054  0.6668611448453562  0.1468714972655718  1.0000
  H   H6        1.0  0.803065759082024  0.3331426040315719  0.8531318394942813  1.0000
  H   H7        1.0  0.91181766360436  0.9124924836122544  0.16063778584329205  1.0000
  H   H8        1.0  0.08818174762357962  0.08750707416323418  0.8393627157042045  1.0000
  H   H9        1.0  0.558963952569279  0.8468268475697229  0.7873584405215155  1.0000
  H   H10       1.0  0.44103276291176746  0.1531671045753527  0.21263677263654296  1.0000
  H   H11       1.0  0.17043021258466953  0.5974025070747758  0.7605945488574546  1.0000
  H   H12       1.0  0.8295709095515208  0.4025970645820323  0.23940820972248383  1.0000
  C   C1        1.0  0.3647748053688957  0.7252752696070672  0.1337077310371839  1.0000
  C   C2        1.0  0.6352265629769533  0.2747256999870089  0.8662957853820074  1.0000
  C   C3        1.0  0.5690131747282267  0.8016343985669891  0.1974091809828522  1.0000
  C   C4        1.0  0.4309882004236059  0.1983665626488786  0.8025922213910448  1.0000
  C   C5        1.0  0.7311664113323458  0.8497256158807007  0.13884508912600066  1.0000
  C   C6        1.0  0.26883275141727137  0.15027254675025153  0.8611553592640177  1.0000
  C   C7        1.0  0.7201378288308931  0.7885852640111041  0.7979779119502197  1.0000
  C   C8        1.0  0.2798571666672416  0.21140868542359934  0.2020178629024585  1.0000
  C   C9        1.0  0.8417417527359845  0.7264345617529173  0.731289756492373  1.0000
  C   C10       1.0  0.15826085224809816  0.2735636035060481  0.2687088638266459  1.0000
  C   C11       1.0  0.036233432659855694  0.6613755040766093  0.786213157575858  1.0000
  C   C12       1.0  0.9637657323584179  0.33862265576160405  0.21378658613239307  1.0000
  S   S1        1.0  0.614933095664817  0.826679450362832  0.3233636852205065  1.0000
  S   S2        1.0  0.38507024794824213  0.17332290870794514  0.6766372086162561  1.0000
  S   S3        1.0  0.7552286682200559  0.7115591571488764  0.6059674552503509  1.0000
  S   S4        1.0  0.2447813045776357  0.28844182041160593  0.3940318433322361  1.0000
  N   N1        1.0  0.6327614277485338  0.8065322501687435  0.04564711981166881  1.0000
  N   N2        1.0  0.3672360150181717  0.19346590975183633  0.9543538902729622  1.0000
  N   N3        1.0  0.4106628770330261  0.7302635922030448  0.04431281599099889  1.0000
  N   N4        1.0  0.589333091960441  0.26973596294443075  0.9556895136274901  1.0000
  N   N5        1.0  0.03480035818278539  0.6830735973705941  0.8805738299710624  1.0000
  N   N6        1.0  0.9651902159956194  0.31692453774480367  0.11942590348320434  1.0000
  N   N7        1.0  0.8419800162025408  0.761886093129135  0.8857278191294141  1.0000
  N   N8        1.0  0.1580105647818471  0.23811203360804709  0.11426980027955119  1.0000
  O   O1        1.0  0.3936016817842115  0.7466345974754773  0.34623080890768415  1.0000
  O   O2        1.0  0.6064006872809032  0.2533719443185234  0.6537708060961407  1.0000
  O   O3        1.0  0.8069642288734612  0.7224731333881849  0.35691495780669397  1.0000
  O   O4        1.0  0.1930366515903899  0.277525034745878  0.6430856335704715  1.0000
  O   O5        1.0  0.6744618840759032  0.027777841966802393  0.3519321576451375  1.0000
  O   O6        1.0  0.3255500526456885  0.972224539034059  0.6480680417638426  1.0000
  O   O7        1.0  0.8118495852628271  0.8959886082068425  0.5694046721599548  1.0000
  O   O8        1.0  0.1881643050919735  0.1040054017620875  0.4305926755513809  1.0000
  O   O9        1.0  0.900000281690076  0.5814368426471432  0.5729068272355207  1.0000
  O   O10       1.0  0.0999947047334189  0.4185571179585139  0.4270917663442119  1.0000
  O   O11       1.0  0.5078522050857474  0.643175352463338  0.5840935104916624  1.0000
  O   O12       1.0  0.49215239226222723  0.3568339683664234  0.4159041257236852  1.0000
