data_image0
_chemical_formula_structural       Cd6H104C156N16O26
_chemical_formula_sum              "Cd6 H104 C156 N16 O26"
_cell_length_a       14.835489878098985
_cell_length_b       15.591890610895684
_cell_length_c       19.256497055190323
_cell_angle_alpha    112.84856620682704
_cell_angle_beta     111.58198617494271
_cell_angle_gamma    92.46265794521211

_space_group_name_H-M_alt    "P 1"
_space_group_IT_number       1

loop_
  _space_group_symop_operation_xyz
  'x, y, z'

loop_
  _atom_site_type_symbol
  _atom_site_label
  _atom_site_symmetry_multiplicity
  _atom_site_fract_x
  _atom_site_fract_y
  _atom_site_fract_z
  _atom_site_occupancy
  Cd  Cd1       1.0  0.7525318576465166  0.26264076789406227  0.0638449096533193  1.0000
  Cd  Cd2       1.0  0.18861651352681003  0.19877186576854203  0.936121286548342  1.0000
  Cd  Cd3       1.0  0.9650664003715759  0.8139713903382955  0.17987176081982167  1.0000
  Cd  Cd4       1.0  0.2851569390929141  0.6342528711511546  0.8201970009419451  1.0000
  Cd  Cd5       1.0  0.036513739921815586  0.27478314701153284  0.07601613278298197  1.0000
  Cd  Cd6       1.0  0.4607232223753427  0.19884160481795723  0.9240361614629858  1.0000
  H   H1        1.0  0.8099643997950207  0.9706616031106703  0.14213823606012702  1.0000
  H   H2        1.0  0.1679279117122262  0.8285155494032351  0.8578424984725924  1.0000
  H   H3        1.0  0.8036769191252159  0.446971342270352  0.03020325397404382  1.0000
  H   H4        1.0  0.27316249777985746  0.4167269309624828  0.9697449395311816  1.0000
  H   H5        1.0  0.09504291572458352  0.6438024304706713  0.16182595785473083  1.0000
  H   H6        1.0  0.4331992514082046  0.482099931796803  0.8382300324130151  1.0000
  H   H7        1.0  0.05058837027385719  0.07030009065768889  0.08823798469398267  1.0000
  H   H8        1.0  0.4622418174905149  0.9822068522569368  0.9117413567265442  1.0000
  H   H9        1.0  0.93316834231787  0.3353593284107248  0.1998598515088189  1.0000
  H   H10       1.0  0.23342082759557303  0.13539638900049764  0.8001471976568123  1.0000
  H   H11       1.0  0.940522737849754  0.22343687726885259  0.15661549785426832  1.0000
  H   H12       1.0  0.28401169200966336  0.0668123827913476  0.8434371753061353  1.0000
  H   H13       1.0  0.5342566124791475  0.19637393267976216  0.7910639330554187  1.0000
  H   H14       1.0  0.24301319981195485  0.4055846132277452  0.20906551727007636  1.0000
  H   H15       1.0  0.4812929318532537  0.15290477454174578  0.6428613381553274  1.0000
  H   H16       1.0  0.33845761474584873  0.5104033575564556  0.3572505257967789  1.0000
  H   H17       1.0  0.7866736177712778  0.2320463748510093  0.6868389693332086  1.0000
  H   H18       1.0  0.5997233974988417  0.5446741989443495  0.31299363968685856  1.0000
  H   H19       1.0  0.8382582153487022  0.2809359877629872  0.8373147449037074  1.0000
  H   H20       1.0  0.5007592478840692  0.4430671382682903  0.16255125644646284  1.0000
  H   H21       1.0  0.46217831352003447  0.213608834321164  0.5494478011314994  1.0000
  H   H22       1.0  0.41276823770341037  0.6640308292857212  0.4504838100755036  1.0000
  H   H23       1.0  0.5111758528726112  0.08407040308040338  0.3284158314712257  1.0000
  H   H24       1.0  0.6826670248694098  0.755512372984704  0.6715825071028119  1.0000
  H   H25       1.0  0.7264114610540274  0.10477860283435798  0.5597407321886789  1.0000
  H   H26       1.0  0.666718221092047  0.5449215238254084  0.44019475566228283  1.0000
  H   H27       1.0  0.6450859383544978  0.10999524461658439  0.31170391008625825  1.0000
  H   H28       1.0  0.8332377534354121  0.7982553220363613  0.6882597133794445  1.0000
  H   H29       1.0  0.7484480095451287  0.03568257709107311  0.2394355207388798  1.0000
  H   H30       1.0  0.008972913435854851  0.796263171796589  0.7604762844545261  1.0000
  H   H31       1.0  0.85092982127027  0.8957148244637948  0.3979025416615155  1.0000
  H   H32       1.0  0.9530445986968629  0.49776132940731077  0.6021421033529675  1.0000
  H   H33       1.0  0.7482163011193846  0.9710420945023513  0.47218214495035216  1.0000
  H   H34       1.0  0.7760563900687811  0.4987689224095817  0.5278823158618378  1.0000
  H   H35       1.0  0.3424312076835888  0.03408248282712379  0.2769094760328342  1.0000
  H   H36       1.0  0.5654179573021805  0.7570020687466651  0.7230401530399175  1.0000
  H   H37       1.0  0.21072872677357415  0.07831881448326777  0.1823224274459178  1.0000
  H   H38       1.0  0.5283628512338437  0.8958969911561494  0.8176509529164161  1.0000
  H   H39       1.0  0.26696026296883696  0.3547929047490399  0.38133671980436634  1.0000
  H   H40       1.0  0.38533527791860656  0.9732001601414736  0.6185174328203827  1.0000
  H   H41       1.0  0.40264375581555345  0.31208966312151887  0.4764737332090971  1.0000
  H   H42       1.0  0.42587340909751953  0.8352908698611828  0.5234292118993621  1.0000
  H   H43       1.0  0.014726492333139196  0.10018040855400297  0.789532279330579  1.0000
  H   H44       1.0  0.7252965542343046  0.3109603272652137  0.21065595994279812  1.0000
  H   H45       1.0  0.9246149070334723  0.9900748696512736  0.6409115157439016  1.0000
  H   H46       1.0  0.7836587815503431  0.3493559130925235  0.35925851917585283  1.0000
  H   H47       1.0  0.6673284780329779  0.929827045805382  0.6824434746003828  1.0000
  H   H48       1.0  0.48490718240272906  0.24728275645571068  0.31758062386322183  1.0000
  H   H49       1.0  0.7612854562019462  0.03701146537095921  0.832906482424043  1.0000
  H   H50       1.0  0.42848926167241064  0.20413124961261525  0.16716746351367104  1.0000
  H   H51       1.0  0.8559779632065767  0.8212955551660812  0.5498279147403052  1.0000
  H   H52       1.0  0.8060067239042182  0.2714180012039975  0.45025613275002  1.0000
  H   H53       1.0  0.5836187105719971  0.7187886049437108  0.32847896275922733  1.0000
  H   H54       1.0  0.7550246554499292  0.39044977303414896  0.6716052985063141  1.0000
  H   H55       1.0  0.6003467030820742  0.9383689283773151  0.5559754060870004  1.0000
  H   H56       1.0  0.5444225495184084  0.38259016784418515  0.4441026907377504  1.0000
  H   H57       1.0  0.43173140115152353  0.6807603677919901  0.30921211935039133  1.0000
  H   H58       1.0  0.6223724566795709  0.3718201292961467  0.6907950798858591  1.0000
  H   H59       1.0  0.2550270798595874  0.6807468734952876  0.24281348217029827  1.0000
  H   H60       1.0  0.5121267608632748  0.4382513755580532  0.757164987124099  1.0000
  H   H61       1.0  0.3117447669305377  0.9800713839162185  0.39975573552108284  1.0000
  H   H62       1.0  0.4119769874010187  0.5805582652045583  0.600245091061147  1.0000
  H   H63       1.0  0.49052398583920337  0.9809520687566289  0.46856367816498307  1.0000
  H   H64       1.0  0.5218895043498363  0.5126161973317805  0.531451288504108  1.0000
  H   H65       1.0  0.6797337676726439  0.6916556055276074  0.26983085478641294  1.0000
  H   H66       1.0  0.9098575950780512  0.42159488798306205  0.7302073422884302  1.0000
  H   H67       1.0  0.7336109642868675  0.5554842148981718  0.18559184340566048  1.0000
  H   H68       1.0  0.048058445848056394  0.3696233629812227  0.814348131811151  1.0000
  H   H69       1.0  0.9239240016731923  0.5352461924181712  0.4054721624478288  1.0000
  H   H70       1.0  0.0181222023812637  0.1295853779460359  0.5942694053905695  1.0000
  H   H71       1.0  0.8669915272855773  0.6670645929839122  0.4901825246167559  1.0000
  H   H72       1.0  0.8764284542611875  0.1767559479355114  0.5097298837853755  1.0000
  H   H73       1.0  0.7972659444370577  0.1434248758733077  0.1884990607258459  1.0000
  H   H74       1.0  0.10879387650538055  0.9548570611361525  0.8115087390066689  1.0000
  H   H75       1.0  0.695598942517229  0.026599434861211097  0.928947700748793  1.0000
  H   H76       1.0  0.26678976083395156  0.0977223898894195  0.07102838545930715  1.0000
  H   H77       1.0  0.7163491341916027  0.8675597632272839  0.8530279012965277  1.0000
  H   H78       1.0  0.36331106578407457  0.014593727362274898  0.14710369775867344  1.0000
  H   H79       1.0  0.7088417155789485  0.6960720528157721  0.7734379026476217  1.0000
  H   H80       1.0  0.4352738860324194  0.9225403844502934  0.22657890092885685  1.0000
  H   H81       1.0  0.7437014447726539  0.5900378391348581  0.8430743714091375  1.0000
  H   H82       1.0  0.4005797784396704  0.7469105875794355  0.1568676756159419  1.0000
  H   H83       1.0  0.7738365648820174  0.8204621430117099  0.07053273906257829  1.0000
  H   H84       1.0  0.20338955044516632  0.7500329257645004  0.9294612818006337  1.0000
  H   H85       1.0  0.7155550536455735  0.48591632023790504  0.9104987949919728  1.0000
  H   H86       1.0  0.30489213042406504  0.5753908840154126  0.08945642125068082  1.0000
  H   H87       1.0  0.8995415962680369  0.5996085536736332  0.16687217946658717  1.0000
  H   H88       1.0  0.23245355626087869  0.4327219086986531  0.8330853409414939  1.0000
  H   H89       1.0  0.10334211645604797  0.5104800325501984  0.20686977529670258  1.0000
  H   H90       1.0  0.3964819093272708  0.303718106673216  0.7933182715260043  1.0000
  H   H91       1.0  0.009814806456979921  0.37697297249120965  0.9478021141720699  1.0000
  H   H92       1.0  0.5618493618715447  0.4295199708445807  0.05241338726730762  1.0000
  H   H93       1.0  0.9879351628267583  0.4702141517200005  0.8687559523457505  1.0000
  H   H94       1.0  0.6191464408694144  0.601719264907871  0.13134144425856684  1.0000
  H   H95       1.0  0.9524395748655718  0.5688123190462305  0.7906165632940014  1.0000
  H   H96       1.0  0.661734746507143  0.7784378832611619  0.20936601896129747  1.0000
  H   H97       1.0  0.9581736822488123  0.7402707166723272  0.8619381047891962  1.0000
  H   H98       1.0  0.5960110369317064  0.8784977624652514  0.1380565771194497  1.0000
  H   H99       1.0  0.06668041146487975  0.7236844515450327  0.09536807385249084  1.0000
  H   H100      1.0  0.4711405054938138  0.6284927987936583  0.9047020119482237  1.0000
  H   H101      1.0  0.03406566522357932  0.92187858819441  0.9574426509405496  1.0000
  H   H102      1.0  0.5762923302509007  0.9647642629918705  0.04269625977558172  1.0000
  H   H103      1.0  0.018197193656746394  0.023005569606453898  0.1895986574170009  1.0000
  H   H104      1.0  0.32859579765364794  0.8335064432310662  0.810326980485591  1.0000
  C   C1        1.0  0.7181590647442416  0.26091598751437317  0.9122303291605002  1.0000
  C   C2        1.0  0.3056074478968682  0.3485213434831067  0.08775516600928769  1.0000
  C   C3        1.0  0.6893746983883416  0.2425768425529284  0.8241621519151746  1.0000
  C   C4        1.0  0.36495803770110047  0.4183058946569673  0.17577542471946833  1.0000
  C   C5        1.0  0.5891188422218434  0.20717393214073349  0.7687285497482959  1.0000
  C   C6        1.0  0.32023305113266065  0.43851841164945415  0.23129393762145153  1.0000
  C   C7        1.0  0.5595965007911303  0.182108048846068  0.684981508715566  1.0000
  C   C8        1.0  0.3745239034532303  0.4972191860777357  0.3150189928391284  1.0000
  C   C9        1.0  0.6299544662849781  0.18963179050376766  0.6537487568308219  1.0000
  C   C10       1.0  0.47615594753506213  0.5357866730086938  0.3461539836379186  1.0000
  C   C11       1.0  0.7308005634995209  0.22530907664027208  0.7096846190597784  1.0000
  C   C12       1.0  0.5209851920267141  0.5152331346637453  0.29016658253139826  1.0000
  C   C13       1.0  0.7601490570735548  0.25320456305637146  0.7942390780251923  1.0000
  C   C14       1.0  0.46569636706880146  0.4585906739790531  0.20561321055753004  1.0000
  C   C15       1.0  0.5971062608406255  0.16050688323829826  0.5641225444292315  1.0000
  C   C16       1.0  0.5330081534461256  0.5962695463543495  0.43578207337400676  1.0000
  C   C17       1.0  0.5069724941028254  0.1772353176610793  0.5181382077147842  1.0000
  C   C18       1.0  0.48882388382468617  0.658890191294411  0.4818105072208778  1.0000
  C   C19       1.0  0.4751346947090552  0.14973351321987138  0.4330087850465174  1.0000
  C   C20       1.0  0.5420878103759463  0.7165158362345708  0.5669373156432654  1.0000
  C   C21       1.0  0.5348882465021773  0.10469847521389399  0.3944171874477504  1.0000
  C   C22       1.0  0.6404526648345193  0.7100963511462692  0.6055484555256352  1.0000
  C   C23       1.0  0.6255192087979464  0.08837851323264796  0.4388941285803083  1.0000
  C   C24       1.0  0.6866311715808845  0.6493470832268711  0.561041550445324  1.0000
  C   C25       1.0  0.655731047333738  0.11632043305326786  0.5239301920162089  1.0000
  C   C26       1.0  0.6318291505625026  0.5922640340176031  0.475984925518162  1.0000
  C   C27       1.0  0.688222797603373  0.04485599810279689  0.3966536877799525  1.0000
  C   C28       1.0  0.7915920585647455  0.6481209120343863  0.6032943919738185  1.0000
  C   C29       1.0  0.6891936060761026  0.0623581311963477  0.3305302820020585  1.0000
  C   C30       1.0  0.8585823956358707  0.7318035587966845  0.6694412722930277  1.0000
  C   C31       1.0  0.7478306243773999  0.021254817213389298  0.2902127183175835  1.0000
  C   C32       1.0  0.9575514996224113  0.7310314434406282  0.7097461275874577  1.0000
  C   C33       1.0  0.8058671082511353  0.960483210866556  0.3138942815135479  1.0000
  C   C34       1.0  0.9919691831251353  0.646605542947732  0.6860703899646547  1.0000
  C   C35       1.0  0.8059808762561785  0.9434863289270652  0.3802673974799191  1.0000
  C   C36       1.0  0.9257467270106897  0.563181363496298  0.6197628605556031  1.0000
  C   C37       1.0  0.7485750591610695  0.9858423836654493  0.4214873930105582  1.0000
  C   C38       1.0  0.827118205885007  0.5642620229699702  0.5785491925885393  1.0000
  C   C39       1.0  0.8645115884378994  0.9116615469484728  0.2680846528708185  1.0000
  C   C40       1.0  0.09641804615078793  0.6436049808040422  0.7318714269777471  1.0000
  C   C41       1.0  0.3847373372824378  0.17107377598653528  0.38254935118209926  1.0000
  C   C42       1.0  0.5020962227224997  0.7883288566293981  0.6173792923943038  1.0000
  C   C43       1.0  0.32740134500153306  0.1051364268393584  0.2997967341493818  1.0000
  C   C44       1.0  0.5275457592473315  0.8051945120622291  0.7001527240937403  1.0000
  C   C45       1.0  0.25228737230384707  0.12950081584143897  0.2467872642185397  1.0000
  C   C46       1.0  0.5054581431418795  0.8825829387104561  0.753164465055107  1.0000
  C   C47       1.0  0.23112116983459421  0.22035221422329693  0.2753011771195303  1.0000
  C   C48       1.0  0.4557605545600579  0.9449131190327903  0.7246391925112899  1.0000
  C   C49       1.0  0.28407176824707386  0.2845124338957418  0.35920251626533417  1.0000
  C   C50       1.0  0.42468464992949606  0.9251180167039335  0.6407159813612251  1.0000
  C   C51       1.0  0.35952949897357905  0.26007694529875636  0.4122975242974858  1.0000
  C   C52       1.0  0.4470325140111342  0.8475367469692684  0.5876333429326903  1.0000
  C   C53       1.0  0.15819738431012803  0.251137346561741  0.2168864315700602  1.0000
  C   C54       1.0  0.4413735605234378  0.0341931779134583  0.7830492226303317  1.0000
  C   C55       1.0  0.9477373944936573  0.14186129758700616  0.9108990362146155  1.0000
  C   C56       1.0  0.5368995969999445  0.23111684899360083  0.08916965233875367  1.0000
  C   C57       1.0  0.8947088748870936  0.07372898883705399  0.8214456330434738  1.0000
  C   C58       1.0  0.5733590993693267  0.25239153713366846  0.1786181666096666  1.0000
  C   C59       1.0  0.9398204432390214  0.0602504147210752  0.7666304506383947  1.0000
  C   C60       1.0  0.6732515877023388  0.2938471486312437  0.23349004534968995  1.0000
  C   C61       1.0  0.8887755690165307  0.9987835046178898  0.6828418452425138  1.0000
  C   C62       1.0  0.7059252899078103  0.31608510396687  0.3172748777738547  1.0000
  C   C63       1.0  0.7898149860603281  0.9510698675810048  0.6510944929497807  1.0000
  C   C64       1.0  0.6386891008808887  0.30008907615611946  0.34898059611019494  1.0000
  C   C65       1.0  0.7441686774370877  0.965983912931243  0.7060462442791786  1.0000
  C   C66       1.0  0.538120809507653  0.25992024504817823  0.29397968845322703  1.0000
  C   C67       1.0  0.7963602761494923  0.025377601335129896  0.7902135106365191  1.0000
  C   C68       1.0  0.5062516812477538  0.23516676553154522  0.20983752473174622  1.0000
  C   C69       1.0  0.7343023585013099  0.8873993419673738  0.5618696975988938  1.0000
  C   C70       1.0  0.6723612034887763  0.3256012046007797  0.4381918250944776  1.0000
  C   C71       1.0  0.7791227603407265  0.8237646958163437  0.5175734514510137  1.0000
  C   C72       1.0  0.7614214493136513  0.30619018142024856  0.48250621383903775  1.0000
  C   C73       1.0  0.7253857899050826  0.7617291653021852  0.4332666900775307  1.0000
  C   C74       1.0  0.7920362354698935  0.3284848962261078  0.5668122695971287  1.0000
  C   C75       1.0  0.626527153632061  0.7668446581097614  0.39375070296836157  1.0000
  C   C76       1.0  0.7327152998912894  0.3731809618511832  0.6063260750011066  1.0000
  C   C77       1.0  0.5800912698217146  0.829906107434013  0.43636094324541097  1.0000
  C   C78       1.0  0.6436962550476153  0.3936508403345087  0.5636943169414363  1.0000
  C   C79       1.0  0.6349910677529635  0.8895772100552293  0.5209579243684671  1.0000
  C   C80       1.0  0.614030072016952  0.3687597703256528  0.4791142337793913  1.0000
  C   C81       1.0  0.4747328544567395  0.8309787236789176  0.3941080315485052  1.0000
  C   C82       1.0  0.5805702456906158  0.4370790704050477  0.605886032897558  1.0000
  C   C83       1.0  0.40671054689710195  0.7472121398748895  0.32907954889679286  1.0000
  C   C84       1.0  0.5775132756012764  0.41840206183920964  0.6709064924868852  1.0000
  C   C85       1.0  0.30657338932621053  0.7469227252460582  0.29186696219981895  1.0000
  C   C86       1.0  0.514615878732236  0.4553569088857967  0.7081175641443944  1.0000
  C   C87       1.0  0.27150692633394863  0.8306898490529234  0.3173164588103318  1.0000
  C   C88       1.0  0.45406717605109037  0.5136377038318258  0.6826666371680118  1.0000
  C   C89       1.0  0.33919826225821464  0.9148659674890209  0.3810940656788161  1.0000
  C   C90       1.0  0.45805085363161874  0.5340133241783107  0.6189116310669717  1.0000
  C   C91       1.0  0.4390253702725032  0.9147922757879385  0.4193342180071155  1.0000
  C   C92       1.0  0.5196737275147427  0.4957160690777227  0.5806981565334224  1.0000
  C   C93       1.0  0.16452713942032904  0.8324291792544399  0.27737743227157097  1.0000
  C   C94       1.0  0.3870134443082519  0.5552954838173179  0.7226190645339299  1.0000
  C   C95       1.0  0.767785010711833  0.6888284430327118  0.38613570891347127  1.0000
  C   C96       1.0  0.8815120129815027  0.30258939435295656  0.6138617585059121  1.0000
  C   C97       1.0  0.7324862725728848  0.6571068329170445  0.29988949738859805  1.0000
  C   C98       1.0  0.9324791666931416  0.3569776274724673  0.7001095981599403  1.0000
  C   C99       1.0  0.7624522248952557  0.5817283284600662  0.25258037379276727  1.0000
  C   C100      1.0  0.00978393280012569  0.328901553864064  0.7473579478573736  1.0000
  C   C101      1.0  0.8304711118236057  0.5360845320157991  0.28958979345502195  1.0000
  C   C102      1.0  0.04071440028419459  0.24624546122529978  0.7102603837950807  1.0000
  C   C103      1.0  0.8701413621297646  0.5698051545683283  0.37606676310110737  1.0000
  C   C104      1.0  0.9938276384181318  0.19355359018336324  0.6237700899701505  1.0000
  C   C105      1.0  0.8386957010684807  0.6447755239932957  0.42352694517286665  1.0000
  C   C106      1.0  0.9149437666699709  0.22114379752009938  0.5763751986181089  1.0000
  C   C107      1.0  0.8532304222528707  0.4497557043648328  0.23438023680231607  1.0000
  C   C108      1.0  0.11871626124474227  0.21512493598213211  0.7654435980076284  1.0000
  C   C109      1.0  0.7763160863673162  0.09315543923238319  0.12444904867230377  1.0000
  C   C110      1.0  0.1519939483325387  0.9686720182129703  0.8755600812989071  1.0000
  C   C111      1.0  0.7249735575350299  0.029277320801625692  0.9904202676274204  1.0000
  C   C112      1.0  0.23468123379254985  0.0388585347711796  0.009594845981638388  1.0000
  C   C113      1.0  0.7493363470719883  0.9572736529951129  0.014856809947275463  1.0000
  C   C114      1.0  0.2345507070299249  0.9424108771604197  0.9851722978083398  1.0000
  C   C115      1.0  0.7459252037420894  0.8567777071413403  0.9679191414761872  1.0000
  C   C116      1.0  0.27807974277582287  0.8888869558894893  0.03212553892734599  1.0000
  C   C117      1.0  0.7271625808240144  0.8203537629281286  0.8834839250400247  1.0000
  C   C118      1.0  0.3437551012900357  0.9369074485646322  0.11655559902275307  1.0000
  C   C119      1.0  0.7235366748387477  0.7242789585791911  0.8389279021057443  1.0000
  C   C120      1.0  0.3845839467612038  0.8853072418623213  0.16106434684503773  1.0000
  C   C121      1.0  0.7422352903500027  0.663875557000317  0.8778217258920902  1.0000
  C   C122      1.0  0.364324235674168  0.786017171450517  0.12216665422510421  1.0000
  C   C123      1.0  0.7635164665946305  0.6991804763139837  0.9625575948377899  1.0000
  C   C124      1.0  0.3009398537795817  0.736610241493274  0.03741692784942069  1.0000
  C   C125      1.0  0.7622275915638282  0.7947441719199304  0.005964537444725798  1.0000
  C   C126      1.0  0.2563383284177902  0.7888071415392518  0.9940338591234477  1.0000
  C   C127      1.0  0.7890145947982173  0.6378912531039802  0.005122050585264058  1.0000
  C   C128      1.0  0.28386755279348813  0.6327533934214243  0.9948627849022739  1.0000
  C   C129      1.0  0.7621048179353735  0.5397050123520657  0.9725413185901243  1.0000
  C   C130      1.0  0.2894721303993747  0.5671367276700963  0.027424970501314833  1.0000
  C   C131      1.0  0.8571578486085298  0.5973099116230639  0.1065334087030435  1.0000
  C   C132      1.0  0.2504608981013092  0.4907726249001455  0.8934190485430943  1.0000
  C   C133      1.0  0.081935524330035  0.5002555155467405  0.14341566540840484  1.0000
  C   C134      1.0  0.43851264326806927  0.35701945744786906  0.856739573484617  1.0000
  C   C135      1.0  0.03367168960029689  0.4347036821952912  0.009257294994157029  1.0000
  C   C136      1.0  0.524322806094048  0.4257070827925418  0.9909131183652131  1.0000
  C   C137      1.0  0.04792449567147366  0.5324451060358512  0.03471974385166019  1.0000
  C   C138      1.0  0.5130553892728499  0.49793240604057587  0.9653852460982076  1.0000
  C   C139      1.0  0.02866358356163802  0.5894204064605689  0.9879758049393741  1.0000
  C   C140      1.0  0.5404854982653404  0.6016448986506191  0.012091008836513657  1.0000
  C   C141      1.0  0.9965019526071965  0.5467283105163503  0.9014070288075966  1.0000
  C   C142      1.0  0.5949811649700079  0.6455392152556884  0.09864334580213095  1.0000
  C   C143      1.0  0.9751698489017072  0.6018873849837617  0.8575258888278863  1.0000
  C   C144      1.0  0.6175667404113196  0.7445767542116711  0.14247334668360162  1.0000
  C   C145      1.0  0.9803807531343337  0.6992497427351623  0.8978196081601477  1.0000
  C   C146      1.0  0.582368960793346  0.8016143828509356  0.10219066075052297  1.0000
  C   C147      1.0  0.010258480157915466  0.7429642126501504  0.9840035331942613  1.0000
  C   C148      1.0  0.5260715584776389  0.7591461806662207  0.016025773119430677  1.0000
  C   C149      1.0  0.03770823705011143  0.6879957866566074  0.02809989708975998  1.0000
  C   C150      1.0  0.5094054777548747  0.6600799574644326  0.9719612865854396  1.0000
  C   C151      1.0  0.012794940657677433  0.8436160888708172  0.028915090377573366  1.0000
  C   C152      1.0  0.4837367975960091  0.8149144515507841  0.9711294007461002  1.0000
  C   C153      1.0  0.024945426433639284  0.9189204104662421  0.009733015915990982  1.0000
  C   C154      1.0  0.5150488968665455  0.9094055921466122  0.9902972391501373  1.0000
  C   C155      1.0  0.017317572570590307  0.9735058116686729  0.1311604522876735  1.0000
  C   C156      1.0  0.3860564052259292  0.8424800268320068  0.8688128618769964  1.0000
  N   N1        1.0  0.7422201306680662  0.11300428765486  0.05901908264232956  1.0000
  N   N2        1.0  0.18333881465269283  0.05395680395979239  0.9409806615056265  1.0000
  N   N3        1.0  0.7810415412186555  0.0003733876531271005  0.10024760918108196  1.0000
  N   N4        1.0  0.18091838222951392  0.9001069050681065  0.8997717356831811  1.0000
  N   N5        1.0  0.8493215499511488  0.6726292759799931  0.08953786780624992  1.0000
  N   N6        1.0  0.25973728849753996  0.5831003005647875  0.9104516862186641  1.0000
  N   N7        1.0  0.8053896128481309  0.5160934584055212  0.03717261165477472  1.0000
  N   N8        1.0  0.26800055125607253  0.4788893089637439  0.9627673828946325  1.0000
  N   N9        1.0  0.05459671042522977  0.41616786708521386  0.07729477039358552  1.0000
  N   N10       1.0  0.4772414478886445  0.3390968975663072  0.9228932180684732  1.0000
  N   N11       1.0  0.07934824287883657  0.5715376971316103  0.12016248407546465  1.0000
  N   N12       1.0  0.45911910980008475  0.45154088998683045  0.8799320728805494  1.0000
  N   N13       1.0  0.00707771434471024  0.8797386799491062  0.10521565102789039  1.0000
  N   N14       1.0  0.40177129905919856  0.7746944709819699  0.8947949095622999  1.0000
  N   N15       1.0  0.027603920984404243  0.9995105170837915  0.07474936652204883  1.0000
  N   N16       1.0  0.45269338996408925  0.9249280592430436  0.9252394368360296  1.0000
  O   O1        1.0  0.7984997383614925  0.3187794651909713  0.9699262775672391  1.0000
  O   O2        1.0  0.32804196652699597  0.34871616746223577  0.029962202020485156  1.0000
  O   O3        1.0  0.6592309290218593  0.2139180041434443  0.9265241189474831  1.0000
  O   O4        1.0  0.23260693544652605  0.2871194889759038  0.07360396763827029  1.0000
  O   O5        1.0  0.9051807308815608  0.847585735706687  0.28350458779013354  1.0000
  O   O6        1.0  0.12163970602829002  0.5641030753112161  0.7166231915748253  1.0000
  O   O7        1.0  0.8714765144017987  0.935047825397838  0.21241829583288305  1.0000
  O   O8        1.0  0.15907718252280023  0.7226985357919417  0.7874044629969245  1.0000
  O   O9        1.0  0.1483640591612172  0.3358359625773985  0.24021606765087705  1.0000
  O   O10       1.0  0.40820693077598924  0.09552027237734957  0.7596659309677702  1.0000
  O   O11       1.0  0.10836109965484299  0.1870417691419206  0.14009111855600753  1.0000
  O   O12       1.0  0.4684854901898773  0.0470160604925169  0.8598872196123251  1.0000
  O   O13       1.0  0.9114570292347464  0.14276421536906977  0.9614418775323654  1.0000
  O   O14       1.0  0.45004597053654277  0.18154194079091468  0.03860925208623198  1.0000
  O   O15       1.0  0.02846896206624189  0.2011895900115803  0.9351861987925641  1.0000
  O   O16       1.0  0.5933929105932163  0.26617291658847353  0.0649255680005821  1.0000
  O   O17       1.0  0.13699296054205934  0.9100337839755213  0.29184329307337703  1.0000
  O   O18       1.0  0.34485014887764  0.618327819201049  0.7080883439365518  1.0000
  O   O19       1.0  0.10165070215919766  0.7507877236645512  0.22650029970620975  1.0000
  O   O20       1.0  0.37522885515828347  0.5246370370889295  0.7736283047640808  1.0000
  O   O21       1.0  0.9218840340439555  0.41274704705237747  0.26665266708521057  1.0000
  O   O22       1.0  0.15511278694243197  0.14588844305099968  0.7331584410560478  1.0000
  O   O23       1.0  0.7984223598443592  0.41740898906418517  0.15621599134241385  1.0000
  O   O24       1.0  0.14211833386788436  0.2609527590369609  0.8436337388684476  1.0000
  O   O25       1.0  0.9254825919890022  0.2771678684340486  0.14377756698203825  1.0000
  O   O26       1.0  0.2818051011751521  0.13336873655349277  0.8562091991071055  1.0000
