data_image0
_chemical_formula_structural       Ag4H88C40N8Cl4
_chemical_formula_sum              "Ag4 H88 C40 N8 Cl4"
_cell_length_a       6.097172002490981
_cell_length_b       10.743694599837417
_cell_length_c       20.752896666082826
_cell_angle_alpha    95.2522043775824
_cell_angle_beta     89.91274237384394
_cell_angle_gamma    106.78816992981574

_space_group_name_H-M_alt    "P 1"
_space_group_IT_number       1

loop_
  _space_group_symop_operation_xyz
  'x, y, z'

loop_
  _atom_site_type_symbol
  _atom_site_label
  _atom_site_symmetry_multiplicity
  _atom_site_fract_x
  _atom_site_fract_y
  _atom_site_fract_z
  _atom_site_occupancy
  Ag  Ag1       1.0  0.1823533550852048  0.44876858475196707  0.6948464809109821  1.0000
  Ag  Ag2       1.0  0.7336834322034846  0.5528980371485092  0.8054161244493443  1.0000
  Ag  Ag3       1.0  0.8176459350110008  0.5512400078026402  0.30514465740231594  1.0000
  Ag  Ag4       1.0  0.2663329228678536  0.4470988698258227  0.19457438656415593  1.0000
  H   H1        1.0  0.7736804847128483  0.2698266280344441  0.6790927182901854  1.0000
  H   H2        1.0  0.5060872817631437  0.7319131875678054  0.8208061768612039  1.0000
  H   H3        1.0  0.22631490522878298  0.7301710388513811  0.32090506463597274  1.0000
  H   H4        1.0  0.4938992420400368  0.26807665968036803  0.17919118897886216  1.0000
  H   H5        1.0  0.852760092038139  0.2914056166819848  0.5702043682210132  1.0000
  H   H6        1.0  0.5600458652837333  0.7097670004462985  0.9296933301891739  1.0000
  H   H7        1.0  0.14718201762088517  0.708606697648179  0.4297908319253096  1.0000
  H   H8        1.0  0.4399344395755023  0.2902072612927569  0.07030175713276779  1.0000
  H   H9        1.0  0.733413295690525  0.1229326758465206  0.5806611816281516  1.0000
  H   H10       1.0  0.6151220252200958  0.87850620630919  0.9195623773820072  1.0000
  H   H11       1.0  0.2665505312480292  0.8770609677588865  0.4193392816726344  1.0000
  H   H12       1.0  0.38483691216005406  0.12146479995860911  0.08044410422520798  1.0000
  H   H13       1.0  0.07375995098785641  0.1521873864538748  0.5120812147778578  1.0000
  H   H14       1.0  0.922944955968731  0.8473793458137423  0.9882217616343851  1.0000
  H   H15       1.0  0.9261654144019574  0.8478046706683955  0.4879027841708916  1.0000
  H   H16       1.0  0.07701641726468723  0.15258674757811974  0.011785902567588399  1.0000
  H   H17       1.0  0.24634652060763781  0.2651267095659335  0.5729905560118737  1.0000
  H   H18       1.0  0.9791814269212011  0.7335277946329201  0.9274473142795042  1.0000
  H   H19       1.0  0.7536074910653667  0.7348830780736791  0.42698956852710507  1.0000
  H   H20       1.0  0.020794533010054336  0.2664541438890282  0.0725530032303396  1.0000
  H   H21       1.0  0.3016233504746281  0.04579715216048189  0.5805368112355893  1.0000
  H   H22       1.0  0.26166590308899645  0.9515678338146288  0.9199886184459342  1.0000
  H   H23       1.0  0.6983659270448258  0.9542175285751076  0.41944501605918555  1.0000
  H   H24       1.0  0.7382914834117075  0.0484001312640601  0.0800220377938317  1.0000
  H   H25       1.0  0.0020827421466906412  0.974985045979672  0.5847390751338252  1.0000
  H   H26       1.0  0.03718855366811621  0.02439681971436161  0.9155939508133242  1.0000
  H   H27       1.0  0.9978923769648417  0.025014667086139798  0.4152540009261969  1.0000
  H   H28       1.0  0.9628012320823984  0.9755866449391633  0.08442379487902937  1.0000
  H   H29       1.0  0.17289327756015638  0.013421852230301607  0.6958432425284187  1.0000
  H   H30       1.0  0.17024858517252317  0.9848937368310833  0.8046060259377227  1.0000
  H   H31       1.0  0.8271499959090676  0.9866055802452962  0.3041397415905393  1.0000
  H   H32       1.0  0.8297432680555517  0.015113287429493005  0.195407678750179  1.0000
  H   H33       1.0  0.30759899370308125  0.18010298939196906  0.6844861937617066  1.0000
  H   H34       1.0  0.12971919892170555  0.8175647171565288  0.8158918649634683  1.0000
  H   H35       1.0  0.6924060169525176  0.8199136286550726  0.31549718077337724  1.0000
  H   H36       1.0  0.8702825827584421  0.18244244521543615  0.18411702680323566  1.0000
  H   H37       1.0  0.9578994830830821  0.16166885201695183  0.7478262721090656  1.0000
  H   H38       1.0  0.8022558984175348  0.8399756827881505  0.7524969489226264  1.0000
  H   H39       1.0  0.04213504061596752  0.8383445840811274  0.2521684939117819  1.0000
  H   H40       1.0  0.19773654431845966  0.16003246669527027  0.24751103307966815  1.0000
  H   H41       1.0  0.790327225309916  0.0468794648714095  0.686599492060864  1.0000
  H   H42       1.0  0.7541417934590342  0.9552828549585685  0.8140088644963015  1.0000
  H   H43       1.0  0.20967978451420083  0.9531152417394396  0.31340005858570646  1.0000
  H   H44       1.0  0.24584384888599686  0.0447085961810103  0.1860020804355429  1.0000
  H   H45       1.0  0.9081231080633644  0.5791527825379889  0.6505139881192646  1.0000
  H   H46       1.0  0.3277686490886539  0.42173090820276143  0.8495477993561307  1.0000
  H   H47       1.0  0.09188530436716044  0.4208903227153797  0.3495035718868421  1.0000
  H   H48       1.0  0.6722516902619375  0.5782706981479819  0.15045019098423038  1.0000
  H   H49       1.0  0.1134595780440649  0.8110324077880621  0.6439093642851218  1.0000
  H   H50       1.0  0.29198607219981193  0.19017963138610838  0.8556278536964186  1.0000
  H   H51       1.0  0.8866297368513685  0.1890085903802188  0.3561186741010047  1.0000
  H   H52       1.0  0.708018421162038  0.8098198642194065  0.1443753267347532  1.0000
  H   H53       1.0  0.15751327111027547  0.7487739082787712  0.7183626131622205  1.0000
  H   H54       1.0  0.403977387149226  0.25200505869337775  0.7814671597881568  1.0000
  H   H55       1.0  0.8425708913661366  0.2512340767040726  0.2816569134933785  1.0000
  H   H56       1.0  0.5960201312692561  0.747987003678098  0.21852068509059555  1.0000
  H   H57       1.0  0.5276447038664148  0.8797999113851422  0.6734541936477284  1.0000
  H   H58       1.0  0.6333865901887278  0.11776456258551353  0.8270288406318468  1.0000
  H   H59       1.0  0.4724601970000535  0.1201711325290162  0.3265590172533095  1.0000
  H   H60       1.0  0.3666118009313808  0.8822292794828429  0.17296584591726116  1.0000
  H   H61       1.0  0.5190589804538773  0.714315637268527  0.6800434337440533  1.0000
  H   H62       1.0  0.7976976099554846  0.2822954324330881  0.8202002992584242  1.0000
  H   H63       1.0  0.48098296998840345  0.28565080771039675  0.3199550825121094  1.0000
  H   H64       1.0  0.20231128861024678  0.7177062316446056  0.17979480428647318  1.0000
  H   H65       1.0  0.43718545275385895  0.8321813922051151  0.5560121227736302  1.0000
  H   H66       1.0  0.5916811750430212  0.1669461882619032  0.9444394839944507  1.0000
  H   H67       1.0  0.5628382771567714  0.16783353444924387  0.44400007278432707  1.0000
  H   H68       1.0  0.4083150175056008  0.8330465757644281  0.05555900037883531  1.0000
  H   H69       1.0  0.6749960117521425  0.7769774400941432  0.5735866877559487  1.0000
  H   H70       1.0  0.8859998698953998  0.21964215986345434  0.9267360226888213  1.0000
  H   H71       1.0  0.3250205325972644  0.22299389694523333  0.42641016593181297  1.0000
  H   H72       1.0  0.11401785486597774  0.7803477572230265  0.07326037895955298  1.0000
  H   H73       1.0  0.37546866291154407  0.610929460961053  0.49985355386449015  1.0000
  H   H74       1.0  0.759713907521963  0.3881413177623116  0.00011857336978239481  1.0000
  H   H75       1.0  0.6244747217984852  0.38908864844873386  0.5001443655795796  1.0000
  H   H76       1.0  0.24030475267041151  0.6118536532128759  0.9998713518859146  1.0000
  H   H77       1.0  0.4269561620475955  0.5492746988391276  0.5731348090271807  1.0000
  H   H78       1.0  0.8751383500756661  0.4484743262678279  0.9266464608036243  1.0000
  H   H79       1.0  0.5729719788154952  0.45071318659811516  0.4268595682067512  1.0000
  H   H80       1.0  0.12489450043430145  0.5515195532178225  0.07334870508698539  1.0000
  H   H81       1.0  0.02590341917195374  0.6572003559057366  0.5447616725718873  1.0000
  H   H82       1.0  0.36364770444283323  0.34354256048781207  0.9551019329878158  1.0000
  H   H83       1.0  0.9740967863609808  0.3428622421774321  0.45525741305803524  1.0000
  H   H84       1.0  0.6363772328776208  0.6564649076265568  0.044896370279992895  1.0000
  H   H85       1.0  0.009773944090014305  0.4909161787416779  0.5519370403699781  1.0000
  H   H86       1.0  0.5193554596120863  0.5095289921892602  0.9480743294603611  1.0000
  H   H87       1.0  0.990149839211213  0.5091086219286183  0.44806557666719016  1.0000
  H   H88       1.0  0.4807000670677228  0.49049031700119633  0.051921229822809785  1.0000
  C   C1        1.0  0.8854829381174414  0.2090098579368061  0.5920876746284874  1.0000
  C   C2        1.0  0.678243615095802  0.7919584796158858  0.9080379086824663  1.0000
  C   C3        1.0  0.11446765811720648  0.7909899682112284  0.4078996279309023  1.0000
  C   C4        1.0  0.32173409269216086  0.20802044723657084  0.09196562080344249  1.0000
  C   C5        1.0  0.09760103412730811  0.17746369231522865  0.5646704198693513  1.0000
  C   C6        1.0  0.9216792292063263  0.8219488772954125  0.935636744443883  1.0000
  C   C7        1.0  0.902360451930946  0.8225381879104607  0.43531361782189737  1.0000
  C   C8        1.0  0.07830073533727244  0.17802803922914023  0.06436908671184938  1.0000
  C   C9        1.0  0.1426460477698797  0.0652348986007354  0.5978173109602024  1.0000
  C   C10       1.0  0.08369557596519421  0.9333890750343199  0.9025511420291321  1.0000
  C   C11       1.0  0.8573351960082577  0.9347736802534425  0.4021733471085298  1.0000
  C   C12       1.0  0.9162911143294962  0.06659149471592228  0.09746500353083577  1.0000
  C   C13       1.0  0.1552647529806208  0.0967479481851186  0.6713856860047968  1.0000
  C   C14       1.0  0.06518023992398286  0.9020992894840064  0.8289757313137327  1.0000
  C   C15       1.0  0.8447477117271163  0.9032704838217995  0.3286035673635438  1.0000
  C   C16       1.0  0.9348213104435247  0.09790094256905493  0.17103664498846877  1.0000
  C   C17       1.0  0.9432286912226074  0.13309114756425802  0.6955026149903673  1.0000
  C   C18       1.0  0.8166937896552042  0.8681214493869335  0.80484620508075  1.0000
  C   C19       1.0  0.056766119363779205  0.866918340111852  0.3044914631910913  1.0000
  C   C20       1.0  0.18328978694233908  0.1318788804588351  0.19516135983545976  1.0000
  C   C21       1.0  0.18907316530187768  0.742354643242308  0.666257630909648  1.0000
  C   C22       1.0  0.44004213826575267  0.257897774168363  0.833638156756997  1.0000
  C   C23       1.0  0.8109714992527015  0.2576562988612281  0.3337586858469378  1.0000
  C   C24       1.0  0.5599644916338491  0.7420961293109374  0.16635460438883598  1.0000
  C   C25       1.0  0.4453029404542763  0.7782164370938747  0.653826609114965  1.0000
  C   C26       1.0  0.6570603636710003  0.2197438241248905  0.8464781408337598  1.0000
  C   C27       1.0  0.5547473889567768  0.22176343440873592  0.34618226218437786  1.0000
  C   C28       1.0  0.34295245714024963  0.7802558691609676  0.15351782057683036  1.0000
  C   C29       1.0  0.49035910808157723  0.7592576727007341  0.581471957788736  1.0000
  C   C30       1.0  0.7206891373634505  0.23884847056738323  0.9188430813395241  1.0000
  C   C31       1.0  0.5096550259934104  0.24073494398037812  0.41853326292228826  1.0000
  C   C32       1.0  0.27931553930733355  0.7611383763400427  0.08115797681148247  1.0000
  C   C33       1.0  0.3571734276214613  0.6216191169588469  0.5527013113837498  1.0000
  C   C34       1.0  0.7305795180520176  0.37714405313000293  0.9472907485006701  1.0000
  C   C35       1.0  0.6427979900428441  0.3783960558928214  0.4472983748776684  1.0000
  C   C36       1.0  0.2694522242323815  0.6228508624899193  0.05270206346018819  1.0000
  C   C37       1.0  0.10416549567433728  0.5917668004013379  0.5691615602301354  1.0000
  C   C38       1.0  0.509597669996893  0.4084814155700372  0.930795789512409  1.0000
  C   C39       1.0  0.8957969948522333  0.4082697169340719  0.43084360598815147  1.0000
  C   C40       1.0  0.4904431714964377  0.5915250749196235  0.06920342315858359  1.0000
  N   N1        1.0  0.9138885080600757  0.24299995297969448  0.6625582091728857  1.0000
  N   N2        1.0  0.6731894222616077  0.7584088886019347  0.8375184527664814  1.0000
  N   N3        1.0  0.08609386427672672  0.7569978683664189  0.337432837144611  1.0000
  N   N4        1.0  0.3267919060028959  0.24157395927163355  0.16248480406969176  1.0000
  N   N5        1.0  0.07872302137345609  0.6077264252630884  0.6393923485164448  1.0000
  N   N6        1.0  0.4689322359018036  0.3928334945928357  0.8605407849396798  1.0000
  N   N7        1.0  0.9212913152584791  0.3923023354108397  0.3606133597502889  1.0000
  N   N8        1.0  0.5310981062067982  0.6071651862756157  0.13945752949759788  1.0000
  Cl  Cl1       1.0  0.5926547445960964  0.43775987959950396  0.6868192103669699  1.0000
  Cl  Cl2       1.0  0.15456429002390598  0.5622281299928886  0.8134964202947543  1.0000
  Cl  Cl3       1.0  0.4073447585991802  0.5622426848727573  0.3131783520790704  1.0000
  Cl  Cl4       1.0  0.8454403947077794  0.4377587293026722  0.1865041566183123  1.0000
