data_image0
_chemical_formula_structural       Hg4H56C56I8N16
_chemical_formula_sum              "Hg4 H56 C56 I8 N16"
_cell_length_a       11.82680931
_cell_length_b       11.826810786
_cell_length_c       13.1334
_cell_angle_alpha    90.0
_cell_angle_beta     90.0
_cell_angle_gamma    90.0

_space_group_name_H-M_alt    "P 1"
_space_group_IT_number       1

loop_
  _space_group_symop_operation_xyz
  'x, y, z'

loop_
  _atom_site_type_symbol
  _atom_site_label
  _atom_site_symmetry_multiplicity
  _atom_site_fract_x
  _atom_site_fract_y
  _atom_site_fract_z
  _atom_site_occupancy
  Hg  Hg1       1.0  0.7499994096040792  0.7500001615397452  0.10383754397185638  1.0000
  Hg  Hg2       1.0  0.24999895766477206  0.24999977200108967  0.6038375439718563  1.0000
  Hg  Hg3       1.0  0.2499998032013622  0.24999977200108967  0.8961624560281436  1.0000
  Hg  Hg4       1.0  0.7500002551406624  0.7500001615397452  0.3961624560281436  1.0000
  H   H1        1.0  0.619338640541585  0.963305341240961  0.9819475535657176  1.0000
  H   H2        1.0  0.0366945968793999  0.11933817370873363  0.48194755356571756  1.0000
  H   H3        1.0  0.4633050095233173  0.3806613702934385  0.481948314983171  1.0000
  H   H4        1.0  0.8806610242031567  0.5366949818385294  0.9819483149831709  1.0000
  H   H5        1.0  0.3806614178004395  0.036694592299873804  0.0180516850168289  1.0000
  H   H6        1.0  0.9633046159260346  0.8806617598321014  0.5180516850168289  1.0000
  H   H7        1.0  0.5366950488187072  0.6193385632473891  0.5180524464342824  1.0000
  H   H8        1.0  0.11933818860228479  0.4633049517023054  0.0180524464342824  1.0000
  H   H9        1.0  0.48787376618317774  0.0020673367015362  0.836142202323849  1.0000
  H   H10       1.0  0.9979327213824831  0.9878732492981329  0.33614220232384884  1.0000
  H   H11       1.0  0.5020677888988486  0.5121287648543245  0.33614448657620943  1.0000
  H   H12       1.0  0.0121292223658926  0.497932207300643  0.8361444865762095  1.0000
  H   H13       1.0  0.5121262921588468  0.997931751302815  0.16385703625869746  1.0000
  H   H14       1.0  0.0020673369595414  0.0121258387062184  0.6638570362586975  1.0000
  H   H15       1.0  0.4979322694431757  0.4878737052959537  0.6638570362586975  1.0000
  H   H16       1.0  0.987873372585895  0.5020677262401918  0.16385703625869746  1.0000
  H   H17       1.0  0.4767008456991846  0.6425434664935709  0.7817488236100303  1.0000
  H   H18       1.0  0.35745651165825615  0.9767011757450137  0.2817495850274838  1.0000
  H   H19       1.0  0.1425439402810511  0.5232983017979934  0.2817480621925768  1.0000
  H   H20       1.0  0.0232979151669426  0.8574560110494363  0.7817488236100303  1.0000
  H   H21       1.0  0.5232983671062499  0.35745646704726414  0.21825041497251615  1.0000
  H   H22       1.0  0.6425435466837683  0.0232987577958212  0.7182511763899697  1.0000
  H   H23       1.0  0.8574561180609734  0.4767007862063579  0.7182511763899697  1.0000
  H   H24       1.0  0.9767012976384919  0.14254307695491522  0.2182511763899697  1.0000
  H   H25       1.0  0.6019958395693479  0.6173794552157119  0.9345927178034613  1.0000
  H   H26       1.0  0.3826205260766145  0.1019962204373783  0.43459347922091496  1.0000
  H   H27       1.0  0.11737908032610278  0.3980041691012843  0.4345927178034614  1.0000
  H   H28       1.0  0.8980038251753938  0.8826208678637784  0.9345927178034613  1.0000
  H   H29       1.0  0.3980042187726766  0.3826204783251229  0.06540652077908499  1.0000
  H   H30       1.0  0.6173795322654101  0.8980045586399399  0.5654065207790849  1.0000
  H   H31       1.0  0.8826209780159215  0.6019957644395505  0.5654072821965386  1.0000
  H   H32       1.0  0.10199538763004057  0.1173790656770564  0.0654072821965386  1.0000
  H   H33       1.0  0.36884166182603195  0.9314827301575478  0.6970647357120043  1.0000
  H   H34       1.0  0.0685180574709037  0.8688411597963324  0.19706473571200425  1.0000
  H   H35       1.0  0.4314823944684036  0.6311583177466744  0.19706473571200425  1.0000
  H   H36       1.0  0.1311579445766853  0.5685175929219426  0.6970647357120043  1.0000
  H   H37       1.0  0.6311583965159926  0.068517203383287  0.3029352642879957  1.0000
  H   H38       1.0  0.931482846407711  0.1311579282080189  0.8029352642879957  1.0000
  H   H39       1.0  0.5685176638736209  0.3688416157941533  0.8029352642879957  1.0000
  H   H40       1.0  0.8688412682287492  0.4314823406188922  0.3029352642879957  1.0000
  H   H41       1.0  0.3489935359412683  0.775112595092125  0.4907921787199072  1.0000
  H   H42       1.0  0.2248873665149134  0.8489938819251179  0.990792178719907  1.0000
  H   H43       1.0  0.2751130854243868  0.6510064411543723  0.990792178719907  1.0000
  H   H44       1.0  0.1510060704614489  0.7248877279873653  0.4907921787199072  1.0000
  H   H45       1.0  0.6510065224007562  0.22488733844870984  0.5092078212800927  1.0000
  H   H46       1.0  0.7751126918271112  0.1510060516157168  0.0092078212800928  1.0000
  H   H47       1.0  0.7248878184542206  0.3489934923864624  0.0092078212800928  1.0000
  H   H48       1.0  0.8489939878805756  0.27511220555346944  0.5092078212800927  1.0000
  H   H49       1.0  0.2715322379709519  0.8786764401694357  0.5619093304094918  1.0000
  H   H50       1.0  0.1213235085127096  0.7715325936220625  0.06190933040949179  1.0000
  H   H51       1.0  0.3786769434265977  0.728467729457428  0.06190933040949179  1.0000
  H   H52       1.0  0.2284673684317653  0.6213230373735712  0.5619093304094918  1.0000
  H   H53       1.0  0.7284678203710726  0.121323493371392  0.4380906695905081  1.0000
  H   H54       1.0  0.878676549829315  0.2284673399187653  0.938090669590508  1.0000
  H   H55       1.0  0.6213231149154268  0.2715322040834067  0.938090669590508  1.0000
  H   H56       1.0  0.7715326899102591  0.3786768961672636  0.4380906695905081  1.0000
  C   C1        1.0  0.5839952111310396  0.8944744438223895  0.9366218953203285  1.0000
  C   C2        1.0  0.1055246573515589  0.08399559424557171  0.43662189532032863  1.0000
  C   C3        1.0  0.3944749490511583  0.4160047952930839  0.4366226567377821  1.0000
  C   C4        1.0  0.9160044536137021  0.605525879257101  0.9366226567377822  1.0000
  C   C5        1.0  0.4160048472109849  0.10552464418196192  0.0633773432622178  1.0000
  C   C6        1.0  0.8944745554538756  0.9160043392952633  0.5633781046796713  1.0000
  C   C7        1.0  0.6055251092908662  0.5839951382477437  0.5633781046796713  1.0000
  C   C8        1.0  0.0839956047283223  0.3944748998202172  0.0633773432622178  1.0000
  C   C9        1.0  0.5119724044996872  0.9155469040578268  0.8549126654179415  1.0000
  C   C10       1.0  0.0844530400228436  0.011972796602748302  0.35491190400048817  1.0000
  C   C11       1.0  0.4155465663798736  0.4880284384723907  0.3549134268353953  1.0000
  C   C12       1.0  0.9880289513182348  0.5844534190216636  0.8549134268353952  1.0000
  C   C13       1.0  0.4880276538423374  0.0844530294830079  0.1450873345820582  1.0000
  C   C14       1.0  0.915547018319181  0.9880271369380795  0.6450873345820581  1.0000
  C   C15       1.0  0.5844534919621509  0.5119723406049276  0.6450873345820581  1.0000
  C   C16       1.0  0.011972798096969897  0.41554651451917124  0.1450873345820582  1.0000
  C   C17       1.0  0.4727589541223409  0.8244437301340997  0.7964632159227634  1.0000
  C   C18       1.0  0.17555622531636314  0.9727584391236377  0.2964632159227634  1.0000
  C   C19       1.0  0.3244433810863541  0.5272435750288196  0.2964647387576704  1.0000
  C   C20       1.0  0.027244034426729492  0.6755565929453908  0.7964647387576703  1.0000
  C   C21       1.0  0.5272419497562666  0.1755562034067353  0.20353678407723655  1.0000
  C   C22       1.0  0.8244438330256614  0.027241494417189906  0.703536022659783  1.0000
  C   C23       1.0  0.6755558317190804  0.4727580495849821  0.7035367840772366  1.0000
  C   C24       1.0  0.9727585605250652  0.3244441861319203  0.2035360226597831  1.0000
  C   C25       1.0  0.506194852988628  0.7151496843098288  0.8249722082628991  1.0000
  C   C26       1.0  0.2848502847806529  0.006195245812733702  0.3249729696803598  1.0000
  C   C27       1.0  0.2151501671586544  0.4938059892624054  0.3249729696803598  1.0000
  C   C28       1.0  0.9938065028292938  0.7848497932331782  0.8249737310978134  1.0000
  C   C29       1.0  0.4938043598168065  0.28484940369451556  0.17502703031964018  1.0000
  C   C30       1.0  0.7151497735613717  0.993804687728094  0.67502703031964  1.0000
  C   C31       1.0  0.7848498911833701  0.5061947898149128  0.67502703031964  1.0000
  C   C32       1.0  0.0061952465859108  0.2151501403076566  0.17502703031964018  1.0000
  C   C33       1.0  0.5759211822448833  0.7013014877872408  0.9088712747651044  1.0000
  C   C34       1.0  0.298698483031515  0.0759215663670645  0.4088712747651044  1.0000
  C   C35       1.0  0.20130196890779217  0.4240779776351147  0.4088705133476508  1.0000
  C   C36       1.0  0.9240776369632684  0.798697989755766  0.9088705133476509  1.0000
  C   C37       1.0  0.4240788760971412  0.2986984457535939  0.0911287252348956  1.0000
  C   C38       1.0  0.7013015753105093  0.9240783671737702  0.5911287252348955  1.0000
  C   C39       1.0  0.7986980894342324  0.5759219559057202  0.5911294866523491  1.0000
  C   C40       1.0  0.0759215758421661  0.20130194378506874  0.0911287252348956  1.0000
  C   C41       1.0  0.39961750258405  0.8440703229831854  0.7076004690331528  1.0000
  C   C42       1.0  0.1559296300178517  0.8996178422499739  0.207600469033153  1.0000
  C   C43       1.0  0.3440716674580457  0.6003807897565565  0.2075997076156995  1.0000
  C   C44       1.0  0.10038125828207707  0.6559291545598286  0.7075997076156995  1.0000
  C   C45       1.0  0.6003800191482043  0.15592876502116582  0.2924010538017541  1.0000
  C   C46       1.0  0.8440712738607627  0.10038124575437732  0.7923995309668469  1.0000
  C   C47       1.0  0.6559292364205689  0.39961998932076176  0.7924010538017539  1.0000
  C   C48       1.0  0.8996179545233574  0.3440707789810062  0.29239953096684695  1.0000
  C   C49       1.0  0.3009552201869425  0.7898688977977173  0.561530144517036  1.0000
  C   C50       1.0  0.21013106196771497  0.8009547266295487  0.06153090593448949  1.0000
  C   C51       1.0  0.2898693899715852  0.6990447509134583  0.061530144517035985  1.0000
  C   C52       1.0  0.1990452317523648  0.7101314252817732  0.561530144517036  1.0000
  C   C53       1.0  0.699044838155082  0.21013103574311034  0.43846909406551043  1.0000
  C   C54       1.0  0.7898689963743094  0.1990452069112862  0.9384690940655105  1.0000
  C   C55       1.0  0.7101306683704394  0.30095433709088587  0.9384698554829638  1.0000
  C   C56       1.0  0.8009548265896597  0.2898693537955452  0.43846909406551043  1.0000
  I   I1        1.0  0.6871007883021321  0.5379133999108846  0.1551852528667368  1.0000
  I   I2        1.0  0.46208490022572585  0.18709946747599562  0.6551867757016439  1.0000
  I   I3        1.0  0.0379113240306381  0.3128992309896931  0.6551829686143691  1.0000
  I   I4        1.0  0.8128997219791997  0.962086923168606  0.1551852528667368  1.0000
  I   I5        1.0  0.3128992700398925  0.4620865336299432  0.844814747133263  1.0000
  I   I6        1.0  0.5379134670431256  0.8128996205283487  0.3448147471332632  1.0000
  I   I7        1.0  0.9620870432382062  0.6871007025511418  0.3448147471332632  1.0000
  I   I8        1.0  0.1871003363628247  0.0379130103722289  0.844814747133263  1.0000
  N   N1        1.0  0.6146941080594814  0.7894190723886326  0.9635539921117127  1.0000
  N   N2        1.0  0.21058088743294687  0.1146944873427529  0.4635539921117129  1.0000
  N   N3        1.0  0.2894195645063604  0.3853059021959027  0.4635547535291664  1.0000
  N   N4        1.0  0.8853064022218504  0.7105804051543744  0.9635547535291662  1.0000
  N   N5        1.0  0.385305950282543  0.21058086115220226  0.0364452464708336  1.0000
  N   N6        1.0  0.7894191709090774  0.885305446198082  0.5364452464708335  1.0000
  N   N7        1.0  0.710581339372247  0.6146940313449251  0.5364452464708335  1.0000
  N   N8        1.0  0.1146945016567642  0.289418682849977  0.0364452464708336  1.0000
  N   N9        1.0  0.37444926048274846  0.7638086178476229  0.64643199780712  1.0000
  N   N10       1.0  0.23619219070675965  0.8744496032896976  0.1464319978071202  1.0000
  N   N11       1.0  0.2638082612325476  0.6255507197897927  0.1464319978071202  1.0000
  N   N12       1.0  0.1255503459199687  0.736192550768351  0.64643199780712  1.0000
  N   N13       1.0  0.625550797859276  0.2361921612296953  0.35356800219287976  1.0000
  N   N14       1.0  0.763808713171855  0.12555033025113724  0.8535672407754262  1.0000
  N   N15       1.0  0.736192642646067  0.374449213751035  0.8535680021928795  1.0000
  N   N16       1.0  0.8744497124220557  0.2638082283089602  0.35356724077542606  1.0000
