data_image0
_chemical_formula_structural       Ho4P2H26C22N2O32
_chemical_formula_sum              "Ho4 P2 H26 C22 N2 O32"
_cell_length_a       9.823997607726204
_cell_length_b       10.306803656325332
_cell_length_c       11.161302212792625
_cell_angle_alpha    96.64966713082205
_cell_angle_beta     90.96907005315411
_cell_angle_gamma    107.62379748867146

_space_group_name_H-M_alt    "P 1"
_space_group_IT_number       1

loop_
  _space_group_symop_operation_xyz
  'x, y, z'

loop_
  _atom_site_type_symbol
  _atom_site_label
  _atom_site_symmetry_multiplicity
  _atom_site_fract_x
  _atom_site_fract_y
  _atom_site_fract_z
  _atom_site_occupancy
  Ho  Ho1       1.0  0.17344134121005086  0.379359775960289  0.04978122654576822  1.0000
  Ho  Ho2       1.0  0.8265568885602761  0.6206320139333671  0.9502179945929544  1.0000
  Ho  Ho3       1.0  0.3752771974020135  0.9367751134926223  0.24405249228298234  1.0000
  Ho  Ho4       1.0  0.6247230336619225  0.06321975863305342  0.755947977655623  1.0000
  P   P1        1.0  0.061396054695428914  0.634996685077688  0.21177199386349346  1.0000
  P   P2        1.0  0.9386004889314136  0.364999193301756  0.7882240017791845  1.0000
  H   H1        1.0  0.6029440480132138  0.7979429083712334  0.2613009605548555  1.0000
  H   H2        1.0  0.3970558192174209  0.20206322633796964  0.7386952289159583  1.0000
  H   H3        1.0  0.4600576898676111  0.6817071806843134  0.23088378597073247  1.0000
  H   H4        1.0  0.539943512477997  0.31829385227623425  0.7691173128178124  1.0000
  H   H5        1.0  0.9761474339753704  0.7645117483072641  0.3641104243473024  1.0000
  H   H6        1.0  0.023855214986838322  0.23549024270081287  0.6358818445331736  1.0000
  H   H7        1.0  0.0732360891503987  0.6716152019436024  0.43025412447345707  1.0000
  H   H8        1.0  0.9267664583572641  0.32838992313190835  0.5697456175688701  1.0000
  H   H9        1.0  0.7835121835386617  0.4938976678790113  0.20887398649749409  1.0000
  H   H10       1.0  0.21648527241784174  0.5061044103988053  0.7911280165356519  1.0000
  H   H11       1.0  0.8863299082031091  0.6052515194157169  0.5822344565299036  1.0000
  H   H12       1.0  0.11367699292027572  0.3947607833867012  0.4177660992905033  1.0000
  H   H13       1.0  0.9079022810790817  0.20165014544345183  0.1628392646154495  1.0000
  H   H14       1.0  0.09209522720529156  0.7983488313198424  0.8371597473729582  1.0000
  H   H15       1.0  0.8779505221247276  0.14759112836149063  0.0217022169138019  1.0000
  H   H16       1.0  0.12204397108183675  0.8524017003388521  0.9782970120460988  1.0000
  H   H17       1.0  0.3126397132259982  0.6792442158920268  0.0006174910372891029  1.0000
  H   H18       1.0  0.6873635557676181  0.32075372231383886  0.9993824601553531  1.0000
  H   H19       1.0  0.15931556198867014  0.6443149714278464  0.9422845509381336  1.0000
  H   H20       1.0  0.8406879762295816  0.3556871010871561  0.05771939674782093  1.0000
  H   H21       1.0  0.5698397271527256  0.3340237903188239  0.2358261832976041  1.0000
  H   H22       1.0  0.430159690796046  0.665981396233349  0.7641806542291081  1.0000
  H   H23       1.0  0.6547462357589923  0.44303645767813293  0.6221946483570164  1.0000
  H   H24       1.0  0.3452575456308367  0.5569759000903575  0.3778121065243526  1.0000
  H   H25       1.0  0.4878382476088278  0.3019043718620082  0.4457431924199469  1.0000
  H   H26       1.0  0.512162495851321  0.6981049198262924  0.5542640812073857  1.0000
  C   C1        1.0  0.2053268343760237  0.09093156338484225  0.09292820661383425  1.0000
  C   C2        1.0  0.7946700241791903  0.909062285338209  0.9070711819732158  1.0000
  C   C3        1.0  0.24525449352418596  0.1778754015354806  0.21903229978488534  1.0000
  C   C4        1.0  0.7547389303691004  0.8221205318100432  0.7809698949187622  1.0000
  C   C5        1.0  0.42614054208759455  0.9591005278294065  0.5223024324385366  1.0000
  C   C6        1.0  0.5738616214925969  0.04089747210237962  0.47770556126390334  1.0000
  C   C7        1.0  0.5240824110845139  0.07776368729484061  0.023707954806560804  1.0000
  C   C8        1.0  0.47592701237113755  0.9222403309867322  0.9762837875067735  1.0000
  C   C9        1.0  0.9899617266078877  0.6618011663852174  0.35987927700094974  1.0000
  C   C10       1.0  0.010039856242237018  0.33820086030643653  0.6401174486956408  1.0000
  C   C11       1.0  0.8529957640931158  0.5618046796977795  0.3886426361370782  1.0000
  C   C12       1.0  0.14700441486469631  0.43820249431662023  0.6113554552057324  1.0000
  C   C13       1.0  0.814480354659274  0.5448844111604246  0.5068974729024803  1.0000
  C   C14       1.0  0.18552319680726012  0.45512378625659994  0.4931016997918861  1.0000
  C   C15       1.0  0.6320133162103403  0.39340512476710643  0.316423912104547  1.0000
  C   C16       1.0  0.36798647241761273  0.606601062026762  0.6835794487536405  1.0000
  C   C17       1.0  0.6832705662534552  0.45335938849740404  0.5291872347598031  1.0000
  C   C18       1.0  0.3167302165080343  0.5466498771485677  0.47081645317384613  1.0000
  C   C19       1.0  0.485072238619324  0.45580283692656576  0.9374443124685996  1.0000
  C   C20       1.0  0.5149209683771973  0.544185860595313  0.06255089469699023  1.0000
  C   C21       1.0  0.5904689765455586  0.37595206090450267  0.43274470590622377  1.0000
  C   C22       1.0  0.4095307892305301  0.6240572078721272  0.567258956726427  1.0000
  N   N1        1.0  0.758953321226869  0.48472825265866953  0.2980801909799809  1.0000
  N   N2        1.0  0.2410441315284402  0.5152768945807438  0.701920320980797  1.0000
  O   O1        1.0  0.1720889045035321  0.1477031747756428  0.0079042587687326  1.0000
  O   O2        1.0  0.827919429766425  0.8522947607980741  0.9920976117757194  1.0000
  O   O3        1.0  0.2266863438142579  0.29482127366157584  0.22790575573655766  1.0000
  O   O4        1.0  0.7733033629441836  0.705166485095262  0.7721000235819563  1.0000
  O   O5        1.0  0.21192059558668325  0.9687471805050124  0.08651284377983615  1.0000
  O   O6        1.0  0.7880739204717456  0.03124256621257621  0.9134860834055945  1.0000
  O   O7        1.0  0.29370864980409556  0.1261212970246888  0.3012023423537045  1.0000
  O   O8        1.0  0.7062790556607369  0.8738633795001294  0.6988021881649262  1.0000
  O   O9        1.0  0.20653015314910314  0.7435131525225672  0.21927854132224675  1.0000
  O   O10       1.0  0.7934748936172014  0.25647756964065854  0.7807180586280256  1.0000
  O   O11       1.0  0.32391283537648263  0.9100452885188234  0.44364367213168526  1.0000
  O   O12       1.0  0.6760931630208304  0.08995160750043851  0.5563553495153571  1.0000
  O   O13       1.0  0.5031080539086048  0.7716327338921546  0.28205021165092603  1.0000
  O   O14       1.0  0.4968931484370032  0.22836829906839284  0.7179508871376188  1.0000
  O   O15       1.0  0.579506584348259  0.05277268566500481  0.3660167676723277  1.0000
  O   O16       1.0  0.4204965799896102  0.9472314555698921  0.6339891656097836  1.0000
  O   O17       1.0  0.516094192697075  0.11139604990641062  0.1348354404095389  1.0000
  O   O18       1.0  0.4839084039372565  0.8886090426161746  0.8651598195156752  1.0000
  O   O19       1.0  0.43226445699324506  0.8405158494806743  0.05421597631975322  1.0000
  O   O20       1.0  0.5677489656266772  0.15948820185233362  0.9457821421615125  1.0000
  O   O21       1.0  0.07329809067725533  0.48913769059635115  0.19014540629694213  1.0000
  O   O22       1.0  0.9266903497435592  0.510855124335059  0.8098491887398895  1.0000
  O   O23       1.0  0.9530791182299367  0.6556677750445205  0.12129101425111345  1.0000
  O   O24       1.0  0.046921375656246815  0.3443373693134789  0.8787104700360618  1.0000
  O   O25       1.0  0.3595680628610936  0.37753586325786165  0.9114297908750973  1.0000
  O   O26       1.0  0.6404237925709779  0.6224548800722404  0.08856379089198195  1.0000
  O   O27       1.0  0.9273917202911904  0.2297768370071012  0.08306835231554291  1.0000
  O   O28       1.0  0.07260686050765493  0.7702159661494293  0.916929185001493  1.0000
  O   O29       1.0  0.40863444695030193  0.5304251062541426  0.12933263498025133  1.0000
  O   O30       1.0  0.5913617783252221  0.4695666703690975  0.8706638462862202  1.0000
  O   O31       1.0  0.2322277269536812  0.599853001564327  0.9619525038317182  1.0000
  O   O32       1.0  0.7677741609994798  0.4001470019815159  0.038048511232666705  1.0000
