data_image0
_chemical_formula_structural       Cd6H120C84N12O24
_chemical_formula_sum              "Cd6 H120 C84 N12 O24"
_cell_length_a       14.340965457003891
_cell_length_b       16.338188128097773
_cell_length_c       16.338223957211568
_cell_angle_alpha    119.9999529773512
_cell_angle_beta     90.0000822425166
_cell_angle_gamma    89.99997492777462

_space_group_name_H-M_alt    "P 1"
_space_group_IT_number       1

loop_
  _space_group_symop_operation_xyz
  'x, y, z'

loop_
  _atom_site_type_symbol
  _atom_site_label
  _atom_site_symmetry_multiplicity
  _atom_site_fract_x
  _atom_site_fract_y
  _atom_site_fract_z
  _atom_site_occupancy
  Cd  Cd1       1.0  0.5639953168394244  0.3455277131323413  0.7335259847282459  1.0000
  Cd  Cd2       1.0  0.3973283349994007  0.733525836457005  0.3879978485727235  1.0000
  Cd  Cd3       1.0  0.2306571541175941  0.3879977219363297  0.6544717882688715  1.0000
  Cd  Cd4       1.0  0.06399365433576068  0.654472910935702  0.2664742288305033  1.0000
  Cd  Cd5       1.0  0.8973270491639697  0.26647393143516507  0.6120025815138633  1.0000
  Cd  Cd6       1.0  0.7306573532169693  0.6120023446989576  0.3455280508308006  1.0000
  H   H1        1.0  0.6255447031224791  0.05176100423785366  0.44101704436304356  1.0000
  H   H2        1.0  0.4588765662150962  0.44101453925316747  0.38925401965076384  1.0000
  H   H3        1.0  0.29221252414352245  0.38925401446506674  0.9482385210875465  1.0000
  H   H4        1.0  0.12554337217433445  0.9482390279428897  0.558982644882242  1.0000
  H   H5        1.0  0.9588793166751018  0.5589828005649905  0.6107440499391003  1.0000
  H   H6        1.0  0.7922129414679304  0.6107462363462303  0.05176369001230795  1.0000
  H   H7        1.0  0.6746668354345291  0.033410538300380196  0.3331703856597841  1.0000
  H   H8        1.0  0.5079994330665158  0.33316965483907507  0.2997579197625697  1.0000
  H   H9        1.0  0.3413368690913572  0.29975741447730536  0.966587632108471  1.0000
  H   H10       1.0  0.17466706607356738  0.9665892512949978  0.6668284081823896  1.0000
  H   H11       1.0  0.008003353856899799  0.6668291146883193  0.7002403777855121  1.0000
  H   H12       1.0  0.8413400011563895  0.7002416283120354  0.03341342490446647  1.0000
  H   H13       1.0  0.5518006411385344  0.030159501799296592  0.3451419385392782  1.0000
  H   H14       1.0  0.3851325403357251  0.3451398490004606  0.31497907125203983  1.0000
  H   H15       1.0  0.21846996577878744  0.3149775648773387  0.9698382032574389  1.0000
  H   H16       1.0  0.051800153309365306  0.9698405062093868  0.6548576455735785  1.0000
  H   H17       1.0  0.8851360617047846  0.6548591388335296  0.6850184451458786  1.0000
  H   H18       1.0  0.7184717054979188  0.6850221443882275  0.03016197184233944  1.0000
  H   H19       1.0  0.6762337350206167  0.20452806972403442  0.4581207472408196  1.0000
  H   H20       1.0  0.5095669017241776  0.4581210927937817  0.2535926860666676  1.0000
  H   H21       1.0  0.3429035809764613  0.25359106257791814  0.7954710725128536  1.0000
  H   H22       1.0  0.17623384672296538  0.7954719790720546  0.5418790142701864  1.0000
  H   H23       1.0  0.009567473525734697  0.5418775825587827  0.7464069325223973  1.0000
  H   H24       1.0  0.8429034829906926  0.7464114890992731  0.2045313748561098  1.0000
  H   H25       1.0  0.5398766851545674  0.1650638913945599  0.29733189458956133  1.0000
  H   H26       1.0  0.3732106115482737  0.29733432156112366  0.13226524727438257  1.0000
  H   H27       1.0  0.20654601766195668  0.1322654563260243  0.8349329319177627  1.0000
  H   H28       1.0  0.0398770397898431  0.8349361127057617  0.7026676725245408  1.0000
  H   H29       1.0  0.8732116182918405  0.7026656278021335  0.8677325108130631  1.0000
  H   H30       1.0  0.706543005683784  0.8677318954690845  0.16506345912490153  1.0000
  H   H31       1.0  0.6633969531868258  0.15715352031183014  0.2861338096893604  1.0000
  H   H32       1.0  0.49673088685784716  0.2861348077116617  0.12897857179754613  1.0000
  H   H33       1.0  0.33006630014824623  0.12897755792796772  0.8428456535121498  1.0000
  H   H34       1.0  0.1633973221740987  0.8428474897141027  0.7138661922088757  1.0000
  H   H35       1.0  0.9967318933994987  0.7138664062643227  0.8710205865090898  1.0000
  H   H36       1.0  0.8300639709178342  0.8710220239174901  0.15715239643798623  1.0000
  H   H37       1.0  0.6099989077879187  0.26785233932906743  0.3604539812602284  1.0000
  H   H38       1.0  0.4433341547292926  0.36045736987879445  0.09260159307716977  1.0000
  H   H39       1.0  0.27666953486334483  0.09259955082744413  0.7321453101645191  1.0000
  H   H40       1.0  0.10999990777065702  0.7321479464434972  0.6395466512589607  1.0000
  H   H41       1.0  0.9433359549378152  0.6395434732194827  0.9073978424787654  1.0000
  H   H42       1.0  0.7766666710050886  0.9074016857031636  0.2678522156007616  1.0000
  H   H43       1.0  0.4634858487039466  0.18276349474298575  0.4439154673299584  1.0000
  H   H44       1.0  0.2968190312960033  0.4439148531029672  0.2611492513906554  1.0000
  H   H45       1.0  0.1301557167369722  0.26115075112403485  0.8172362744625874  1.0000
  H   H46       1.0  0.9634855922601204  0.8172363895228614  0.556083738265947  1.0000
  H   H47       1.0  0.796819900477047  0.5560869074071916  0.738850233973487  1.0000
  H   H48       1.0  0.6301555869677741  0.7388492825683243  0.18276342135723658  1.0000
  H   H49       1.0  0.5301752976928142  0.19327017070195757  0.5397189125750687  1.0000
  H   H50       1.0  0.36350775319443324  0.5397196987517389  0.3464474730514127  1.0000
  H   H51       1.0  0.1968450603281298  0.34644719024496606  0.8067279434235247  1.0000
  H   H52       1.0  0.0301752705506502  0.8067292181560218  0.46028002864657935  1.0000
  H   H53       1.0  0.8635071361270336  0.46028147155543286  0.6535514953248551  1.0000
  H   H54       1.0  0.6968456874417087  0.6535531239944062  0.193272812907388  1.0000
  H   H55       1.0  0.5147927055650783  0.3449827479464814  0.4815298354143208  1.0000
  H   H56       1.0  0.34812648399782387  0.4815290252934829  0.13654557502164968  1.0000
  H   H57       1.0  0.1814638763673173  0.1365444543953559  0.655017042459619  1.0000
  H   H58       1.0  0.014792848892334103  0.6550168945564677  0.5184700493123627  1.0000
  H   H59       1.0  0.8481282726587552  0.5184711745348167  0.8634531127402881  1.0000
  H   H60       1.0  0.6814639495243925  0.8634555961150878  0.3449827265076875  1.0000
  H   H61       1.0  0.503572439257077  0.6037410997354796  0.6071759970904438  1.0000
  H   H62       1.0  0.3369088287336908  0.607173875910263  0.003434127235074267  1.0000
  H   H63       1.0  0.17024269634432435  0.003435683883104482  0.39626203724392894  1.0000
  H   H64       1.0  0.0035718087924366004  0.39625889246469376  0.3928235182658995  1.0000
  H   H65       1.0  0.8369074107278605  0.3928263202405376  0.9965645445321557  1.0000
  H   H66       1.0  0.6702410339320933  0.9965655616964495  0.6037438617087217  1.0000
  H   H67       1.0  0.6424913594947412  0.5048239219369748  0.699729881625423  1.0000
  H   H68       1.0  0.4758256902130142  0.6997297131491178  0.19490428009092395  1.0000
  H   H69       1.0  0.30915876035493983  0.19490723887636116  0.49517621503101594  1.0000
  H   H70       1.0  0.1424919233083699  0.4951757624237487  0.30027018515480813  1.0000
  H   H71       1.0  0.9758260974857934  0.30026991647453366  0.8050939776626507  1.0000
  H   H72       1.0  0.8091584262464196  0.8050943363022397  0.5048259255417803  1.0000
  H   H73       1.0  0.5231611575301756  0.5017009387100088  0.6727858853215806  1.0000
  H   H74       1.0  0.3564961940230944  0.6727847750003447  0.1710810231625215  1.0000
  H   H75       1.0  0.1898299826927996  0.17108314414618064  0.49829898958743973  1.0000
  H   H76       1.0  0.023161066485109  0.4982990599111402  0.3272136579617565  1.0000
  H   H77       1.0  0.8564966267965346  0.3272149101969646  0.8289157456605807  1.0000
  H   H78       1.0  0.6898282370309373  0.8289151422302865  0.5017025581739105  1.0000
  H   H79       1.0  0.5533779045669789  0.6524691368169612  0.4902867091186279  1.0000
  H   H80       1.0  0.3867151119129987  0.49028461200314416  0.8378169928208764  1.0000
  H   H81       1.0  0.22004871924947617  0.837818267716308  0.3475338390633382  1.0000
  H   H82       1.0  0.0533774892086782  0.3475296475841033  0.509711653120064  1.0000
  H   H83       1.0  0.8867136678816364  0.509715600473406  0.16218174995253773  1.0000
  H   H84       1.0  0.7200468540558093  0.1621830888769581  0.6524708120862854  1.0000
  H   H85       1.0  0.7718269054937467  0.4614619681952092  0.395938373696211  1.0000
  H   H86       1.0  0.605164942059794  0.39593765373808043  0.9344760934699395  1.0000
  H   H87       1.0  0.4384985789322684  0.9344760656259081  0.538538982604784  1.0000
  H   H88       1.0  0.2718251546061055  0.5385395947463322  0.6040637136535166  1.0000
  H   H89       1.0  0.1051650683945624  0.604061406325215  0.06552330803425112  1.0000
  H   H90       1.0  0.9384950552991925  0.06552362107281343  0.46146282498316543  1.0000
  H   H91       1.0  0.7357276296026569  0.4074616285492851  0.5102827161037027  1.0000
  H   H92       1.0  0.5690662465320387  0.5102829036710544  0.10282086087556036  1.0000
  H   H93       1.0  0.4024001444452239  0.10282116056702507  0.5925391570497993  1.0000
  H   H94       1.0  0.2357249678389692  0.5925405346216194  0.48971993184196083  1.0000
  H   H95       1.0  0.069067090476608  0.48971579118455116  0.8971788425387858  1.0000
  H   H96       1.0  0.9023947244304154  0.897178867674043  0.40746224569952  1.0000
  H   H97       1.0  0.5105388035441436  0.12800056973467377  0.8371794907084721  1.0000
  H   H98       1.0  0.3438747086585394  0.8371827544072443  0.7091811174255083  1.0000
  H   H99       1.0  0.17720548096703226  0.7091816798353535  0.8720028318464514  1.0000
  H   H100      1.0  0.0105396528133639  0.8720002954986509  0.1628216120769891  1.0000
  H   H101      1.0  0.84387504180863  0.16281760802620232  0.29081984851763565  1.0000
  H   H102      1.0  0.677204787278299  0.29081924002856135  0.1279985085458222  1.0000
  H   H103      1.0  0.599089276567284  0.06296449926948361  0.755439567380563  1.0000
  H   H104      1.0  0.4324224497191409  0.7554385891775935  0.6924713940041585  1.0000
  H   H105      1.0  0.26575815371695205  0.6924719273965676  0.9370335429369162  1.0000
  H   H106      1.0  0.0990895296667418  0.9370354295517556  0.24456140295845324  1.0000
  H   H107      1.0  0.9324220721988115  0.24456154359324242  0.30752873274127523  1.0000
  H   H108      1.0  0.7657573455264169  0.30752744399374166  0.06296705295096665  1.0000
  H   H109      1.0  0.48079734973631366  0.0540223613707909  0.7154350821917604  1.0000
  H   H110      1.0  0.31412844600929196  0.7154393549938477  0.6614174668542675  1.0000
  H   H111      1.0  0.1474648777462519  0.6614147424134984  0.9459804136025837  1.0000
  H   H112      1.0  0.9807972831951518  0.9459783993189815  0.2845657255808545  1.0000
  H   H113      1.0  0.8141274020031659  0.2845594201891685  0.3385825859310145  1.0000
  H   H114      1.0  0.6474640395005621  0.3385855556395541  0.054020272328557294  1.0000
  H   H115      1.0  0.6548691283483875  0.34171493387070473  0.5779362321286854  1.0000
  H   H116      1.0  0.48820218736155147  0.5779367603653112  0.23622054352442487  1.0000
  H   H117      1.0  0.3215367109917295  0.23622301750056346  0.6582851713504  1.0000
  H   H118      1.0  0.1548684153201378  0.6582848492351303  0.42206253348827255  1.0000
  H   H119      1.0  0.9882031639009909  0.4220634853775779  0.7637783439354991  1.0000
  H   H120      1.0  0.8215361310827589  0.7637782083601079  0.34171734024246087  1.0000
  C   C1        1.0  0.6162454173856133  0.06606163232748943  0.38255507986403364  1.0000
  C   C2        1.0  0.44957798419799394  0.38255454760979285  0.3164916426108206  1.0000
  C   C3        1.0  0.2829146907177885  0.31649085027076046  0.9339369724814262  1.0000
  C   C4        1.0  0.11624488631728272  0.9339387501804095  0.6174442427506789  1.0000
  C   C5        1.0  0.9495815217045022  0.6174441079732631  0.6835063190372422  1.0000
  C   C6        1.0  0.7829164898153919  0.68350878543076  0.06606461330255782  1.0000
  C   C7        1.0  0.6113817310043571  0.17235290146888368  0.4184802079175897  1.0000
  C   C8        1.0  0.4447149258328053  0.4184794237542561  0.24612504992029458  1.0000
  C   C9        1.0  0.2780509321478419  0.24612349103908593  0.8276449895821119  1.0000
  C   C10       1.0  0.11138049683032142  0.8276467726942727  0.5815198145100026  1.0000
  C   C11       1.0  0.9447172015041616  0.5815208077343785  0.7538737755430561  1.0000
  C   C12       1.0  0.7780514752121093  0.7538772031935392  0.1723555291460385  1.0000
  C   C13       1.0  0.6059078294721446  0.19192640219515059  0.33623668699528514  1.0000
  C   C14       1.0  0.43924173094058006  0.33623839013216633  0.14430932529884896  1.0000
  C   C15       1.0  0.2725778092715244  0.14430966254400368  0.8080720752338096  1.0000
  C   C16       1.0  0.10590743663382798  0.8080730114867618  0.6637623621939923  1.0000
  C   C17       1.0  0.9392427373645518  0.6637615808751035  0.8556885269256824  1.0000
  C   C18       1.0  0.7725755444496586  0.8556895470824057  0.19192624613169315  1.0000
  C   C19       1.0  0.5274209007017775  0.21437924246205137  0.485330976133838  1.0000
  C   C20       1.0  0.36075405504468694  0.48533108334109437  0.2709504835593321  1.0000
  C   C21       1.0  0.1940900172280493  0.2709497613097085  0.7856198538433787  1.0000
  C   C22       1.0  0.027420275567230597  0.785619792117785  0.5146683145342337  1.0000
  C   C23       1.0  0.8607542315151874  0.5146693793131972  0.729049187638985  1.0000
  C   C24       1.0  0.6940913385673112  0.7290511640890355  0.21438151062172736  1.0000
  C   C25       1.0  0.5164767416318128  0.32217792397720757  0.5346291085705133  1.0000
  C   C26       1.0  0.3498105198088908  0.5346289498863184  0.2124486574650674  1.0000
  C   C27       1.0  0.1831464685482018  0.2124484964828427  0.677821559693527  1.0000
  C   C28       1.0  0.0164774842124658  0.677821107015525  0.4653701664960224  1.0000
  C   C29       1.0  0.8498129082344975  0.465372569306787  0.7875499380122762  1.0000
  C   C30       1.0  0.6831472395193005  0.787552425328684  0.3221797891695528  1.0000
  C   C31       1.0  0.5641903657526441  0.5709575616889637  0.5621714482918065  1.0000
  C   C32       1.0  0.39752620690001095  0.5621678444204435  0.9912115301156917  1.0000
  C   C33       1.0  0.23086112988303142  0.9912133357210279  0.4290446103283541  1.0000
  C   C34       1.0  0.06418909517179831  0.4290427090678789  0.43782911891894116  1.0000
  C   C35       1.0  0.8975259427385184  0.43783175953770126  0.008786616009949377  1.0000
  C   C36       1.0  0.730857813266482  0.00878802441614116  0.5709600562349239  1.0000
  C   C37       1.0  0.615651359127135  0.5020579591495603  0.5692318707089327  1.0000
  C   C38       1.0  0.448988513078845  0.56922976878581  0.06717284495503838  1.0000
  C   C39       1.0  0.28232238638406665  0.0671742183392326  0.49794303036778603  1.0000
  C   C40       1.0  0.1156500427521507  0.4979423284754175  0.43076876986700796  1.0000
  C   C41       1.0  0.9489876694239215  0.4307688866033033  0.9328251158495179  1.0000
  C   C42       1.0  0.7823184977184994  0.9328260292295167  0.5020591666291379  1.0000
  C   C43       1.0  0.5918775724676735  0.4734948661987345  0.6413882163527517  1.0000
  C   C44       1.0  0.4252133300889014  0.6413882789752703  0.1678923497226207  1.0000
  C   C45       1.0  0.2585471373784429  0.1678935333329505  0.5265060085430804  1.0000
  C   C46       1.0  0.0918775186663368  0.526505767008956  0.3586120369574104  1.0000
  C   C47       1.0  0.9252137524567631  0.3586129115582324  0.8321067066247849  1.0000
  C   C48       1.0  0.7585453440698516  0.8321067064429711  0.47349615456022326  1.0000
  C   C49       1.0  0.5906578403757906  0.5977595830937543  0.496826892281504  1.0000
  C   C50       1.0  0.42399507716088897  0.49682488991884793  0.8990673758681708  1.0000
  C   C51       1.0  0.2573293628558844  0.8990688122156243  0.4022433587749744  1.0000
  C   C52       1.0  0.0906573871308964  0.4022391188390414  0.5031728419139085  1.0000
  C   C53       1.0  0.9239949309688528  0.5031744640282908  0.10092984255776814  1.0000
  C   C54       1.0  0.7573267414817194  0.10093229791043257  0.5977603800881042  1.0000
  C   C55       1.0  0.7132283726891444  0.49112190459203475  0.4447030551608435  1.0000
  C   C56       1.0  0.5465670775913836  0.44470195839554083  0.9535808946555661  1.0000
  C   C57       1.0  0.37990068202398675  0.9535813897201847  0.5088793192431069  1.0000
  C   C58       1.0  0.21322725422422908  0.5088784150172571  0.5552977245256514  1.0000
  C   C59       1.0  0.0465671969795878  0.5552968237731263  0.046417457873673004  1.0000
  C   C60       1.0  0.8798965190220686  0.04641792439571905  0.4911227581780936  1.0000
  C   C61       1.0  0.6919146649612599  0.4614035818699874  0.5085631890436204  1.0000
  C   C62       1.0  0.5252525543858795  0.508562871707987  0.047158948571485754  1.0000
  C   C63       1.0  0.3585864671164174  0.04716074560246151  0.5385976113240859  1.0000
  C   C64       1.0  0.19191273013370846  0.538597696190365  0.4914378189442344  1.0000
  C   C65       1.0  0.0252527910643181  0.49143616216124286  0.9528403390059026  1.0000
  C   C66       1.0  0.8585818048080827  0.9528404924018969  0.461404953085754  1.0000
  C   C67       1.0  0.5517814090769592  0.18564335983498373  0.7506526293005464  1.0000
  C   C68       1.0  0.3851103299429753  0.7506549675602584  0.5650082597121509  1.0000
  C   C69       1.0  0.21844118723134193  0.565008566710098  0.8143557355028221  1.0000
  C   C70       1.0  0.05178103369955521  0.814356294792219  0.2493473081586188  1.0000
  C   C71       1.0  0.885110158184183  0.24934576176472237  0.43499241164444413  1.0000
  C   C72       1.0  0.7184440024931219  0.43499140123333285  0.1856454049917601  1.0000
  C   C73       1.0  0.5338837616761154  0.10169077756074084  0.7641027999572857  1.0000
  C   C74       1.0  0.3672148187782085  0.7641043110843169  0.6624129134768069  1.0000
  C   C75       1.0  0.20054982802767543  0.6624127738259986  0.8983103698577395  1.0000
  C   C76       1.0  0.0338833225846216  0.8983104486996962  0.23589798273529522  1.0000
  C   C77       1.0  0.8672144946523446  0.23589570562436527  0.33758843911427755  1.0000
  C   C78       1.0  0.7005490681209495  0.33758657619000587  0.10169013306610702  1.0000
  C   C79       1.0  0.4220403175090865  0.3494141703055149  0.5859484190062504  1.0000
  C   C80       1.0  0.25537615937234653  0.5859511222380148  0.23653615642083273  1.0000
  C   C81       1.0  0.08871137567722802  0.23653626859272953  0.6505865952195934  1.0000
  C   C82       1.0  0.9220399120121597  0.6505859590622121  0.414051692937896  1.0000
  C   C83       1.0  0.7553785339877309  0.41404843512590606  0.7634617870508434  1.0000
  C   C84       1.0  0.5887108084929339  0.7634650703274273  0.34941294682903384  1.0000
  N   N1        1.0  0.5908469539133351  0.3704894676694011  0.6044589885670747  1.0000
  N   N2        1.0  0.42418068729471514  0.6044595216926465  0.23396726631987957  1.0000
  N   N3        1.0  0.25751449912282715  0.23396920897324244  0.6295098935035882  1.0000
  N   N4        1.0  0.09084690918873409  0.6295105531381537  0.39554065121237153  1.0000
  N   N5        1.0  0.9241816807026737  0.39554079775302836  0.7660302110592666  1.0000
  N   N6        1.0  0.7575139650802923  0.7660311251524801  0.3704909493197234  1.0000
  N   N7        1.0  0.6638509225049205  0.5580814478525155  0.4388384197423746  1.0000
  N   N8        1.0  0.49718749893477115  0.43883692787792206  0.8807556827400872  1.0000
  N   N9        1.0  0.3305218221095814  0.8807561010992159  0.44191941429647824  1.0000
  N   N10       1.0  0.16384984691631393  0.44191824350928505  0.5611616774879026  1.0000
  N   N11       1.0  0.9971873538078668  0.5611629674348462  0.11924357090256875  1.0000
  N   N12       1.0  0.8305191268391355  0.11924442095590145  0.5580838168517631  1.0000
  O   O1        1.0  0.4178837588599933  0.3668943704261095  0.6712099957041743  1.0000
  O   O2        1.0  0.2512167803817463  0.6712071550039267  0.3043127628012312  1.0000
  O   O3        1.0  0.08454983951463652  0.30430882549164545  0.6331061211091223  1.0000
  O   O4        1.0  0.917883222828813  0.6331067230166383  0.32879036900186515  1.0000
  O   O5        1.0  0.7512183894199538  0.32879414249535444  0.6956883297330593  1.0000
  O   O6        1.0  0.5845493345805295  0.695691451938849  0.36689447512759416  1.0000
  O   O7        1.0  0.3518720604113881  0.34950908220511673  0.5389010590349982  1.0000
  O   O8        1.0  0.1852030327951582  0.5388980783633812  0.18938914528995088  1.0000
  O   O9        1.0  0.0185361956337573  0.18938580231465343  0.6504942895175816  1.0000
  O   O10       1.0  0.8518724290904985  0.650489093287611  0.461098435498954  1.0000
  O   O11       1.0  0.6852033690899191  0.4611046109981416  0.810610439636534  1.0000
  O   O12       1.0  0.5185369997580835  0.8106132293531444  0.34950498848505157  1.0000
  O   O13       1.0  0.6175329330034245  0.24205990132539082  0.7963060542330781  1.0000
  O   O14       1.0  0.4508618104828487  0.7963011364861001  0.5542424538125912  1.0000
  O   O15       1.0  0.2841961310392804  0.5542440922354003  0.7579367848603908  1.0000
  O   O16       1.0  0.11753181382999861  0.757939162791743  0.20369336490262663  1.0000
  O   O17       1.0  0.9508616790054418  0.20369890764084894  0.4457590180297474  1.0000
  O   O18       1.0  0.7841969411649073  0.445754509137508  0.24206094100951245  1.0000
  O   O19       1.0  0.4988930098453181  0.1978494067403319  0.6940354778898624  1.0000
  O   O20       1.0  0.3322142675263962  0.6940413006322926  0.4961883962745617  1.0000
  O   O21       1.0  0.16555214710378863  0.4961885162118306  0.8021484172932744  1.0000
  O   O22       1.0  0.9988923524726446  0.8021507478185085  0.30596474361894366  1.0000
  O   O23       1.0  0.8322141799916736  0.3059584459166516  0.5038119409831836  1.0000
  O   O24       1.0  0.6655507642549169  0.5038117877698695  0.1978522944235408  1.0000
