data_image0
_chemical_formula_structural       Na4H20C12S4N8O16
_chemical_formula_sum              "Na4 H20 C12 S4 N8 O16"
_cell_length_a       7.07102872400033
_cell_length_b       10.042624499343722
_cell_length_c       10.316457072630268
_cell_angle_alpha    115.80082586685056
_cell_angle_beta     89.99999055351218
_cell_angle_gamma    90.00003426993744

_space_group_name_H-M_alt    "P 1"
_space_group_IT_number       1

loop_
  _space_group_symop_operation_xyz
  'x, y, z'

loop_
  _atom_site_type_symbol
  _atom_site_label
  _atom_site_symmetry_multiplicity
  _atom_site_fract_x
  _atom_site_fract_y
  _atom_site_fract_z
  _atom_site_occupancy
  Na  Na1       1.0  0.48152828973058365  0.26610060359804766  0.506499833747007  1.0000
  Na  Na2       1.0  0.9815276607975181  0.23390055585733188  0.49350036536832664  1.0000
  Na  Na3       1.0  0.5184721939333842  0.7338998204657373  0.49349953156689697  1.0000
  Na  Na4       1.0  0.018471408644956003  0.7660998685784719  0.5064999694282547  1.0000
  H   H1        1.0  0.7413390864214054  0.058271247843833904  0.23715947300382104  1.0000
  H   H2        1.0  0.2413383884150521  0.44172758956733554  0.7628407396716522  1.0000
  H   H3        1.0  0.25866139724151094  0.9417269649425181  0.76284089471374  1.0000
  H   H4        1.0  0.7586620952478642  0.5582706232190161  0.2371596280459086  1.0000
  H   H5        1.0  0.6698831059666973  0.9960407826276805  0.34461393095241966  1.0000
  H   H6        1.0  0.1698848922663387  0.503960082391174  0.6553870200111545  1.0000
  H   H7        1.0  0.33011454925428313  0.003959642180156201  0.6553873733268316  1.0000
  H   H8        1.0  0.8301170056188881  0.49604034204528347  0.3446133147855404  1.0000
  H   H9        1.0  0.0358024457367776  0.2734791844241257  0.8247204871521273  1.0000
  H   H10       1.0  0.5358033005782376  0.22651955814744434  0.17527873947311423  1.0000
  H   H11       1.0  0.9641966237048722  0.7265190279895534  0.1752789110826497  1.0000
  H   H12       1.0  0.46419859730617224  0.7734786542668813  0.8247206587617695  1.0000
  H   H13       1.0  0.983277103272414  0.22705867551211156  0.04406940148871288  1.0000
  H   H14       1.0  0.4832804593923045  0.2729424854926634  0.95593273673321  1.0000
  H   H15       1.0  0.0167205519489713  0.7729428553067876  0.9559323710714476  1.0000
  H   H16       1.0  0.5167228527144874  0.7270590456998819  0.044070005309904986  1.0000
  H   H17       1.0  0.3921525033974121  0.57649157194448  0.12552521006807632  1.0000
  H   H18       1.0  0.8921519438719944  0.9235093948597066  0.8744747893290065  1.0000
  H   H19       1.0  0.6078465660454739  0.423509958502393  0.874475593009407  1.0000
  H   H20       1.0  0.1078485397919735  0.0764910292040781  0.12552457598490455  1.0000
  C   C1        1.0  0.08213810278353861  0.3074808474672679  0.04040442692485158  1.0000
  C   C2        1.0  0.5821401563424475  0.19252234044537178  0.9595966765590017  1.0000
  C   C3        1.0  0.9178595524382589  0.6925217893626934  0.9595978139162111  1.0000
  C   C4        1.0  0.4178645699866622  0.8074814023972792  0.04040603256324712  1.0000
  C   C5        1.0  0.19943931091263079  0.40820506422491576  0.14577472936532834  1.0000
  C   C6        1.0  0.699441304496766  0.09179707121762698  0.8542249458101164  1.0000
  C   C7        1.0  0.8005583443093942  0.5917975718603472  0.854225572510273  1.0000
  C   C8        1.0  0.3005605933894061  0.9082055648686165  0.14577535606565548  1.0000
  C   C9        1.0  0.289912750955253  0.4876799640747579  0.07928021446848278  1.0000
  C   C10       1.0  0.7899090046937688  0.0123177892774464  0.9207185643585871  1.0000
  C   C11       1.0  0.7100905611506506  0.5123182479675419  0.9207182142837379  1.0000
  C   C12       1.0  0.21008582208344256  0.9876793167518442  0.0792793961123832  1.0000
  S   S1        1.0  0.22516256849172586  0.42151755658316853  0.3198062168565626  1.0000
  S   S2        1.0  0.725167420721576  0.0784845910551581  0.6801944298751861  1.0000
  S   S3        1.0  0.7748322582871341  0.5784839734903784  0.680193616738023  1.0000
  S   S4        1.0  0.2748373056073491  0.9215180450317318  0.31980587200069965  1.0000
  N   N1        1.0  0.2334611522113549  0.4374016839833317  0.9416351419171529  1.0000
  N   N2        1.0  0.7334604822308608  0.0625971490623272  0.05836313115784718  1.0000
  N   N3        1.0  0.7665393314522008  0.5625976340693838  0.05836375511584887  1.0000
  N   N4        1.0  0.2665371729896365  0.9374010626063266  0.9416343281114049  1.0000
  N   N5        1.0  0.10824029047993385  0.32777829585057106  0.9212212275398453  1.0000
  N   N6        1.0  0.6082411224446748  0.17222269240895116  0.07877991096889043  1.0000
  N   N7        1.0  0.8917601931839203  0.6722221285855597  0.07877910725679259  1.0000
  N   N8        1.0  0.3917607754409716  0.8277788380385757  0.9212208921087137  1.0000
  O   O1        1.0  0.3917959935029601  0.3324071772047645  0.3189551822387741  1.0000
  O   O2        1.0  0.891806577673215  0.16758841170030786  0.6810446072049597  1.0000
  O   O3        1.0  0.6081931763880918  0.667588823556855  0.681044248916528  1.0000
  O   O4        1.0  0.1082038055385368  0.832407589066186  0.31895482395119484  1.0000
  O   O5        1.0  0.25385293277420123  0.5788396633244162  0.41460474308634315  1.0000
  O   O6        1.0  0.7538524401106842  0.9211601346489359  0.5853967158474729  1.0000
  O   O7        1.0  0.7461461366681521  0.42116076148374043  0.5853965611929721  1.0000
  O   O8        1.0  0.24614662933155534  0.0788402905315664  0.4146055579145694  1.0000
  O   O9        1.0  0.04815576314921091  0.36030326722173805  0.3460942383518243  1.0000
  O   O10       1.0  0.548160673339183  0.1396976930506568  0.6539059258311466  1.0000
  O   O11       1.0  0.9518390636296488  0.6396982628518089  0.6539055952427615  1.0000
  O   O12       1.0  0.45184546721112906  0.860304943036553  0.346094376044796  1.0000
  O   O13       1.0  0.7277625593377479  0.08321999482301118  0.34105220550991777  1.0000
  O   O14       1.0  0.22776186500332335  0.41677994235924837  0.658948474352101  1.0000
  O   O15       1.0  0.2722393385470738  0.9167793236023768  0.6589476610058681  1.0000
  O   O16       1.0  0.7722386186605308  0.5832204820768822  0.34105186044453706  1.0000
