data_image0
_chemical_formula_structural       K2H46C44O30
_chemical_formula_sum              "K2 H46 C44 O30"
_cell_length_a       7.04328762
_cell_length_b       8.756990149616897
_cell_length_c       19.1582
_cell_angle_alpha    103.22296933471952
_cell_angle_beta     90.0
_cell_angle_gamma    90.0

_space_group_name_H-M_alt    "P 1"
_space_group_IT_number       1

loop_
  _space_group_symop_operation_xyz
  'x, y, z'

loop_
  _atom_site_type_symbol
  _atom_site_label
  _atom_site_symmetry_multiplicity
  _atom_site_fract_x
  _atom_site_fract_y
  _atom_site_fract_z
  _atom_site_occupancy
  K   K1        1.0  0.8936749909412354  0.8394208011369813  0.7210745464618142  1.0000
  K   K2        1.0  0.3936812110478626  0.16058171739170046  0.2789254036809227  1.0000
  H   H1        1.0  0.7115384562415483  0.7525039949442771  0.860388695817406  1.0000
  H   H2        1.0  0.21153757739060094  0.2474973505389073  0.139611131677654  1.0000
  H   H3        1.0  0.6934119779705908  0.1499938087245098  0.6798796441395893  1.0000
  H   H4        1.0  0.19340967932813408  0.8500075367586746  0.32012018335547054  1.0000
  H   H5        1.0  0.7755327191934285  0.1005534601098432  0.9126732692575887  1.0000
  H   H6        1.0  0.27553751950853916  0.8994467123278441  0.0873264355898016  1.0000
  H   H7        1.0  0.7681540626903993  0.3440648020457076  0.11529896858478142  1.0000
  H   H8        1.0  0.2681574432139939  0.6559341973464825  0.884702179524048  1.0000
  H   H9        1.0  0.7877599637198996  0.685562980541242  0.26494557094687826  1.0000
  H   H10       1.0  0.2877605046604614  0.31443719189644537  0.735055177839918  1.0000
  H   H11       1.0  0.8670368625383489  0.011956852763646003  0.12016006620983433  1.0000
  H   H12       1.0  0.3670331441043685  0.9880444927195384  0.8798392393155224  1.0000
  H   H13       1.0  0.9062926781343064  0.9294930997199773  0.02690246245260403  1.0000
  H   H14       1.0  0.4062889597003263  0.0705094188087045  0.9730969657204228  1.0000
  H   H15       1.0  0.6776721692362173  0.9870110396355827  0.058036559870835405  1.0000
  H   H16       1.0  0.1776670310107278  0.0129867867111102  0.941963421650911  1.0000
  H   H17       1.0  0.6552806372544564  0.5325779057961955  0.6850877578193109  1.0000
  H   H18       1.0  0.15528259798653465  0.4674234396869892  0.31491206967574936  1.0000
  H   H19       1.0  0.9936112760932543  0.3042797909271188  0.6517558006874041  1.0000
  H   H20       1.0  0.49361323682533237  0.6957215545560729  0.34824402680765604  1.0000
  H   H21       1.0  0.11850999775016648  0.515161699283702  0.7197650174467328  1.0000
  H   H22       1.0  0.6185122963926304  0.4848384731539852  0.2802346874006503  1.0000
  H   H23       1.0  0.8477333771015338  0.5404173688609859  0.5691720195471179  1.0000
  H   H24       1.0  0.3477339180420954  0.4595828035767013  0.43082716333056237  1.0000
  H   H25       1.0  0.14050824748230176  0.49984993639506575  0.5387631097907928  1.0000
  H   H26       1.0  0.6405077065417328  0.5001490629971245  0.4612364724089204  1.0000
  H   H27       1.0  0.8212272893095331  0.18338806796864304  0.5252994386079524  1.0000
  H   H28       1.0  0.32122641045858547  0.8166132775145414  0.4747009108568108  1.0000
  H   H29       1.0  0.6860276423015106  0.22928112699661096  0.4273631842756061  1.0000
  H   H30       1.0  0.18602676345056315  0.7707178723955792  0.5726369198938104  1.0000
  H   H31       1.0  0.4992157341431991  0.4197966194126153  0.5754365176060149  1.0000
  H   H32       1.0  0.9992166129941464  0.580203553025072  0.4245642311807814  1.0000
  H   H33       1.0  0.3245600809356118  0.1686076946907136  0.5785462817755231  1.0000
  H   H34       1.0  0.824563799369592  0.8313948238379683  0.42145471230661974  1.0000
  H   H35       1.0  0.3707984312019334  0.20238202067628214  0.49247779997621427  1.0000
  H   H36       1.0  0.870799310052881  0.7976204978524066  0.5075226721362256  1.0000
  H   H37       1.0  0.5533949783524506  0.9698071543582786  0.5540126522314496  1.0000
  H   H38       1.0  0.0533969390845357  0.030194191124913103  0.4459871752636104  1.0000
  H   H39       1.0  0.18727617998369075  0.018427371731981203  0.654012985221911  1.0000
  H   H40       1.0  0.6872770588346384  0.981571627660209  0.34598764091720824  1.0000
  H   H41       1.0  0.0896612539585604  0.9849089421027274  0.575337210352899  1.0000
  H   H42       1.0  0.5896621328095077  0.0150900572894628  0.42466289381651745  1.0000
  H   H43       1.0  0.5794595109833125  0.7300906146092461  0.5543617265021723  1.0000
  H   H44       1.0  0.07945863213236487  0.2699083847829442  0.4456378556975338  1.0000
  H   H45       1.0  0.4823585494865838  0.8120055547974232  0.6262746674909893  1.0000
  H   H46       1.0  0.9823565887544986  0.1879922715492697  0.3737232261519382  1.0000
  C   C1        1.0  0.7338362819833291  0.5351058188449187  0.8202050246909992  1.0000
  C   C2        1.0  0.2338339833408654  0.4648955266382657  0.1797953247737638  1.0000
  C   C3        1.0  0.7373090920288161  0.4015299549138902  0.761913866031712  1.0000
  C   C4        1.0  0.23730821317786874  0.5984713905692942  0.23808648343305092  1.0000
  C   C5        1.0  0.749262316792908  0.2524698904059832  0.7761427690468852  1.0000
  C   C6        1.0  0.24926285773347698  0.7475314550772014  0.22385758041788514  1.0000
  C   C7        1.0  0.7632969559178661  0.23213280060285515  0.847740471378458  1.0000
  C   C8        1.0  0.26329749685843495  0.767866198789335  0.1522596327909582  1.0000
  C   C9        1.0  0.7632174475930282  0.3652957525184989  0.9048844921306696  1.0000
  C   C10       1.0  0.2632208281166299  0.6347032468736913  0.0951161340084496  1.0000
  C   C11       1.0  0.7647976755491326  0.462839177879836  0.1066637654781886  1.0000
  C   C12       1.0  0.2647996362812179  0.5371586484668571  0.8933362160435507  1.0000
  C   C13       1.0  0.767008290937859  0.5922436920190961  0.165129493563299  1.0000
  C   C14       1.0  0.26700741208691164  0.4077564804185911  0.8348696893143812  1.0000
  C   C15       1.0  0.7679496127122505  0.7483549330169765  0.15438912803120533  1.0000
  C   C16       1.0  0.2679458942782773  0.2516452394207178  0.845610576816185  1.0000
  C   C17       1.0  0.7513337926131738  0.8820363710428439  0.21993574251516185  1.0000
  C   C18       1.0  0.2513300741791937  0.11796380139484341  0.7800639623322212  1.0000
  C   C19       1.0  0.7763136045266348  0.7728446038839039  0.08386814317243821  1.0000
  C   C20       1.0  0.2763084663011383  0.2271543955082862  0.916131960996978  1.0000
  C   C21       1.0  0.8097099405405215  0.9342251652599104  0.0720407700582228  1.0000
  C   C22       1.0  0.3097062221065485  0.065775007177777  0.9279594567588632  1.0000
  C   C23       1.0  0.7645137172461529  0.6404136323591629  0.02460055226276841  1.0000
  C   C24       1.0  0.2645085790206564  0.3595865400785244  0.9753991525846218  1.0000
  C   C25       1.0  0.7474932565653205  0.6568092892881767  0.950185517346334  1.0000
  C   C26       1.0  0.24748811833982387  0.34318853705850944  0.04981498614511542  1.0000
  C   C27       1.0  0.7496470802934496  0.5179277405685738  0.8917331884148326  1.0000
  C   C28       1.0  0.24964620144250194  0.4820724318691134  0.1082665164325505  1.0000
  C   C29       1.0  0.7668010013766844  0.3446325560668555  0.9776449749421445  1.0000
  C   C30       1.0  0.2668029621087626  0.6553640972343402  0.02235488393192503  1.0000
  C   C31       1.0  0.7628852163785425  0.4860877666096215  0.037397283037627516  1.0000
  C   C32       1.0  0.2628914364851695  0.5139124058280657  0.9626013778703496  1.0000
  C   C33       1.0  0.725916684913116  0.4202869524308782  0.6856364413057108  1.0000
  C   C34       1.0  0.2259186456452014  0.5797132200068091  0.3143637855113823  1.0000
  C   C35       1.0  0.9229794878091295  0.4155701364824225  0.6492375009795169  1.0000
  C   C36       1.0  0.42298144854121483  0.5844323820462591  0.3507624491632201  1.0000
  C   C37       1.0  0.9000612131753343  0.4217356636212202  0.5703433495855067  1.0000
  C   C38       1.0  0.4000603343243866  0.5782645088164744  0.42965583329217344  1.0000
  C   C39       1.0  0.7587252272398358  0.3009917443955246  0.5312577250123098  1.0000
  C   C40       1.0  0.25872576818039755  0.6990072549966655  0.46874237915710654  1.0000
  C   C41       1.0  0.5723165398717568  0.3067889352478659  0.572955914833962  1.0000
  C   C42       1.0  0.07231566102080927  0.6932124102353185  0.4270439126610982  1.0000
  C   C43       1.0  0.4373199230503672  0.1741503346699389  0.5396904588621041  1.0000
  C   C44       1.0  0.9373236414843473  0.8258510108132455  0.4603104125723619  1.0000
  O   O1        1.0  0.713868334117528  0.6782455227231665  0.8071521726800199  1.0000
  O   O2        1.0  0.21386745526658044  0.3217558227600179  0.192848176784743  1.0000
  O   O3        1.0  0.744491817302787  0.11967175564029021  0.7234464917881098  1.0000
  O   O4        1.0  0.24449093845183964  0.8803295898428942  0.27655281373724705  1.0000
  O   O5        1.0  0.7718086060497951  0.08573085719397971  0.8577703598642614  1.0000
  O   O6        1.0  0.2718162459479387  0.9142704882892119  0.1422294676307985  1.0000
  O   O7        1.0  0.7744494182675439  0.5669739458958318  0.23175331917616404  1.0000
  O   O8        1.0  0.2744499592081127  0.43302505349635834  0.7682467849932523  1.0000
  O   O9        1.0  0.7028677894599438  0.0168648751283129  0.21663944219871928  1.0000
  O   O10       1.0  0.20286407102597073  0.9831364703548715  0.7833598633266307  1.0000
  O   O11       1.0  0.7818607299754133  0.8445153377358778  0.28184772895018284  1.0000
  O   O12       1.0  0.2818598511244658  0.15548483470180946  0.7181524978669104  1.0000
  O   O13       1.0  0.724975363138725  0.7902467338504167  0.9349563418602997  1.0000
  O   O14       1.0  0.2249759040792938  0.20975343858727066  0.06504440692649642  1.0000
  O   O15       1.0  0.7735975433585975  0.2089792285584267  0.9898953424151387  1.0000
  O   O16       1.0  0.2735980842991593  0.7910209438792606  0.010104884401947309  1.0000
  O   O17       1.0  0.61065517014908  0.2938338207652151  0.6452220889767163  1.0000
  O   O18       1.0  0.11065713088115807  0.7061663516724721  0.35477761587067397  1.0000
  O   O19       1.0  0.035775906592896  0.5460831786175293  0.6832667201385265  1.0000
  O   O20       1.0  0.5357767854438434  0.4539181668656553  0.31673362932623667  1.0000
  O   O21       1.0  0.0773388834005928  0.3947685206619909  0.5334115160840653  1.0000
  O   O22       1.0  0.5773397622515404  0.6052328248212007  0.46658831141099455  1.0000
  O   O23       1.0  0.7266180619214848  0.3302510182583306  0.4615339922673842  1.0000
  O   O24       1.0  0.22662002265357015  0.6697468080883625  0.5384665112240655  1.0000
  O   O25       1.0  0.5282320133335714  0.025713157321604306  0.5152971372060194  1.0000
  O   O26       1.0  0.028233974065649595  0.974287015116083  0.48470256764136377  1.0000
  O   O27       1.0  0.11608641363420698  0.9385185117834994  0.6168304650049237  1.0000
  O   O28       1.0  0.616088712276671  0.06148048760869071  0.3831696391644925  1.0000
  O   O29       1.0  0.5986792287207476  0.8142601482450547  0.5989227315085587  1.0000
  O   O30       1.0  0.09867834986980027  0.18574002419263286  0.40107592939941844  1.0000
