data_image0
_chemical_formula_structural       Zn8H68C72O50
_chemical_formula_sum              "Zn8 H68 C72 O50"
_cell_length_a       13.902496345228329
_cell_length_b       15.17121022874711
_cell_length_c       16.452186898504866
_cell_angle_alpha    89.8385114017288
_cell_angle_beta     89.77549036651246
_cell_angle_gamma    92.37823705343062

_space_group_name_H-M_alt    "P 1"
_space_group_IT_number       1

loop_
  _space_group_symop_operation_xyz
  'x, y, z'

loop_
  _atom_site_type_symbol
  _atom_site_label
  _atom_site_symmetry_multiplicity
  _atom_site_fract_x
  _atom_site_fract_y
  _atom_site_fract_z
  _atom_site_occupancy
  Zn  Zn1       1.0  0.47910159105050815  0.3972896819086246  0.9139895485331238  1.0000
  Zn  Zn2       1.0  0.5042307835845962  0.39133539507444237  0.10615271451760581  1.0000
  Zn  Zn3       1.0  0.0057668611336154935  0.4545344465014907  0.4120152846595958  1.0000
  Zn  Zn4       1.0  0.9836702773998668  0.44170849571371207  0.5980792217349844  1.0000
  Zn  Zn5       1.0  0.37471070284631486  0.5400246509116827  0.0262039654667916  1.0000
  Zn  Zn6       1.0  0.8741401548382657  0.5931748739121333  0.5022418472916925  1.0000
  Zn  Zn7       1.0  0.5976843481891194  0.5542285168078325  0.00013879524528450044  1.0000
  Zn  Zn8       1.0  0.10513352560210622  0.6111695582229546  0.5153375077398152  1.0000
  H   H1        1.0  0.3523137444543353  0.7949967992012362  0.0838270022527539  1.0000
  H   H2        1.0  0.786243684944793  0.7598065407344451  0.6970415681581557  1.0000
  H   H3        1.0  0.6985089044870706  0.841450581937643  0.6915404171854931  1.0000
  H   H4        1.0  0.2074478645281133  0.8552960361340568  0.33104960895506963  1.0000
  H   H5        1.0  0.11847702530415921  0.9364829406643765  0.3222496984471164  1.0000
  H   H6        1.0  0.08232721171144422  0.7359165099713821  0.3324953163978606  1.0000
  H   H7        1.0  0.9892727389657738  0.8126442746618  0.3333899901629067  1.0000
  H   H8        1.0  0.042842081685861885  0.8683112889478792  0.1947313973942499  1.0000
  H   H9        1.0  0.0105698614328276  0.7544976050445982  0.19301232546292374  1.0000
  H   H10       1.0  0.13423830528302014  0.7893112744982461  0.1937340820863511  1.0000
  H   H11       1.0  0.7311662187382099  0.9829170003367339  0.7705182517996789  1.0000
  H   H12       1.0  0.8253220972946879  0.8557147765421933  0.5343303270540716  1.0000
  H   H13       1.0  0.7352115556230956  0.09181849990005019  0.811173062027642  1.0000
  H   H14       1.0  0.5561739466783708  0.98952786133102  0.7472689764885205  1.0000
  H   H15       1.0  0.5537518578412418  0.09397502419949434  0.7949539778199863  1.0000
  H   H16       1.0  0.6603367124699628  0.1617311856617079  0.6877212456120887  1.0000
  H   H17       1.0  0.5581534762787116  0.10866166590680851  0.6421543665357774  1.0000
  H   H18       1.0  0.6710863065261351  0.05791883308687321  0.6398275503357098  1.0000
  H   H19       1.0  0.33796980897334805  0.020819041614970505  0.3721227318463889  1.0000
  H   H20       1.0  0.3262510929372199  0.12641895211994134  0.417389231878083  1.0000
  H   H21       1.0  0.21630217467910032  0.05557743422014742  0.2683760962884634  1.0000
  H   H22       1.0  0.19830261023528817  0.15944038266108154  0.3134864856163233  1.0000
  H   H23       1.0  0.40579437937562796  0.10322401817094123  0.0800082355578766  1.0000
  H   H24       1.0  0.37467059099488864  0.203142322572738  0.2878111548211351  1.0000
  H   H25       1.0  0.3094648434051309  0.1816076549935275  0.1976872304634796  1.0000
  H   H26       1.0  0.38753591304040214  0.10137870518531862  0.23593604990740863  1.0000
  H   H27       1.0  0.1954682869369151  0.9549807589089526  0.1551813418723142  1.0000
  H   H28       1.0  0.22109164019592956  0.8922301859715563  0.06708956570597019  1.0000
  H   H29       1.0  0.22271209221126045  0.09460541871974469  0.0763440304821046  1.0000
  H   H30       1.0  0.24918400815273867  0.03377072861211872  0.9880031249991177  1.0000
  H   H31       1.0  0.08036673420175332  0.9647344603569791  0.9894018511249385  1.0000
  H   H32       1.0  0.0770850848963462  0.08163225538140753  0.9874216528898215  1.0000
  H   H33       1.0  0.0540993733340684  0.023443729165229903  0.07948589097303231  1.0000
  H   H34       1.0  0.8847363933594042  0.16274581320650577  0.5218378259026153  1.0000
  H   H35       1.0  0.7269767220572019  0.9743730912702162  0.41614929574695486  1.0000
  H   H36       1.0  0.7867678836270571  0.08033143406039041  0.40647994160446643  1.0000
  H   H37       1.0  0.6006317570152506  0.040214036332081114  0.5032512305604229  1.0000
  H   H38       1.0  0.6597453846590612  0.1451422270341852  0.49427059318601624  1.0000
  H   H39       1.0  0.6336449069166649  0.14115510772654014  0.3412198135807998  1.0000
  H   H40       1.0  0.5231708030264173  0.1305591423583792  0.3950037442153872  1.0000
  H   H41       1.0  0.5736762162476837  0.03612837842072031  0.3513029370982395  1.0000
  H   H42       1.0  0.7949433958656585  0.21438249499557574  0.8958557614451267  1.0000
  H   H43       1.0  0.7778741408804137  0.12554326002458543  0.9672533907050819  1.0000
  H   H44       1.0  0.7133233140010944  0.3151791902434555  0.9897507769708369  1.0000
  H   H45       1.0  0.5858551095523128  0.8604427229699995  0.8114849773559456  1.0000
  H   H46       1.0  0.6977375124730969  0.22977221651063226  0.06300537793541142  1.0000
  H   H47       1.0  0.8790517483156178  0.22054843085630446  0.0730448436395648  1.0000
  H   H48       1.0  0.8420744934002828  0.32866151430624774  0.0954703324361077  1.0000
  H   H49       1.0  0.8930363357731254  0.30664299192812894  0.9994323713307907  1.0000
  H   H50       1.0  0.2667350380650221  0.14842569909924214  0.5585041117932336  1.0000
  H   H51       1.0  0.1990933026961272  0.2405684493021312  0.5882610784990732  1.0000
  H   H52       1.0  0.3882545470138652  0.25324028713405516  0.4905123558521892  1.0000
  H   H53       1.0  0.32361290804152526  0.3437215280043163  0.5255481732069001  1.0000
  H   H54       1.0  0.349223406638501  0.2972694584712984  0.6708444015051711  1.0000
  H   H55       1.0  0.46111409022685007  0.3113063756441504  0.6196239931139331  1.0000
  H   H56       1.0  0.5628419342763493  0.7471865100538652  0.8391679040460787  1.0000
  H   H57       1.0  0.4106410050327298  0.20351409646494295  0.6371631431740712  1.0000
  H   H58       1.0  0.4202304846274814  0.685198503049243  0.2314159010646719  1.0000
  H   H59       1.0  0.4665147375990913  0.5888632681576311  0.73127532730323  1.0000
  H   H60       1.0  0.9521189912814948  0.5212057906857197  0.8399437871907764  1.0000
  H   H61       1.0  0.9763676155396797  0.5925170277986995  0.2084860192026667  1.0000
  H   H62       1.0  0.4980241213369397  0.48521649910035347  0.6259797992441634  1.0000
  H   H63       1.0  0.7087903833645939  0.3319531226567919  0.3191495502766415  1.0000
  H   H64       1.0  0.21610675330156687  0.3136704155672518  0.3937527667755205  1.0000
  H   H65       1.0  0.1418037878133447  0.34304190405593005  0.8215514196833809  1.0000
  H   H66       1.0  0.7649614824758545  0.833731843561573  0.8333217867728208  1.0000
  H   H67       1.0  0.734625828399814  0.7194738957374441  0.8384305051226592  1.0000
  H   H68       1.0  0.6621515472540836  0.727796678422486  0.696216868002999  1.0000
  C   C1        1.0  0.3393200405299269  0.4606434006944157  0.1887229067082714  1.0000
  C   C2        1.0  0.0525540628350427  0.9128416299808749  0.4660904704256695  1.0000
  C   C3        1.0  0.40454319953259704  0.8403513359938374  0.0547092663300432  1.0000
  C   C4        1.0  0.8866624879517673  0.8985789146968983  0.5166276837551891  1.0000
  C   C5        1.0  0.40145104607205445  0.9293135910389978  0.0673723002653759  1.0000
  C   C6        1.0  0.8772647646457585  0.987864043932625  0.5102806490677028  1.0000
  C   C7        1.0  0.7329552681391363  0.47603554991955843  0.7833175529095158  1.0000
  C   C8        1.0  0.762873434948098  0.5028221264270699  0.20950660233705073  1.0000
  C   C9        1.0  0.2590442656879545  0.5456141620101674  0.29778399911891285  1.0000
  C   C10       1.0  0.2447065781696978  0.5096118848220997  0.7265030159272571  1.0000
  C   C11       1.0  0.27872391197683305  0.467333119119431  0.264184715111746  1.0000
  C   C12       1.0  0.2978990123925556  0.4755764648440462  0.8684263828890054  1.0000
  C   C13       1.0  0.22298905024663176  0.4849573766040294  0.803301694825052  1.0000
  C   C14       1.0  0.7122694302518584  0.49595678100927654  0.7057310155259557  1.0000
  C   C15       1.0  0.7447288945683469  0.48172859116470346  0.28778090692523517  1.0000
  C   C16       1.0  0.657570643683627  0.4737436047461188  0.8483820208936664  1.0000
  C   C17       1.0  0.6845714158351371  0.4906819861477701  0.14781631146079385  1.0000
  C   C18       1.0  0.1803209606738321  0.5509413036177904  0.3603102305953527  1.0000
  C   C19       1.0  0.1678858389460274  0.5170914395080786  0.6634104655566588  1.0000
  C   C20       1.0  0.48044110478738844  0.7072746638772217  0.0045458670739293  1.0000
  C   C21       1.0  0.9799718606915706  0.7630889059770213  0.5053181340096132  1.0000
  C   C22       1.0  0.5036002066317878  0.23421125603479007  0.0042441450709987  1.0000
  C   C23       1.0  0.7897239404901698  0.5025600688069504  0.6428841908888927  1.0000
  C   C24       1.0  0.022783002642846405  0.2892048657908789  0.4968847317055848  1.0000
  C   C25       1.0  0.47863601051175664  0.8049758941222295  0.006480437521886999  1.0000
  C   C26       1.0  0.9752997288064051  0.8605588908895998  0.49705782995810216  1.0000
  C   C27       1.0  0.5220537552293649  0.13864744930992154  0.9985694511323261  1.0000
  C   C28       1.0  0.0322407711522246  0.19205695646769533  0.4884303332521399  1.0000
  C   C29       1.0  0.6053867752527539  0.018584465413397304  0.9340769765338666  1.0000
  C   C30       1.0  0.1301464444503111  0.06723781737623111  0.4523408925036633  1.0000
  C   C31       1.0  0.596108603611839  0.10908575317247943  0.9474755424615253  1.0000
  C   C32       1.0  0.12129266954444523  0.15772964056337463  0.4652001583524026  1.0000
  C   C33       1.0  0.4616589061180036  0.07988279234144359  0.0400146448740202  1.0000
  C   C34       1.0  0.8178291279269062  0.4950889635001304  0.35391917615805824  1.0000
  C   C35       1.0  0.9525631070889561  0.13665120380993306  0.5017025890036991  1.0000
  C   C36       1.0  0.6144722292701061  0.8040137036607434  0.844654532252612  1.0000
  C   C37       1.0  0.7130121281904422  0.7823085930347916  0.8119266898317081  1.0000
  C   C38       1.0  0.7148627867475311  0.7775473762415858  0.719058983364981  1.0000
  C   C39       1.0  0.13298681206140373  0.8703580683900826  0.34627988131460086  1.0000
  C   C40       1.0  0.062374276218975004  0.8012736380399162  0.310837666233823  1.0000
  C   C41       1.0  0.06284019138918501  0.8035068241673572  0.2179490581404977  1.0000
  C   C42       1.0  0.6897692058088654  0.03147910139728789  0.8037848980371435  1.0000
  C   C43       1.0  0.5984871659127082  0.051395522412555315  0.7579243581230628  1.0000
  C   C44       1.0  0.62347194601994  0.09722806044856473  0.677375938336418  1.0000
  C   C45       1.0  0.4696138367771781  0.9886543249171782  0.0286403292603694  1.0000
  C   C46       1.0  0.2881062133624965  0.07395096444196268  0.3828904464818734  1.0000
  C   C47       1.0  0.2521044234845462  0.10965190580639471  0.30277659292927694  1.0000
  C   C48       1.0  0.33586286089476414  0.15091317905564244  0.2533241876714669  1.0000
  C   C49       1.0  0.23570176951433558  0.956051527664009  0.09751255528694  1.0000
  C   C50       1.0  0.20577551165382602  0.032369228163148  0.044183453407193  1.0000
  C   C51       1.0  0.0985240312213449  0.025059227783948798  0.0239487406238723  1.0000
  C   C52       1.0  0.739537953241289  0.0387007040730509  0.44648744695960124  1.0000
  C   C53       1.0  0.6451875292558072  0.0824017896006595  0.46227715709073897  1.0000
  C   C54       1.0  0.5911068346280289  0.09836489827414144  0.3831811809138728  1.0000
  C   C55       1.0  0.749169946557821  0.1881430449327013  0.945685136223176  1.0000
  C   C56       1.0  0.959216141134604  0.04474209688590491  0.4924489522775986  1.0000
  C   C57       1.0  0.7453401025952787  0.2553790836599674  0.0139667532009611  1.0000
  C   C58       1.0  0.8455275724256524  0.2788434651668865  0.0473931246150485  1.0000
  C   C59       1.0  0.25025285488593607  0.21684666219132254  0.5425060328526713  1.0000
  C   C60       1.0  0.341161131436273  0.27536861248741934  0.5397346990375523  1.0000
  C   C61       1.0  0.39339214386737364  0.27157501737825385  0.6213347555108442  1.0000
  C   C62       1.0  0.30384761887194867  0.6319071241087073  0.2706820706970063  1.0000
  C   C63       1.0  0.34684341669007074  0.5291847772735281  0.7001884432273258  1.0000
  C   C64       1.0  0.8318274490569949  0.458411203278601  0.8151024526402183  1.0000
  C   C65       1.0  0.8589596796505035  0.5341814522748861  0.1775255333185655  1.0000
  C   C66       1.0  0.6120949342930545  0.5207378248842076  0.6842444537316937  1.0000
  C   C67       1.0  0.5427171758949783  0.9551802550930759  0.9761438123870719  1.0000
  C   C68       1.0  0.6487363293634945  0.44382711811267944  0.31785598164250234  1.0000
  C   C69       1.0  0.2350653038444719  0.3804257731946592  0.2936468130815158  1.0000
  C   C70       1.0  0.1217955972146072  0.46665001018618574  0.8327867583623529  1.0000
  C   C71       1.0  0.048326320049547206  0.007524036610824701  0.4679787948917493  1.0000
  C   C72       1.0  0.5483351523676419  0.86102521251469  0.9682404338064857  1.0000
  O   O1        1.0  0.4876541054554977  0.4688466256544289  0.011966502481335798  1.0000
  O   O2        1.0  0.09550549203086693  0.46295524812640576  0.6703796815018138  1.0000
  O   O3        1.0  0.2880910922349003  0.522138513661858  0.9313095550534314  1.0000
  O   O4        1.0  0.31058027335964067  0.5046754816661974  0.128333665300211  1.0000
  O   O5        1.0  0.8064550941865322  0.5601248147943353  0.3999656040705943  1.0000
  O   O6        1.0  0.7785985560827556  0.5585888098973871  0.586258676474273  1.0000
  O   O7        1.0  0.6765990161082485  0.5542914047403542  0.09837980524264373  1.0000
  O   O8        1.0  0.6816305153842774  0.5149007326295134  0.9126498879815443  1.0000
  O   O9        1.0  0.182505930562769  0.5771568685991824  0.6106922585253046  1.0000
  O   O10       1.0  0.1973867363468642  0.5940987899724205  0.42479901985417  1.0000
  O   O11       1.0  0.4073730233287023  0.6652914873333629  0.0369271245162679  1.0000
  O   O12       1.0  0.9928053997143352  0.5274746581667813  0.5090324352116226  1.0000
  O   O13       1.0  0.8994765957291622  0.719406289164276  0.4977158887467184  1.0000
  O   O14       1.0  0.5017172482570801  0.26753676365442663  0.07527905456741021  1.0000
  O   O15       1.0  0.4877228387599858  0.27306531568543596  0.9371545759378748  1.0000
  O   O16       1.0  0.9878964358357366  0.31758071602667576  0.5632372919272727  1.0000
  O   O17       1.0  0.048512602958688  0.3360452673929473  0.4353644365719944  1.0000
  O   O18       1.0  0.552495939695099  0.6697692520849118  0.9735065728677198  1.0000
  O   O19       1.0  0.06079714915778572  0.7305031362586264  0.5216804192478008  1.0000
  O   O20       1.0  0.6253063405979874  0.8275662246903938  0.9293707036804051  1.0000
  O   O21       1.0  0.12991797113341622  0.87216891323326  0.4344720221387277  1.0000
  O   O22       1.0  0.6726991890754307  0.9884121799712632  0.8820588617917053  1.0000
  O   O23       1.0  0.4093413139757232  0.4098969765948368  0.1922914476459283  1.0000
  O   O24       1.0  0.2143887327017708  0.030293538564308206  0.4334303907509565  1.0000
  O   O25       1.0  0.3360202405519104  0.9645668953388481  0.12009052716295089  1.0000
  O   O26       1.0  0.78868918676028  0.024275249601991802  0.5228362444660561  1.0000
  O   O27       1.0  0.6554580353433579  0.17061691971571952  0.9086010552252192  1.0000
  O   O28       1.0  0.20229249641595  0.2150998841216136  0.4634358519778843  1.0000
  O   O29       1.0  0.26012760219717285  0.7000763304808475  0.2678374051967225  1.0000
  O   O30       1.0  0.39810303775528416  0.6266943034600415  0.2511196109165894  1.0000
  O   O31       1.0  0.38010404308461443  0.49244205303399724  0.6397247722688917  1.0000
  O   O32       1.0  0.3946651919169284  0.585000565265851  0.7480464073146819  1.0000
  O   O33       1.0  0.8523208730100862  0.38552195743817214  0.8396692809610187  1.0000
  O   O34       1.0  0.3597897525537661  0.4185103303203946  0.8534080741786454  1.0000
  O   O35       1.0  0.8868060571955568  0.5324010404794922  0.8168638208523689  1.0000
  O   O36       1.0  0.8877265104564033  0.5150118600219785  0.11005727732986513  1.0000
  O   O37       1.0  0.9118885824793993  0.5825121903789494  0.23211712523840336  1.0000
  O   O38       1.0  0.5753182877967332  0.5839836455245334  0.7185302728194642  1.0000
  O   O39       1.0  0.5686866153719167  0.4699592237817001  0.6295245720388536  1.0000
  O   O40       1.0  0.5796510816050783  0.4880320732717536  0.329811659738958  1.0000
  O   O41       1.0  0.6481499743606278  0.35643706326820995  0.3369149012081039  1.0000
  O   O42       1.0  0.19796925809611574  0.3260694315743394  0.2476433276181993  1.0000
  O   O43       1.0  0.24570760153059015  0.3709083244660081  0.37424498357565034  1.0000
  O   O44       1.0  0.0699058475329011  0.5263693990434747  0.8514437301610442  1.0000
  O   O45       1.0  0.8599208536731312  0.4525701441657973  0.6529501653126957  1.0000
  O   O46       1.0  0.0939178750893177  0.38161011321692234  0.8443081707581044  1.0000
  O   O47       1.0  0.8806264597921115  0.4363262575496807  0.3579471798711041  1.0000
  O   O48       1.0  0.5791802370082025  0.43086954679152  0.8336346294309182  1.0000
  O   O49       1.0  0.632504038947758  0.41988803728315827  0.1528787293374592  1.0000
  O   O50       1.0  0.10110840272035662  0.5115252631614525  0.3398701431759932  1.0000
