data_image0
_chemical_formula_structural       Zn2H40C52S12N20
_chemical_formula_sum              "Zn2 H40 C52 S12 N20"
_cell_length_a       8.757462056807695
_cell_length_b       8.759138765442353
_cell_length_c       19.2967
_cell_angle_alpha    85.38811872996581
_cell_angle_beta     85.38723382408048
_cell_angle_gamma    80.84090127076902

_space_group_name_H-M_alt    "P 1"
_space_group_IT_number       1

loop_
  _space_group_symop_operation_xyz
  'x, y, z'

loop_
  _atom_site_type_symbol
  _atom_site_label
  _atom_site_symmetry_multiplicity
  _atom_site_fract_x
  _atom_site_fract_y
  _atom_site_fract_z
  _atom_site_occupancy
  Zn  Zn1       1.0  0.7416577825495665  0.2583449871844223  0.7499999507335814  1.0000
  Zn  Zn2       1.0  0.25834288380767845  0.7416561516779439  0.25000008702483  1.0000
  H   H1        1.0  0.7048550384345943  0.0120215181697816  0.5403082035378333  1.0000
  H   H2        1.0  0.9879928696094638  0.2951548735019928  0.9596941225645068  1.0000
  H   H3        1.0  0.29514483872872427  0.9879773023976953  0.45969194763658544  1.0000
  H   H4        1.0  0.012006651153839693  0.7048462653603738  0.04030595700537989  1.0000
  H   H5        1.0  0.9582814058519132  0.3706895577190892  0.4860129977608807  1.0000
  H   H6        1.0  0.6293019605768535  0.0417096025747909  0.013987225393840702  1.0000
  H   H7        1.0  0.0417182931113942  0.6293104219958324  0.5139871176112719  1.0000
  H   H8        1.0  0.370697738386454  0.9582903771401234  0.986012889978312  1.0000
  H   H9        1.0  0.08974108799816348  0.20921800009816147  0.7087537194234841  1.0000
  H   H10       1.0  0.7907147422602138  0.9102866039297268  0.7912535287328878  1.0000
  H   H11       1.0  0.9102609021530128  0.7907819796167603  0.2912452758790706  1.0000
  H   H12       1.0  0.2092859240970242  0.0897145349326394  0.20874599080219983  1.0000
  H   H13       1.0  0.31622183364734724  0.996857530986901  0.706099447716859  1.0000
  H   H14       1.0  0.00309457977071051  0.6838204898245905  0.7938961950553818  1.0000
  H   H15       1.0  0.6837803347038331  0.0031412895805687  0.2939006198346092  1.0000
  H   H16       1.0  0.996905119192597  0.316179489890331  0.20610340209344707  1.0000
  H   H17       1.0  0.4874818994830291  0.8312443395388984  0.7629891229835478  1.0000
  H   H18       1.0  0.1687049157398804  0.5125715234906991  0.7370051824546664  1.0000
  H   H19       1.0  0.5125176212802813  0.168756799323468  0.2370109565863316  1.0000
  H   H20       1.0  0.8312949614234384  0.4874272970767706  0.26299496871975236  1.0000
  H   H21       1.0  0.7010967602550693  0.60580870751388  0.7573350567474149  1.0000
  H   H22       1.0  0.3941514299663069  0.2989696277491021  0.7426666698963018  1.0000
  H   H23       1.0  0.2989029387082383  0.3941912722010414  0.24266505862473756  1.0000
  H   H24       1.0  0.6058494145909421  0.7010303519658195  0.2573334036643757  1.0000
  H   H25       1.0  0.8320193004073815  0.7551984712978028  0.9276408877617613  1.0000
  H   H26       1.0  0.24480601287095993  0.16800451263056002  0.5723711386847299  1.0000
  H   H27       1.0  0.1679800421559179  0.2448038267120154  0.0723591560058594  1.0000
  H   H28       1.0  0.7551935078923435  0.8319966262318061  0.4276294591084735  1.0000
  H   H29       1.0  0.5871099867126474  0.6652752898247485  0.9053944502375585  1.0000
  H   H30       1.0  0.334718818346083  0.4128802064842674  0.5946093357100608  1.0000
  H   H31       1.0  0.4128897122506601  0.3347246898901659  0.09460566513458699  1.0000
  H   H32       1.0  0.6652818480111549  0.5871209323780988  0.40539018382502684  1.0000
  H   H33       1.0  0.6041340932920463  0.4188104048216132  0.1092133140428402  1.0000
  H   H34       1.0  0.5811921563633291  0.39587551344110494  0.3907842726082436  1.0000
  H   H35       1.0  0.39586560567126133  0.5811895748933082  0.8907868013293053  1.0000
  H   H36       1.0  0.4188077207999825  0.6041233071263719  0.6092153603428514  1.0000
  H   H37       1.0  0.847015412636587  0.521291789732267  0.12170283676933741  1.0000
  H   H38       1.0  0.4787212799241587  0.1530271684716809  0.37829834509371807  1.0000
  H   H39       1.0  0.15298278433277798  0.47871050827755113  0.8782977670330822  1.0000
  H   H40       1.0  0.5212785972391529  0.846971652095789  0.6217023243040174  1.0000
  C   C1        1.0  0.7219487472274935  0.16275473384443026  0.6190425043420262  1.0000
  C   C2        1.0  0.8372352275192156  0.2780365840090511  0.8809590192877365  1.0000
  C   C3        1.0  0.2780509517358212  0.8372452458704913  0.38095761103012643  1.0000
  C   C4        1.0  0.16276429324408778  0.7219645548533151  0.1190410602821501  1.0000
  C   C5        1.0  0.8780934052009287  0.357335019985598  0.5911636459599805  1.0000
  C   C6        1.0  0.6426478116093435  0.1219005820853027  0.9088367855174796  1.0000
  C   C7        1.0  0.12190629376237888  0.6426649597293164  0.4088359511888484  1.0000
  C   C8        1.0  0.35735188735396417  0.8780993976296116  0.09116332985467317  1.0000
  C   C9        1.0  0.8421574559975724  0.1829018756156131  0.5035009671961602  1.0000
  C   C10       1.0  0.8171017645946675  0.1578515401448684  0.9964986752514592  1.0000
  C   C11       1.0  0.1578422429657351  0.8170981040993086  0.49649914817599233  1.0000
  C   C12       1.0  0.18290022555651572  0.8421484395700531  0.0035008382744194976  1.0000
  C   C13       1.0  0.07693579025996658  0.0905097100810792  0.7271751549870089  1.0000
  C   C14       1.0  0.9094451798874276  0.9230743185617742  0.7728277807891573  1.0000
  C   C15       1.0  0.9230661998912096  0.9094902696338352  0.2728238403155459  1.0000
  C   C16       1.0  0.09055566466981452  0.0769256611531475  0.2271722927715132  1.0000
  C   C17       1.0  0.2024338842451314  0.9718686303308317  0.7264997397391466  1.0000
  C   C18       1.0  0.028093895389098116  0.7975861751289202  0.7734937443819587  1.0000
  C   C19       1.0  0.7975681059060519  0.0281313493840898  0.2734997737867316  1.0000
  C   C20       1.0  0.9719069491681435  0.2024138045860013  0.2265058109553948  1.0000
  C   C21       1.0  0.17888012027726324  0.8211133908546914  0.7499961428641128  1.0000
  C   C22       1.0  0.8211207242799787  0.1788865888602302  0.2500034124732409  1.0000
  C   C23       1.0  0.3084431195639468  0.6915577990313437  0.7499958725091886  1.0000
  C   C24       1.0  0.6915579031932992  0.30844102153612607  0.25000423685375484  1.0000
  C   C25       1.0  0.4611777227155898  0.7160853590036285  0.7561973004583391  1.0000
  C   C26       1.0  0.2838915628731016  0.5388575101396356  0.7437951044407782  1.0000
  C   C27       1.0  0.5388231218416593  0.2839146207112933  0.2438027731023382  1.0000
  C   C28       1.0  0.7161094598841514  0.4611413104278412  0.2562050049221654  1.0000
  C   C29       1.0  0.5805276385451705  0.5910910123830676  0.7545185306321613  1.0000
  C   C30       1.0  0.40889444173878087  0.4195151664692105  0.7454795051740888  1.0000
  C   C31       1.0  0.41947320601207133  0.408908967331854  0.2454815429285162  1.0000
  C   C32       1.0  0.591105435424538  0.5804836540982663  0.25452064600033  1.0000
  C   C33       1.0  0.7765256887110468  0.6799419824679092  0.9662995808957717  1.0000
  C   C34       1.0  0.3200637079119489  0.22348942346199865  0.5337085733013112  1.0000
  C   C35       1.0  0.22347401025226074  0.3200579972470053  0.03370053447638101  1.0000
  C   C36       1.0  0.6799359910513658  0.7765105562529231  0.46629206029415826  1.0000
  C   C37       1.0  0.6395177422471789  0.6281188184206172  0.9543680449251255  1.0000
  C   C38       1.0  0.3718766615175255  0.3604832644508492  0.5456358145122876  1.0000
  C   C39       1.0  0.3604808111222013  0.3718811612943043  0.0456321122585024  1.0000
  C   C40       1.0  0.6281232156457933  0.6395155561166206  0.4543643366621311  1.0000
  C   C41       1.0  0.571943062566092  0.5305939479920738  0.005306649533650907  1.0000
  C   C42       1.0  0.4694029825309799  0.4280661971835542  0.49469478285063667  1.0000
  C   C43       1.0  0.42805681459722666  0.469404872575396  0.994692983417437  1.0000
  C   C44       1.0  0.5305967164323279  0.5719337825313673  0.5053058507448327  1.0000
  C   C45       1.0  0.6481239542352809  0.49341661193389547  0.06706230826494419  1.0000
  C   C46       1.0  0.5065823166625735  0.3518997776079971  0.4329385229971336  1.0000
  C   C47       1.0  0.3518757447280265  0.506583367781019  0.9329372888838847  1.0000
  C   C48       1.0  0.4934185278946757  0.6481002021069173  0.5670620687868677  1.0000
  C   C49       1.0  0.7849976505518937  0.5497048119459009  0.07449514222132342  1.0000
  C   C50       1.0  0.45030503479279105  0.2150322836908387  0.4255066188513652  1.0000
  C   C51       1.0  0.2149994008235367  0.45029748606391  0.9255055033925642  1.0000
  C   C52       1.0  0.5496946641705237  0.7849676960240828  0.5744940147441113  1.0000
  S   S1        1.0  0.6063125025997067  0.0806581159315343  0.6809831517771626  1.0000
  S   S2        1.0  0.919366438307307  0.3936429954587481  0.8190145705716246  1.0000
  S   S3        1.0  0.3936871963636079  0.9193418637833874  0.31901696359499  1.0000
  S   S4        1.0  0.08063326065600758  0.6063569842561733  0.1809850265772042  1.0000
  S   S5        1.0  0.9586935941927945  0.5069995017143896  0.6124345511741467  1.0000
  S   S6        1.0  0.49297019681459636  0.0412946277888722  0.8875634607092876  1.0000
  S   S7        1.0  0.041305926570508716  0.4930016371479766  0.38756552839574  1.0000
  S   S8        1.0  0.5070283565547767  0.9587053519260493  0.11243617825100928  1.0000
  S   S9        1.0  0.8828424041551486  0.1218843540210557  0.42413298749758604  1.0000
  S   S10       1.0  0.8781221101997971  0.11718517027210851  0.07587001960335728  1.0000
  S   S11       1.0  0.11715729480815898  0.8781156256938658  0.5758671278745666  1.0000
  S   S12       1.0  0.12187758876351039  0.8828148094428132  0.9241300957687955  1.0000
  N   N1        1.0  0.7900913178752447  0.2795967964723189  0.6382493263653827  1.0000
  N   N2        1.0  0.7203767017229126  0.20990421538661516  0.8617503528880305  1.0000
  N   N3        1.0  0.20990838108806292  0.7204031832426026  0.3617502707834461  1.0000
  N   N4        1.0  0.279622997240395  0.7900957643283064  0.1382497624841221  1.0000
  N   N5        1.0  0.7488733678249203  0.1142154345136532  0.5531681772496739  1.0000
  N   N6        1.0  0.8857795875140297  0.2511292943286847  0.9468314926935832  1.0000
  N   N7        1.0  0.25112633113838717  0.8857845452012683  0.4468319381224788  1.0000
  N   N8        1.0  0.1142199332492737  0.7488718445336815  0.05316858687630341  1.0000
  N   N9        1.0  0.8978377991061421  0.3086890790897243  0.5243441844520902  1.0000
  N   N10       1.0  0.691308050924448  0.1021533461832362  0.9756547924463489  1.0000
  N   N11       1.0  0.10216172165716128  0.6913120597726419  0.47565589511778933  1.0000
  N   N12       1.0  0.308692793632801  0.8978466335316853  0.0243452811143285  1.0000
  N   N13       1.0  0.9330226896429249  0.0669581522589269  0.7500017874943409  1.0000
  N   N14       1.0  0.06697912230824701  0.9330429866034394  0.24999769022927149  1.0000
  N   N15       1.0  0.5551586818862689  0.4448552888016267  0.7500005783718464  1.0000
  N   N16       1.0  0.44484101707703866  0.555144690913288  0.24999953700029923  1.0000
  N   N17       1.0  0.8495973312905393  0.6409992648484035  0.0252103554952328  1.0000
  N   N18       1.0  0.35900650235587506  0.1504353147808501  0.4747935283887728  1.0000
  N   N19       1.0  0.1504008656788258  0.3590030331614075  0.9747897300838559  1.0000
  N   N20       1.0  0.6409943422013669  0.8495646649340713  0.5252065451718976  1.0000
