data_image0
_chemical_formula_structural       Ba2H6C14N2O10
_chemical_formula_sum              "Ba2 H6 C14 N2 O10"
_cell_length_a       4.400153457426785
_cell_length_b       9.73461569376032
_cell_length_c       10.442851879314436
_cell_angle_alpha    90.32140853618968
_cell_angle_beta     103.95784643723111
_cell_angle_gamma    99.80649878486726

_space_group_name_H-M_alt    "P 1"
_space_group_IT_number       1

loop_
  _space_group_symop_operation_xyz
  'x, y, z'

loop_
  _atom_site_type_symbol
  _atom_site_label
  _atom_site_symmetry_multiplicity
  _atom_site_fract_x
  _atom_site_fract_y
  _atom_site_fract_z
  _atom_site_occupancy
  Ba  Ba1       1.0  0.048393556245713405  0.2557965200156859  0.075728781355032  1.0000
  Ba  Ba2       1.0  0.9515592904974357  0.7441794992042291  0.9243012110508034  1.0000
  H   H1        1.0  0.6921291548047962  0.9893880807681232  0.4594444928811896  1.0000
  H   H2        1.0  0.30777378603476546  0.010593793215953402  0.540554198231078  1.0000
  H   H3        1.0  0.8718838038235363  0.7888411843738227  0.5916147577787427  1.0000
  H   H4        1.0  0.12809028733841643  0.21117720268053122  0.40838670264282234  1.0000
  H   H5        1.0  0.8719122887108812  0.5672913271735994  0.4664550183167293  1.0000
  H   H6        1.0  0.12809949618899447  0.43270198852646047  0.5335527285600818  1.0000
  C   C1        1.0  0.4634812799243878  0.9925290899496207  0.19560676833547325  1.0000
  C   C2        1.0  0.5364707496649573  0.0074632831214387005  0.8043895405039976  1.0000
  C   C3        1.0  0.6037322031717168  0.8789982009509885  0.2748775915323094  1.0000
  C   C4        1.0  0.39625594625479726  0.12101375220073154  0.7251092280617826  1.0000
  C   C5        1.0  0.6969760629098122  0.8905413005774822  0.4118278221301352  1.0000
  C   C6        1.0  0.302935525232961  0.10945239120957241  0.5881567661165974  1.0000
  C   C7        1.0  0.795225490473783  0.779567982095678  0.484296614293207  1.0000
  C   C8        1.0  0.20468681986708506  0.22042154929751945  0.515687788793393  1.0000
  C   C9        1.0  0.8021127650889569  0.6580328411301581  0.41519749804323414  1.0000
  C   C10       1.0  0.19785100094362215  0.34195328613611764  0.5848003240649646  1.0000
  C   C11       1.0  0.773185927079517  0.526964571096791  0.2006403783712898  1.0000
  C   C12       1.0  0.22698441770180725  0.4730572607364395  0.7993660290886667  1.0000
  C   C13       1.0  0.7253639819586584  0.6500858538818906  0.2779500099260375  1.0000
  C   C14       1.0  0.2747361998432325  0.3499216592800849  0.7220395301333652  1.0000
  N   N1        1.0  0.6235524557317832  0.7599943776433521  0.20963071162194072  1.0000
  N   N2        1.0  0.376487463169724  0.2400178897542774  0.7903784095920939  1.0000
  O   O1        1.0  0.18047832854503562  0.9603079664149381  0.1270765550138151  1.0000
  O   O2        1.0  0.8194871396149996  0.0396634472547959  0.8729234265547917  1.0000
  O   O3        1.0  0.6327597490794404  0.11325276871986746  0.2114336193606832  1.0000
  O   O4        1.0  0.3670951527932332  0.8867609590140761  0.7885381072545526  1.0000
  O   O5        1.0  0.6277969557375515  0.4079247689559225  0.2193487141922361  1.0000
  O   O6        1.0  0.3723722228563489  0.5921105388822526  0.7806795101074968  1.0000
  O   O7        1.0  0.9702482812251606  0.5518351828721819  0.1296917799180761  1.0000
  O   O8        1.0  0.02992033186422562  0.44816225644842694  0.8703015534959775  1.0000
  O   O9        1.0  0.5447002347825035  0.7513602109589075  0.07983342242743421  1.0000
  O   O10       1.0  0.4552541010183406  0.24863360871199094  0.9201756335836322  1.0000
