data_image0
_chemical_formula_structural       Ca6H28C24O32
_chemical_formula_sum              "Ca6 H28 C24 O32"
_cell_length_a       6.056784047336175
_cell_length_b       10.362608353330467
_cell_length_c       16.327888487842756
_cell_angle_alpha    72.50341195148903
_cell_angle_beta     77.96025420846135
_cell_angle_gamma    88.90979990492855

_space_group_name_H-M_alt    "P 1"
_space_group_IT_number       1

loop_
  _space_group_symop_operation_xyz
  'x, y, z'

loop_
  _atom_site_type_symbol
  _atom_site_label
  _atom_site_symmetry_multiplicity
  _atom_site_fract_x
  _atom_site_fract_y
  _atom_site_fract_z
  _atom_site_occupancy
  Ca  Ca1       1.0  0.26097740651989904  0.11976984281407253  0.9972711609101594  1.0000
  Ca  Ca2       1.0  0.7390253228369803  0.8802283873973525  0.00272939676180771  1.0000
  Ca  Ca3       1.0  0.9206612262070166  0.811774097471279  0.6089451305675269  1.0000
  Ca  Ca4       1.0  0.0793398361496429  0.18822514210357605  0.39105657878671013  1.0000
  Ca  Ca5       1.0  0.5717754007714717  0.4200069020473406  0.3908164545012199  1.0000
  Ca  Ca6       1.0  0.42822089928615975  0.5799943894992836  0.6091827520723856  1.0000
  H   H1        1.0  0.6072895886129358  0.2822251367311495  0.01068891279206241  1.0000
  H   H2        1.0  0.39270841085275515  0.7177751491319669  0.9893085265553623  1.0000
  H   H3        1.0  0.5160175639475285  0.3945446205665491  0.9351439016511378  1.0000
  H   H4        1.0  0.48397527561068193  0.6054556656734037  0.0648557389460933  1.0000
  H   H5        1.0  0.9396046204386224  0.22277990251223664  0.12390416703670581  1.0000
  H   H6        1.0  0.0603932082735028  0.7772183575154089  0.8760936675338513  1.0000
  H   H7        1.0  0.14931660270541158  0.1952337518918696  0.1692247399606757  1.0000
  H   H8        1.0  0.8506814821370623  0.804767546888982  0.8307725017751865  1.0000
  H   H9        1.0  0.744116498880551  0.6506405796112134  0.2358730295210947  1.0000
  H   H10       1.0  0.2558865838301969  0.34936070039319844  0.7641250886844662  1.0000
  H   H11       1.0  0.8112739974139486  0.021304093886300293  0.7042152686012174  1.0000
  H   H12       1.0  0.18872884972754625  0.9786951529227821  0.2957844759152835  1.0000
  H   H13       1.0  0.2784024465946828  0.7347923486571092  0.19255546682948937  1.0000
  H   H14       1.0  0.7216023442384839  0.265209933099662  0.8074435666462848  1.0000
  H   H15       1.0  0.12884762691668067  0.8642582020934029  0.22464287361803775  1.0000
  H   H16       1.0  0.8711499543794615  0.13573902661688922  0.7753582362835942  1.0000
  H   H17       1.0  0.9693728172387066  0.8157998700442801  0.3618208294298598  1.0000
  H   H18       1.0  0.03063358762573638  0.18420039311124728  0.6381766344313038  1.0000
  H   H19       1.0  0.16744909617018783  0.6912577963130603  0.3913572525616758  1.0000
  H   H20       1.0  0.8325470331338778  0.30874146939808617  0.6086423492350548  1.0000
  H   H21       1.0  0.5064282697278414  0.1932334481093463  0.6346508567537087  1.0000
  H   H22       1.0  0.49357415924411197  0.8067627415469119  0.3653525583169996  1.0000
  H   H23       1.0  0.3326376952215925  0.09694455405943359  0.5992473107883356  1.0000
  H   H24       1.0  0.6673668924501683  0.9030556981819374  0.4007527334544677  1.0000
  H   H25       1.0  0.18434691028737396  0.0130602157151358  0.7763557117398819  1.0000
  H   H26       1.0  0.8156523585700839  0.9869370091896171  0.22364527995571146  1.0000
  H   H27       1.0  0.4154526211282174  0.11854200487653087  0.7734866123603298  1.0000
  H   H28       1.0  0.5845450131368679  0.8814562330715744  0.22651491547363642  1.0000
  C   C1        1.0  0.9987150971364543  0.7977280571104047  0.1342543277169597  1.0000
  C   C2        1.0  0.0012859857813011918  0.20227218802234148  0.8657484151135224  1.0000
  C   C3        1.0  0.10696944579435548  0.7665246088113449  0.2131798247694833  1.0000
  C   C4        1.0  0.8930286477624776  0.23347869740537414  0.7868200994627657  1.0000
  C   C5        1.0  0.982732829843016  0.6587667491264995  0.29835779761438624  1.0000
  C   C6        1.0  0.01726366152928448  0.34123757381349407  0.7016420472123246  1.0000
  C   C7        1.0  0.9971372062927559  0.7065596530134357  0.37767996820099375  1.0000
  C   C8        1.0  0.002864177009932691  0.2934426326744841  0.6223199172307476  1.0000
  C   C9        1.0  0.8312558531239843  0.6398079491380743  0.46369604160887695  1.0000
  C   C10       1.0  0.1687439604020113  0.36019535695303523  0.5363031488734293  1.0000
  C   C11       1.0  0.10262213499914447  0.5220847959183884  0.30871643443582303  1.0000
  C   C12       1.0  0.8973789392042589  0.47791344177849027  0.6912836258982722  1.0000
  C   C13       1.0  0.6717255010348141  0.10941377218938439  0.5350221452860711  1.0000
  C   C14       1.0  0.3282771310985453  0.8905844469822742  0.464980259017601  1.0000
  C   C15       1.0  0.496334287176154  0.09865105587477528  0.6180154684592907  1.0000
  C   C16       1.0  0.5036684508950842  0.9013491817725167  0.3819877717090636  1.0000
  C   C17       1.0  0.49568448433252854  0.9759129759943764  0.6996415403643754  1.0000
  C   C18       1.0  0.5043148374938724  0.0240852581481903  0.30035986926355923  1.0000
  C   C19       1.0  0.363655252931018  0.014941758119967103  0.779186734577344  1.0000
  C   C20       1.0  0.6363407585884246  0.9850564909935144  0.2208136803748531  1.0000
  C   C21       1.0  0.39021172674093657  0.9220799841772375  0.8675900138668808  1.0000
  C   C22       1.0  0.6097875421165213  0.07791724072751549  0.13241097782871952  1.0000
  C   C23       1.0  0.38173225941945793  0.85143668902807  0.6882448811311761  1.0000
  C   C24       1.0  0.618267297976189  0.1485635783098189  0.3117549021858252  1.0000
  O   O1        1.0  0.849275300717494  0.7161685373068494  0.1297407601422194  1.0000
  O   O2        1.0  0.1507310069234222  0.2838317148089047  0.8702585503506485  1.0000
  O   O3        1.0  0.5477490657249788  0.2993521357664691  0.9555445018577798  1.0000
  O   O4        1.0  0.4522524148012295  0.7006501609612172  0.044453536942256774  1.0000
  O   O5        1.0  0.0545983909194732  0.9096415250232611  0.07349834234904057  1.0000
  O   O6        1.0  0.945396047690899  0.0903607538072535  0.9265057091702503  1.0000
  O   O7        1.0  0.1059397881262782  0.21279488889811657  0.11268239741756504  1.0000
  O   O8        1.0  0.8940597811161054  0.7872043765618102  0.8873157368792947  1.0000
  O   O9        1.0  0.7906581744071133  0.7071308960885646  0.5185806221057377  1.0000
  O   O10       1.0  0.2093452703718555  0.2928754411447018  0.48141773912981034  1.0000
  O   O11       1.0  0.7350286869390246  0.524998872227023  0.4792238538665785  1.0000
  O   O12       1.0  0.26496440874953464  0.4750044527661503  0.5207751938959575  1.0000
  O   O13       1.0  0.9798106083983811  0.4160184302828824  0.32290236972670533  1.0000
  O   O14       1.0  0.020175180529633987  0.5839798306240311  0.6771006010934004  1.0000
  O   O15       1.0  0.3126023947844914  0.5274606757901665  0.30452647258876203  1.0000
  O   O16       1.0  0.6873940878734427  0.47254163971395974  0.6954706897415691  1.0000
  O   O17       1.0  0.7479927894809748  0.6419552926182349  0.29846969068657364  1.0000
  O   O18       1.0  0.2520016317006721  0.35804297134055224  0.7015289958399508  1.0000
  O   O19       1.0  0.7701211635152632  0.006628246843902702  0.5213043362165877  1.0000
  O   O20       1.0  0.22988670205560874  0.9933719867466309  0.47869731824585693  1.0000
  O   O21       1.0  0.7154345713681494  0.22765790911378048  0.4802615752960975  1.0000
  O   O22       1.0  0.2845697277654224  0.7723393006944476  0.5197396773252976  1.0000
  O   O23       1.0  0.4684527274985371  0.9775892346639167  0.9170455575133618  1.0000
  O   O24       1.0  0.5315467445203268  0.022410019756236497  0.08295442341520241  1.0000
  O   O25       1.0  0.3354678920190963  0.7971089156750608  0.8890869333906509  1.0000
  O   O26       1.0  0.6645280341235704  0.20288832052068537  0.11091367917310892  1.0000
  O   O27       1.0  0.5067552361098394  0.7580908399907572  0.6730494658864431  1.0000
  O   O28       1.0  0.49324271910126777  0.24191044407041318  0.3269502380250274  1.0000
  O   O29       1.0  0.17159774496759184  0.8579838613292169  0.6912789768603106  1.0000
  O   O30       1.0  0.8284014709209302  0.14201235433772302  0.30872159690295586  1.0000
  O   O31       1.0  0.7226582673659507  0.9395193409111613  0.7112770791985527  1.0000
  O   O32       1.0  0.27733588270623233  0.06047989548621051  0.28872818069933714  1.0000
