data_image0
_chemical_formula_structural       Zn2H44C46N4O12
_chemical_formula_sum              "Zn2 H44 C46 N4 O12"
_cell_length_a       9.872443918391784
_cell_length_b       10.532714337165789
_cell_length_c       12.121
_cell_angle_alpha    101.36362516025801
_cell_angle_beta     112.13160488636676
_cell_angle_gamma    107.09444463857973

_space_group_name_H-M_alt    "P 1"
_space_group_IT_number       1

loop_
  _space_group_symop_operation_xyz
  'x, y, z'

loop_
  _atom_site_type_symbol
  _atom_site_label
  _atom_site_symmetry_multiplicity
  _atom_site_fract_x
  _atom_site_fract_y
  _atom_site_fract_z
  _atom_site_occupancy
  Zn  Zn1       1.0  0.17028212669317364  0.2715747482225268  0.542629533759886  1.0000
  Zn  Zn2       1.0  0.829714481386226  0.7284237422814286  0.4573692494889985  1.0000
  H   H1        1.0  0.4162563749580102  0.1205573440052703  0.8029977498662008  1.0000
  H   H2        1.0  0.5837405944862937  0.8794443246081158  0.19700416345410335  1.0000
  H   H3        1.0  0.5676116520102141  0.24516254006319826  0.7846469671317919  1.0000
  H   H4        1.0  0.43239126982253856  0.7548401879200028  0.21535447900183877  1.0000
  H   H5        1.0  0.3548924384954333  0.8053731873347303  0.633184735767543  1.0000
  H   H6        1.0  0.6451074500465381  0.194625303169218  0.3668150540829345  1.0000
  H   H7        1.0  0.08127243022747882  0.3316918663287893  0.89311697297142  1.0000
  H   H8        1.0  0.9187267261918778  0.6683098022846039  0.1068831363732913  1.0000
  H   H9        1.0  0.7926306622870031  0.8673050059294027  0.1250209546038334  1.0000
  H   H10       1.0  0.207370804693312  0.1326945439443605  0.8749778509389473  1.0000
  H   H11       1.0  0.2932228411364619  0.5038934886818538  0.8055894591428087  1.0000
  H   H12       1.0  0.7067775323563268  0.4961060611919095  0.19440983588055627  1.0000
  H   H13       1.0  0.5949414984344088  0.3061398664570234  0.9889209446349837  1.0000
  H   H14       1.0  0.4050576579849476  0.6938618021563698  0.011079164709734454  1.0000
  H   H15       1.0  0.9829993369145598  0.9901113920461099  0.35401192237843304  1.0000
  H   H16       1.0  0.0169993345539936  0.0098892171974683  0.6459862067500808  1.0000
  H   H17       1.0  0.025607139647384307  0.3860513095054117  0.32208298692845727  1.0000
  H   H18       1.0  0.9743974842096037  0.6139503591079816  0.6779179750711394  1.0000
  H   H19       1.0  0.5182162626328619  0.4072238745732832  0.6302011145936959  1.0000
  H   H20       1.0  0.48178350232321066  0.592776734670295  0.3697981750831262  1.0000
  H   H21       1.0  0.7232478064363619  0.166772352065216  0.5922868534167733  1.0000
  H   H22       1.0  0.2767509886180833  0.8332261384387394  0.4077142509287199  1.0000
  H   H23       1.0  0.8656688305519112  0.1720914478925906  0.7370995766961743  1.0000
  H   H24       1.0  0.134329355965825  0.8279081019811798  0.2628998722738914  1.0000
  H   H25       1.0  0.7277388795788085  0.651088686616461  0.7138693651371782  1.0000
  H   H26       1.0  0.27225772850059127  0.3489098038874943  0.28612859309726707  1.0000
  H   H27       1.0  0.6179750363056016  0.966370914553309  0.6993519873257767  1.0000
  H   H28       1.0  0.3820232737980406  0.0336265165808314  0.30064878683239027  1.0000
  H   H29       1.0  0.7573042575861777  0.9004336186984716  0.6843075493072989  1.0000
  H   H30       1.0  0.24269611590661103  0.09956593117529168  0.315691745716066  1.0000
  H   H31       1.0  0.7519537969772543  0.5287452451077144  0.8791867118265914  1.0000
  H   H32       1.0  0.2480448744912992  0.4712553641358639  0.12081224231636169  1.0000
  H   H33       1.0  0.5961815181347916  0.8905931325123717  0.9285130132537988  1.0000
  H   H34       1.0  0.4038160598462355  0.1094074767312136  0.071486430369724  1.0000
  H   H35       1.0  0.6331893879876845  0.0584899260746283  0.9100565075749146  1.0000
  H   H36       1.0  0.36681098550510444  0.941509623799135  0.08994278744844326  1.0000
  H   H37       1.0  0.8441913068734053  0.2783716649379997  0.09175541410355241  1.0000
  H   H38       1.0  0.1558117385452462  0.7216289443055786  0.9082465322037336  1.0000
  H   H39       1.0  0.8398535779289915  0.8900708631949215  0.9088244671226634  1.0000
  H   H40       1.0  0.1601452171254607  0.10992762730903388  0.09117581220839102  1.0000
  H   H41       1.0  0.8839902848845824  0.061269712462007  0.8995674556034389  1.0000
  H   H42       1.0  0.11600790163315369  0.9387298374117563  0.10043199336662677  1.0000
  H   H43       1.0  0.15852926192124533  0.5546775587420854  0.5585617618406786  1.0000
  H   H44       1.0  0.8414743920341223  0.4453219911316779  0.44143853978427244  1.0000
  C   C1        1.0  0.4372096259759459  0.3933980391534533  0.8834318086216302  1.0000
  C   C2        1.0  0.5627917174184702  0.6066036294599398  0.11656897179081231  1.0000
  C   C3        1.0  0.43767144325575913  0.1917533516081775  0.750295251789808  1.0000
  C   C4        1.0  0.5623294151878399  0.8082472576354007  0.24970519843530795  1.0000
  C   C5        1.0  0.55863266522001  0.7501927325536073  0.6828740272965491  1.0000
  C   C6        1.0  0.4413681932235889  0.24980787668997098  0.3171255979141351  1.0000
  C   C7        1.0  0.3953706529569772  0.7198036501190542  0.636741947969732  1.0000
  C   C8        1.0  0.6046323924616744  0.280196959124531  0.3632599983375543  1.0000
  C   C9        1.0  0.902461316334943  0.4192106439990368  0.8697538048140815  1.0000
  C   C10       1.0  0.09753880998604811  0.5807931433539792  0.13024613989083642  1.0000
  C   C11       1.0  0.042635514695980724  0.4030912729356473  0.9389946987416592  1.0000
  C   C12       1.0  0.9573648587968079  0.596908276938116  0.061003771267266374  1.0000
  C   C13       1.0  0.9636490678469514  0.2972824754566972  0.642311049973806  1.0000
  C   C14       1.0  0.03635130564583731  0.7027170744170732  0.35768742003512  1.0000
  C   C15       1.0  0.8420305438803198  0.9827381781527649  0.16465570782194322  1.0000
  C   C16       1.0  0.157969829612469  0.0172613717210055  0.8353444122158606  1.0000
  C   C17       1.0  0.38508612164253725  0.5032758760813039  0.8906100990240732  1.0000
  C   C18       1.0  0.6149142518502515  0.4967236737924594  0.10939249605704059  1.0000
  C   C19       1.0  0.5518083319022793  0.3899466123050956  0.993234955783372  1.0000
  C   C20       1.0  0.44819107168888195  0.6100508188290447  0.006764503879786358  1.0000
  C   C21       1.0  0.9474493828484825  0.0506558863129527  0.293389440980235  1.0000
  C   C22       1.0  0.05255147559511638  0.9493447229306256  0.7066110092448882  1.0000
  C   C23       1.0  0.9734954531370975  0.2711202785730649  0.2757890545786808  1.0000
  C   C24       1.0  0.026506498794034855  0.7288803306705133  0.7242117311803044  1.0000
  C   C25       1.0  0.7999582679030014  0.06193923418335599  0.08735801367922136  1.0000
  C   C26       1.0  0.20004368402812392  0.9380613750602222  0.912641947065325  1.0000
  C   C27       1.0  0.48689114961202046  0.49846315902419747  0.6345862843753525  1.0000
  C   C28       1.0  0.5131059434181893  0.5015363908495729  0.3654120040464123  1.0000
  C   C29       1.0  0.8336385265601933  0.23781475104534877  0.6800437380574564  1.0000
  C   C30       1.0  0.1663607534450691  0.7621847988284216  0.3199552214320392  1.0000
  C   C31       1.0  0.602861362292856  0.6349597812247652  0.680978578294365  1.0000
  C   C32       1.0  0.3971341522990173  0.3650387092791831  0.3190206944350892  1.0000
  C   C33       1.0  0.6803503053290356  0.899211105935123  0.7304265347579602  1.0000
  C   C34       1.0  0.3196500681637531  0.1007884439386402  0.2695727602654046  1.0000
  C   C35       1.0  0.8616153718604096  0.5169428060292987  0.9320932641645713  1.0000
  C   C36       1.0  0.1383860951199054  0.4830567438444646  0.06791049146484342  1.0000
  C   C37       1.0  0.6914079378062823  0.990923928692112  0.9471346812550792  1.0000
  C   C38       1.0  0.30859352917403277  0.0090756211816512  0.052864949302140515  1.0000
  C   C39       1.0  0.8693164848920104  0.20956029878249888  0.14606222885678485  1.0000
  C   C40       1.0  0.13068559062502058  0.7904381917214565  0.8539382320614238  1.0000
  C   C41       1.0  0.7846330733131737  0.9611005497373027  0.8752321331147997  1.0000
  C   C42       1.0  0.2153677851304323  0.03890005950627539  0.12476749209588432  1.0000
  C   C43       1.0  0.2856142810921867  0.5808026776822928  0.5929157637048449  1.0000
  C   C44       1.0  0.7143871858881283  0.4191968721914776  0.40708551688125283  1.0000
  C   C45       1.0  0.3624169278376216  0.1016973832375641  0.6102871426756452  1.0000
  C   C46       1.0  0.6375839306059845  0.8983032260060141  0.389712482535039  1.0000
  N   N1        1.0  0.01239522885472159  0.19307120765463276  0.3486209666743889  1.0000
  N   N2        1.0  0.9876056295888773  0.8069294015889453  0.6513794835507342  1.0000
  N   N3        1.0  0.3299356219090583  0.47118014887919196  0.5919664373406519  1.0000
  N   N4        1.0  0.6700626881945838  0.5288172822549484  0.40803186177419815  1.0000
  O   O1        1.0  0.3708426729382097  0.29316788310586617  0.7651216509170737  1.0000
  O   O2        1.0  0.6291572156037688  0.7068306073980892  0.23487978896228173  1.0000
  O   O3        1.0  0.7977931814048276  0.342987926636944  0.7434376608370029  1.0000
  O   O4        1.0  0.20220658355124504  0.6570126826066343  0.25656245385425086  1.0000
  O   O5        1.0  0.0198488413315445  0.2073398596559954  0.6107877949038  1.0000
  O   O6        1.0  0.9801499537229077  0.79265863084796  0.38921165941280833  1.0000
  O   O7        1.0  0.2719189648847404  0.1374256895259265  0.5252701082637543  1.0000
  O   O8        1.0  0.728080923657231  0.8625728009780289  0.47472803155784504  1.0000
  O   O9        1.0  0.005009308940216812  0.4200168244261704  0.6392770801644332  1.0000
  O   O10       1.0  0.9949894861142354  0.579981666077785  0.3607207241233042  1.0000
  O   O11       1.0  0.3994351964636281  0.9997552855733643  0.5889003108906792  1.0000
  O   O12       1.0  0.6005635198913666  0.0002447144266355  0.4110999552376668  1.0000
