data_image0
_chemical_formula_structural       Zr6H44C88N2O32F10
_chemical_formula_sum              "Zr6 H44 C88 N2 O32 F10"
_cell_length_a       19.225435417401478
_cell_length_b       19.191681981450298
_cell_length_c       19.192661379026887
_cell_angle_alpha    59.44773268796991
_cell_angle_beta     59.93893119429512
_cell_angle_gamma    59.94495456177264

_space_group_name_H-M_alt    "P 1"
_space_group_IT_number       1

loop_
  _space_group_symop_operation_xyz
  'x, y, z'

loop_
  _atom_site_type_symbol
  _atom_site_label
  _atom_site_symmetry_multiplicity
  _atom_site_fract_x
  _atom_site_fract_y
  _atom_site_fract_z
  _atom_site_occupancy
  Zr  Zr1       1.0  0.9078156312178576  0.40687922730813114  0.5931492209598518  1.0000
  Zr  Zr2       1.0  0.09217339672864691  0.5926077098674299  0.40743656584351134  1.0000
  Zr  Zr3       1.0  0.09165218056768501  0.4064255260156386  0.5935523432763504  1.0000
  Zr  Zr4       1.0  0.9083487348892374  0.5929962916542237  0.4070026594244283  1.0000
  Zr  Zr5       1.0  0.9082975314752417  0.5914651324382585  0.591955166751028  1.0000
  Zr  Zr6       1.0  0.0917368531150374  0.4080023824139616  0.4085041492658732  1.0000
  H   H1        1.0  0.9274752146859129  0.4253865612350792  0.7187642585576769  1.0000
  H   H2        1.0  0.9283721237883  0.7182238521248863  0.42593271924164383  1.0000
  H   H3        1.0  0.21706564348034613  0.42707625680112227  0.4283341874329382  1.0000
  H   H4        1.0  0.9275290185149955  0.4278179941463447  0.4275956879118328  1.0000
  H   H5        1.0  0.31961810370652427  0.6140332773757251  0.17666751627348992  1.0000
  H   H6        1.0  0.6767979230451148  0.38933492901686845  0.8201325402845827  1.0000
  H   H7        1.0  0.6779320939542829  0.6135476025418353  0.8185745434227486  1.0000
  H   H8        1.0  0.5523722239688451  0.6115025646940213  0.9474994137865806  1.0000
  H   H9        1.0  0.3185484682880216  0.3897841195778539  0.17822360932164125  1.0000
  H   H10       1.0  0.44744620524088663  0.3884713432477226  0.05269096199775454  1.0000
  H   H11       1.0  0.11365199872309974  0.8197291040618139  0.38962526078356063  1.0000
  H   H12       1.0  0.8896307397669716  0.17628427852157802  0.6142605381101022  1.0000
  H   H13       1.0  0.11336802532576938  0.17788792078321336  0.38998611871716804  1.0000
  H   H14       1.0  0.11119255499157521  0.05249231621704804  0.38851675121581053  1.0000
  H   H15       1.0  0.8898265211568556  0.818264090725499  0.6138078059366877  1.0000
  H   H16       1.0  0.8883875032661873  0.9473464727490821  0.6115593338418112  1.0000
  H   H17       1.0  0.31858563518952815  0.17810036890841024  0.38974497256637625  1.0000
  H   H18       1.0  0.6787092706553252  0.8185579532600686  0.6135025759473507  1.0000
  H   H19       1.0  0.6765482002837188  0.8197525586489648  0.390060018479616  1.0000
  H   H20       1.0  0.5507509543043412  0.9487103983690091  0.3888853996098832  1.0000
  H   H21       1.0  0.3195641496584046  0.1756415929866293  0.6144900293307815  1.0000
  H   H22       1.0  0.4488255940182881  0.050478533840163084  0.6120101469608484  1.0000
  H   H23       1.0  0.8893694377413365  0.6132360063601678  0.8188316448263112  1.0000
  H   H24       1.0  0.11366743332612111  0.38953095342551347  0.1783944977184788  1.0000
  H   H25       1.0  0.8904167779601124  0.6142749380846908  0.1759458513797513  1.0000
  H   H26       1.0  0.8889211412059552  0.6119425577930784  0.050644164484154396  1.0000
  H   H27       1.0  0.11380454918380428  0.3898108178513552  0.8200574880909103  1.0000
  H   H28       1.0  0.11190346430750249  0.3887885100683731  0.9489008344738822  1.0000
  H   H29       1.0  0.11337101988530641  0.8206709000708726  0.17679547525878553  1.0000
  H   H30       1.0  0.1774735941414532  0.9331193836239039  0.06498823521793892  1.0000
  H   H31       1.0  0.8935227790342919  0.8155489823069714  0.17709162263513203  1.0000
  H   H32       1.0  0.8891060877908287  0.1762077211818538  0.8213007127769033  1.0000
  H   H33       1.0  0.8243719650188125  0.064378223423624  0.9337368416983197  1.0000
  H   H34       1.0  0.11378320454390685  0.17649322750134644  0.8162156268201742  1.0000
  H   H35       1.0  0.31972998915202305  0.3876979530307877  0.6154709951053834  1.0000
  H   H36       1.0  0.6770815117525543  0.6149621537633578  0.38826442146851314  1.0000
  H   H37       1.0  0.6774586904412414  0.38917580028055454  0.614148100060426  1.0000
  H   H38       1.0  0.5521185737488992  0.38755228484291143  0.612509132018559  1.0000
  H   H39       1.0  0.31915417218021946  0.613614028619736  0.38971209540582663  1.0000
  H   H40       1.0  0.44776407714165595  0.6120254112643123  0.3880444530075379  1.0000
  H   H41       1.0  0.1835208970091031  0.13112837804376185  0.8884602675980063  1.0000
  H   H42       1.0  0.2321513837345818  0.04686374302022499  0.9594656047450415  1.0000
  H   H43       1.0  0.7970446375653993  0.8876318659222092  0.13167729527307864  1.0000
  H   H44       1.0  0.7614416481857021  0.9588198201530671  0.047587776961371855  1.0000
  C   C1        1.0  0.7636549854766909  0.5020055748355503  0.7318437739310045  1.0000
  C   C2        1.0  0.0025013391122215393  0.7313520437799356  0.5024519867036688  1.0000
  C   C3        1.0  0.23147272494092866  0.5026244439662548  0.26364893127946243  1.0000
  C   C4        1.0  0.0022840448915176113  0.2631502132477976  0.5030185561355225  1.0000
  C   C5        1.0  0.0013699454775773236  0.2611850786899055  0.7347390079078693  1.0000
  C   C6        1.0  0.7637762032205512  0.5025746418682074  0.5018959028802216  1.0000
  C   C7        1.0  0.0026969055195280593  0.7341351175974395  0.2617577349237692  1.0000
  C   C8        1.0  0.23175393251019463  0.501326979817982  0.5031043634902801  1.0000
  C   C9        1.0  0.0022564552320715587  0.5013263262718795  0.7323198521955021  1.0000
  C   C10       1.0  0.23108210004590282  0.26268217611588796  0.5035930517654849  1.0000
  C   C11       1.0  0.0026316781705376354  0.5032191158658321  0.2631327113572938  1.0000
  C   C12       1.0  0.7641530286847668  0.7318943120042577  0.5017498049881868  1.0000
  C   C13       1.0  0.30947343077146156  0.5019410598243965  0.18644056808801684  1.0000
  C   C14       1.0  0.6863457023187536  0.5020337592752211  0.8097388929420861  1.0000
  C   C15       1.0  0.3472137587614127  0.5640892222414565  0.1498085403611  1.0000
  C   C16       1.0  0.4203847271911626  0.5623011134925378  0.07887443116352702  1.0000
  C   C17       1.0  0.6497933783755274  0.43867820536686947  0.8475885051635431  1.0000
  C   C18       1.0  0.5788287942091583  0.438243711533751  0.9207734230406643  1.0000
  C   C19       1.0  0.649770564140347  0.5639551150533605  0.8473756751025334  1.0000
  C   C20       1.0  0.5784433559257277  0.5623096597222456  0.9206258800444901  1.0000
  C   C21       1.0  0.3472619392784821  0.4388128547499689  0.1499999380206419  1.0000
  C   C22       1.0  0.42050527148900574  0.4385183417852402  0.07871769334803258  1.0000
  C   C23       1.0  0.4612417759831401  0.5004152949782323  0.038721832868105724  1.0000
  C   C24       1.0  0.5385216655443867  0.4995775384583893  0.9614701894733174  1.0000
  C   C25       1.0  0.0018190881319170517  0.809341538977371  0.5023488582432093  1.0000
  C   C26       1.0  0.002090379661204613  0.18607300001288243  0.5021763399199629  1.0000
  C   C27       1.0  0.06383322868241936  0.8472317292153235  0.4389243525599511  1.0000
  C   C28       1.0  0.06198073977391525  0.9205066944503031  0.4383713148447797  1.0000
  C   C29       1.0  0.9387909892589191  0.1494803526630974  0.564268335922499  1.0000
  C   C30       1.0  0.9382635591363735  0.07863287269325542  0.5623977798434155  1.0000
  C   C31       1.0  0.06381684833884547  0.1496887709825856  0.43899017626747394  1.0000
  C   C32       1.0  0.06208815781099728  0.07847989761958732  0.43861827411713966  1.0000
  C   C33       1.0  0.938769583900239  0.8470700707856694  0.5641839624260996  1.0000
  C   C34       1.0  0.9384281052515601  0.9204015452116608  0.5624229861290785  1.0000
  C   C35       1.0  0.00022500250927467088  0.9612532315530873  0.49966193491011524  1.0000
  C   C36       1.0  0.9994261961396874  0.038501962762929054  0.5004884001230395  1.0000
  C   C37       1.0  0.3093992705810819  0.18580215388832494  0.5028846142559189  1.0000
  C   C38       1.0  0.6867281904446968  0.8096756052997451  0.5015756431705682  1.0000
  C   C39       1.0  0.34663247875094066  0.15049924767713208  0.43912609822584875  1.0000
  C   C40       1.0  0.42002544408939  0.0797903513878636  0.4383905512751057  1.0000
  C   C41       1.0  0.6510891804180332  0.8466225472078364  0.5636867114271739  1.0000
  C   C42       1.0  0.5800736758688104  0.9197936162873429  0.5620174871276618  1.0000
  C   C43       1.0  0.6490796630681217  0.8480985987298196  0.4388349819512385  1.0000
  C   C44       1.0  0.5777247185091596  0.9212584260361183  0.4386746511747008  1.0000
  C   C45       1.0  0.3479589647502051  0.14836131871089003  0.5646824389866297  1.0000
  C   C46       1.0  0.4213658303125172  0.07730041876939006  0.562759224472444  1.0000
  C   C47       1.0  0.46150876074139546  0.03853002855558425  0.4997566583142189  1.0000
  C   C48       1.0  0.5388205205259452  0.9613116246642123  0.5003986118393868  1.0000
  C   C49       1.0  0.0021581811459156232  0.5012945876839365  0.8099899520436722  1.0000
  C   C50       1.0  0.002013450778349611  0.502645408077349  0.18613023454845756  1.0000
  C   C51       1.0  0.9387764501299498  0.5634563029967268  0.8468716255952489  1.0000
  C   C52       1.0  0.938340102499211  0.561882310894582  0.9199736461357235  1.0000
  C   C53       1.0  0.06387216015835409  0.4389454535243971  0.15076837866717344  1.0000
  C   C54       1.0  0.06199874853505347  0.4382876151113493  0.0799806616023417  1.0000
  C   C55       1.0  0.9391479453429027  0.5645039200628758  0.14863272350856968  1.0000
  C   C56       1.0  0.938785614077112  0.5626557763676772  0.07750118742589515  1.0000
  C   C57       1.0  0.06417250626682137  0.4386096127727939  0.8483734376234864  1.0000
  C   C58       1.0  0.06257161681627821  0.43854571140106186  0.9214689679033655  1.0000
  C   C59       1.0  0.9997003067237313  0.5003003130548079  0.9614863847349469  1.0000
  C   C60       1.0  0.0004310542174082309  0.49967134107956207  0.038701644355491255  1.0000
  C   C61       1.0  0.06479558260330985  0.849951144528788  0.1473632948115693  1.0000
  C   C62       1.0  0.06546343708775733  0.9239183713432625  0.07370936074168798  1.0000
  C   C63       1.0  0.12890384617428194  0.9625113442512331  0.03530944457505576  1.0000
  C   C64       1.0  0.9393284721903186  0.8484924235717486  0.14702914217343752  1.0000
  C   C65       1.0  0.9368237105359397  0.9227468897650013  0.07416642031883923  1.0000
  C   C66       1.0  0.8719283542034335  0.9618766055865606  0.03506503782197966  1.0000
  C   C67       1.0  0.9378263166738277  0.14679811814492877  0.8505902629869697  1.0000
  C   C68       1.0  0.9368487910811538  0.073124658925785  0.9245475804315291  1.0000
  C   C69       1.0  0.8732207760467431  0.03470021267350609  0.9631414807390543  1.0000
  C   C70       1.0  0.06507777634554657  0.146455545126102  0.8491413093903121  1.0000
  C   C71       1.0  0.06620620070661667  0.07356473602839492  0.923380405242746  1.0000
  C   C72       1.0  0.13107244869372167  0.034455750040066804  0.9625073303950985  1.0000
  C   C73       1.0  0.002516270998547903  0.8125941000172076  0.18357151178039302  1.0000
  C   C74       1.0  0.0006052293792820945  0.9612794609435298  0.036508702761025795  1.0000
  C   C75       1.0  0.0012461210651009955  0.18301990506448365  0.8132240017628192  1.0000
  C   C76       1.0  0.0015610841326533353  0.035901975391951245  0.9619119571811865  1.0000
  C   C77       1.0  0.3096588773627147  0.5012857829598261  0.5025848033785749  1.0000
  C   C78       1.0  0.6864364338050988  0.5020719092815611  0.5018338565023442  1.0000
  C   C79       1.0  0.3472441806864378  0.43759207025066604  0.5650987076729663  1.0000
  C   C80       1.0  0.4202861085990932  0.4374192303269878  0.5631765949078941  1.0000
  C   C81       1.0  0.6500369517113425  0.5645936099362671  0.4381466334302503  1.0000
  C   C82       1.0  0.5790862312190866  0.5626980388309376  0.43794505111063836  1.0000
  C   C83       1.0  0.6495239826977864  0.4385312302184231  0.5642701577410919  1.0000
  C   C84       1.0  0.5782745261686699  0.438104002057969  0.5628345223806193  1.0000
  C   C85       1.0  0.34765225789239196  0.5637356155222902  0.4390414776151204  1.0000
  C   C86       1.0  0.42075351530985466  0.5623317572720553  0.43859529306373457  1.0000
  C   C87       1.0  0.4613106281001647  0.49930263404517206  0.5008259119202947  1.0000
  C   C88       1.0  0.5385367829254261  0.5003457266856087  0.4997966149953897  1.0000
  N   N1        1.0  0.19619714842518463  0.06784647439802416  0.923705404307853  1.0000
  N   N2        1.0  0.8122396788161338  0.9230643863628814  0.06845998545950488  1.0000
  O   O1        1.0  0.7938215190158643  0.4424942995395468  0.702124721491714  1.0000
  O   O2        1.0  0.0616038566631897  0.7015771814479593  0.442982598870124  1.0000
  O   O3        1.0  0.20171349138067993  0.56172111167659  0.2937995233821269  1.0000
  O   O4        1.0  0.9428582278513458  0.2932196922147626  0.5621862922598027  1.0000
  O   O5        1.0  0.06020520281509783  0.29257858924802355  0.7039175046029627  1.0000
  O   O6        1.0  0.7944248985661844  0.562033747957436  0.4417526670663677  1.0000
  O   O7        1.0  0.9432755089343274  0.7033282705297877  0.2931660613710747  1.0000
  O   O8        1.0  0.20181104669747896  0.44116514770630033  0.562555680026847  1.0000
  O   O9        1.0  0.9425830853339153  0.5603132598419263  0.7020636105475976  1.0000
  O   O10       1.0  0.20088068269588888  0.29376366740399357  0.44382041268296046  1.0000
  O   O11       1.0  0.061498462123743984  0.4434078849111458  0.29424220716519767  1.0000
  O   O12       1.0  0.7950575978772889  0.7015954036014022  0.5607725092868919  1.0000
  O   O13       1.0  0.2009488247668969  0.29260151007377283  0.5629359793412193  1.0000
  O   O14       1.0  0.9434457196470584  0.5624730336661373  0.2931402399997156  1.0000
  O   O15       1.0  0.7945760588645073  0.7022928310924214  0.4420986887642826  1.0000
  O   O16       1.0  0.06102469182798135  0.44161787091879745  0.7027860217870058  1.0000
  O   O17       1.0  0.9420153074612967  0.2927546024186256  0.7038637290301255  1.0000
  O   O18       1.0  0.20175196090231395  0.5608372668171454  0.4430422873255183  1.0000
  O   O19       1.0  0.06134936628752986  0.7032762413558089  0.2933289264313715  1.0000
  O   O20       1.0  0.7943546324374466  0.442503507948416  0.5613845620686889  1.0000
  O   O21       1.0  0.06120582926507724  0.2942459750801659  0.44338956362787485  1.0000
  O   O22       1.0  0.7947967745427179  0.5608517653372543  0.7015517611410191  1.0000
  O   O23       1.0  0.9428421172206635  0.7010338215783705  0.5613455061369522  1.0000
  O   O24       1.0  0.2011345573801505  0.44295925279296  0.29475003754965456  1.0000
  O   O25       1.0  0.9480803905227972  0.4482996755997135  0.4482568343666032  1.0000
  O   O26       1.0  0.1553700151869464  0.4477142145831222  0.44882502099216753  1.0000
  O   O27       1.0  0.9484862067344152  0.6561119222260602  0.4475182124488556  1.0000
  O   O28       1.0  0.9478892549974418  0.4469705917693005  0.6566426908057111  1.0000
  O   O29       1.0  0.0383806885805168  0.537486048018849  0.5384591255081332  1.0000
  O   O30       1.0  0.8856688009391644  0.5379091575755838  0.5380469979945062  1.0000
  O   O31       1.0  0.038293743782389894  0.5388118825959721  0.3850704892111239  1.0000
  O   O32       1.0  0.03782133366425451  0.38452017094550683  0.5393417608795373  1.0000
  F   F1        1.0  0.45151294400859837  0.6263733268420564  0.049353633304100634  1.0000
  F   F2        1.0  0.5494740079516798  0.37235248777544416  0.9520960328208616  1.0000
  F   F3        1.0  0.12586277679744737  0.9518644621248241  0.37242413135393804  1.0000
  F   F4        1.0  0.872531253733527  0.04917224855940097  0.626429769643373  1.0000
  F   F5        1.0  0.4507787053361909  0.05162076912949224  0.37216930371558743  1.0000
  F   F6        1.0  0.551630445803184  0.950268748597793  0.6258676304348401  1.0000
  F   F7        1.0  0.872486231520753  0.6257641707017998  0.9504123750677211  1.0000
  F   F8        1.0  0.1256916731431659  0.3721129953402241  0.05176401286036029  1.0000
  F   F9        1.0  0.45120189001993066  0.37118681150571575  0.6276622570853976  1.0000
  F   F10       1.0  0.5499154346509271  0.6272062517902909  0.37172637291624266  1.0000
