data_image0
_chemical_formula_structural       FeNiP2H44C42S4N2O4
_chemical_formula_sum              "Fe1 Ni1 P2 H44 C42 S4 N2 O4"
_cell_length_a       8.900426823874222
_cell_length_b       10.434963289469408
_cell_length_c       12.806666899382622
_cell_angle_alpha    115.44949177349253
_cell_angle_beta     96.38271275209794
_cell_angle_gamma    96.70539685343195

_space_group_name_H-M_alt    "P 1"
_space_group_IT_number       1

loop_
  _space_group_symop_operation_xyz
  'x, y, z'

loop_
  _atom_site_type_symbol
  _atom_site_label
  _atom_site_symmetry_multiplicity
  _atom_site_fract_x
  _atom_site_fract_y
  _atom_site_fract_z
  _atom_site_occupancy
  Fe  Fe1       1.0  0.999998607644905  0.49999899638215356  1.7902573078244558e-06  1.0000
  Ni  Ni1       1.0  0.9999984722791455  0.9999947154913617  0.49999400396541216  1.0000
  P   P1        1.0  0.9201624797140227  0.17914737390492522  0.3572129778731822  1.0000
  P   P2        1.0  0.07982638304704896  0.8208677616300408  0.6427960480376103  1.0000
  H   H1        1.0  0.6488800454011496  0.9583633867000646  0.24580630849730786  1.0000
  H   H2        1.0  0.35112912785661615  0.04165614134849702  0.7541967054358524  1.0000
  H   H3        1.0  0.4016744391863796  0.93979107793691  0.12749669648016498  1.0000
  H   H4        1.0  0.5983289212436773  0.06021009113841562  0.8725017748733066  1.0000
  H   H5        1.0  0.5399139829860006  0.3757217785272433  0.17929632974810528  1.0000
  H   H6        1.0  0.46007247086815545  0.6242846854472149  0.8206961975671946  1.0000
  H   H7        1.0  0.7897343722979216  0.3944457940423762  0.2986792730941304  1.0000
  H   H8        1.0  0.21025332540647673  0.6055736262912321  0.7013209787437803  1.0000
  H   H9        1.0  0.25940799122415825  0.9322793579154052  0.9700596989361403  1.0000
  H   H10       1.0  0.7406019312959486  0.06772076676648452  0.029939785583124524  1.0000
  H   H11       1.0  0.1281414083139438  0.045852930872847315  0.9623928077797076  1.0000
  H   H12       1.0  0.8718584460470212  0.9541406544312709  0.03759569037804077  1.0000
  H   H13       1.0  0.1580621378205365  0.0147165374650413  0.09030465539453303  1.0000
  H   H14       1.0  0.8419267264778298  0.9852737743734182  0.9096887430180873  1.0000
  H   H15       1.0  0.17288058011355642  0.3692865646635539  0.5205683404887652  1.0000
  H   H16       1.0  0.8270987778949462  0.630720986768566  0.479442664966385  1.0000
  H   H17       1.0  0.16726943081852141  0.5133476457751486  0.48176518609140134  1.0000
  H   H18       1.0  0.832722663222235  0.4866610397179943  0.5182442410060875  1.0000
  H   H19       1.0  0.2872074638636803  0.2336547241622285  0.34224836720576957  1.0000
  H   H20       1.0  0.7127879946281369  0.7663550766021034  0.6577703416045895  1.0000
  H   H21       1.0  0.399883086272922  0.4095522810936744  0.4267485575548876  1.0000
  H   H22       1.0  0.6001073510428939  0.5904553450721796  0.5732720674658085  1.0000
  H   H23       1.0  0.2697229279121416  0.3705524552024429  0.2965668741157757  1.0000
  H   H24       1.0  0.7302804156246198  0.6294509074988428  0.7034479753243447  1.0000
  H   H25       1.0  0.17905789354078655  0.28074509765429684  0.9207512756547234  1.0000
  H   H26       1.0  0.8209332898066678  0.7192517007315619  0.07924614152786104  1.0000
  H   H27       1.0  0.8698061331475488  0.20576782321806772  0.8804678974884655  1.0000
  H   H28       1.0  0.13018444854981234  0.7942322152413727  0.11953371152712598  1.0000
  H   H29       1.0  0.7677714723703775  0.3718303545653755  0.07757608279760578  1.0000
  H   H30       1.0  0.23222294793990272  0.6281729531721185  0.922433254016312  1.0000
  H   H31       1.0  0.01296471182005383  0.5565427192600796  0.23833696008509983  1.0000
  H   H32       1.0  0.9870453937923144  0.44345310298663076  0.7616657366023533  1.0000
  H   H33       1.0  0.38993662376186927  0.4952206231868885  0.08947955998519319  1.0000
  H   H34       1.0  0.6100612350340809  0.5047578741446161  0.9105129030434257  1.0000
  H   H35       1.0  0.27318753296582093  0.6453997953444884  0.32313056221539693  1.0000
  H   H36       1.0  0.726824079919915  0.3545970982874991  0.6768663941144271  1.0000
  H   H37       1.0  0.44634687334928463  0.8290585786592575  0.48598654506263034  1.0000
  H   H38       1.0  0.5536565778627818  0.17091456798765142  0.5140108186130874  1.0000
  H   H39       1.0  0.7086763331545782  0.9781309983768199  0.5779648753879771  1.0000
  H   H40       1.0  0.29133233768174455  0.021862650503926804  0.4220330336571081  1.0000
  H   H41       1.0  0.8813468972938027  0.7580484567975037  0.2756569408658651  1.0000
  H   H42       1.0  0.1186602545918021  0.2419537930976219  0.7243352191559608  1.0000
  H   H43       1.0  0.629355015575591  0.6031742274451731  0.16951912767572008  1.0000
  H   H44       1.0  0.3706562169958333  0.39681940847670216  0.8304680749164178  1.0000
  C   C1        1.0  0.7369554300836967  0.1771760633768409  0.2799514128254971  1.0000
  C   C2        1.0  0.2630323018745103  0.8228444503246027  0.7200554687512979  1.0000
  C   C3        1.0  0.6250946705962336  0.050889789248891815  0.2321971722085934  1.0000
  C   C4        1.0  0.3749074528929415  0.9491221503508034  0.7678010130771045  1.0000
  C   C5        1.0  0.4858215962975763  0.03952181196871151  0.1644402146584056  1.0000
  C   C6        1.0  0.5141789850513235  0.9604825791328296  0.8355591212409479  1.0000
  C   C7        1.0  0.4572747126747885  0.15629138325925143  0.1424839407465583  1.0000
  C   C8        1.0  0.5427168735634212  0.8437194386042182  0.8575183705317004  1.0000
  C   C9        1.0  0.56677757131542  0.28473858843618416  0.1936684160740398  1.0000
  C   C10       1.0  0.43321613674982734  0.715271159829385  0.8063313724046852  1.0000
  C   C11       1.0  0.7047230315967212  0.29529339267337223  0.2615475744037212  1.0000
  C   C12       1.0  0.2952690074531219  0.7047195849195306  0.7384539626122193  1.0000
  C   C13       1.0  0.21232251681414033  0.028377070638043702  0.02173886098534441  1.0000
  C   C14       1.0  0.7876797542872822  0.9716187056685686  0.978259986719458  1.0000
  C   C15       1.0  0.16317117445197482  0.3965808861078061  0.4463140497809378  1.0000
  C   C16       1.0  0.8368241087811229  0.6034267365336918  0.5536952978127945  1.0000
  C   C17       1.0  0.28674093499920156  0.34908659560989014  0.37324232924414263  1.0000
  C   C18       1.0  0.7132543397872483  0.6509221238445877  0.6267752073929175  1.0000
  C   C19       1.0  0.1525915994307852  0.4450114342520237  0.09974856047180945  1.0000
  C   C20       1.0  0.8474145821677652  0.554981125606915  0.9002495270262192  1.0000
  C   C21       1.0  0.10367614240909971  0.3294467623288996  0.9820716426565071  1.0000
  C   C22       1.0  0.8963211002958859  0.6705587036822749  0.017933230312181102  1.0000
  C   C23       1.0  0.9406053061512409  0.287863232097962  0.9618398960443956  1.0000
  C   C24       1.0  0.05939200782485443  0.7121303644424659  0.03815852891407457  1.0000
  C   C25       1.0  0.8868191747374894  0.37698989227575214  0.06591777531836135  1.0000
  C   C26       1.0  0.1131799841258356  0.62300803680521  0.9340862223246236  1.0000
  C   C27       1.0  0.01618025440184573  0.47438287137584484  0.15069464237841157  1.0000
  C   C28       1.0  0.9838292928739847  0.5256215712443508  0.8493086468427011  1.0000
  C   C29       1.0  0.3084654897055757  0.5221422940887238  0.15033380716242573  1.0000
  C   C30       1.0  0.6915379975996103  0.4778480971611217  0.8496640662674794  1.0000
  C   C31       1.0  0.3568228447327542  0.6213625771972958  0.26412660120762876  1.0000
  C   C32       1.0  0.6431823413847085  0.3786234861896747  0.7358605549895076  1.0000
  C   C33       1.0  0.5110213355417416  0.7030835795846074  0.31771763854445834  1.0000
  C   C34       1.0  0.48898644533839797  0.29689279672125224  0.6822695209284009  1.0000
  C   C35       1.0  0.5396121470888033  0.8101737686858145  0.43564086022048804  1.0000
  C   C36       1.0  0.460401354308793  0.18979724660004396  0.5643465219861171  1.0000
  C   C37       1.0  0.6846691590449655  0.8941302037936658  0.48750438304617955  1.0000
  C   C38       1.0  0.31533596240871026  0.10585048101597751  0.5124871521025299  1.0000
  C   C39       1.0  0.781342329008389  0.7703935285031777  0.31828910086929363  1.0000
  C   C40       1.0  0.21867539376886924  0.22960554875098185  0.6817076028937451  1.0000
  C   C41       1.0  0.639048436591395  0.6844557040713327  0.2601491067033451  1.0000
  C   C42       1.0  0.3609699164066171  0.31552826708362164  0.7398385165209335  1.0000
  S   S1        1.0  0.014136459074535403  0.013245604842509803  0.2671753476077185  1.0000
  S   S2        1.0  0.985848983018343  0.9867619400309595  0.7328205864984485  1.0000
  S   S3        1.0  0.8929830735138112  0.1909211253576545  0.5184042843098879  1.0000
  S   S4        1.0  0.10701829319055631  0.8090811069801592  0.4815920319297577  1.0000
  N   N1        1.0  0.8048312285228435  0.8763264263370021  0.42997724465264764  1.0000
  N   N2        1.0  0.1951814944286455  0.1236704745961106  0.5700205956685025  1.0000
  O   O1        1.0  0.009288643187545603  0.3338640502994466  0.3764000203374423  1.0000
  O   O2        1.0  0.9906981488935926  0.6661510585752952  0.6236017800250979  1.0000
  O   O3        1.0  0.3298676994434259  0.15577541531986583  0.07365032414382003  1.0000
  O   O4        1.0  0.670128680951848  0.8442311195323386  0.9263524980501503  1.0000
