data_image0
_chemical_formula_structural       Zn2H44C52O12
_chemical_formula_sum              "Zn2 H44 C52 O12"
_cell_length_a       6.455076755860423
_cell_length_b       7.257605198281396
_cell_length_c       22.78718842515098
_cell_angle_alpha    89.15525726716857
_cell_angle_beta     98.17728384990187
_cell_angle_gamma    90.06433564308414

_space_group_name_H-M_alt    "P 1"
_space_group_IT_number       1

loop_
  _space_group_symop_operation_xyz
  'x, y, z'

loop_
  _atom_site_type_symbol
  _atom_site_label
  _atom_site_symmetry_multiplicity
  _atom_site_fract_x
  _atom_site_fract_y
  _atom_site_fract_z
  _atom_site_occupancy
  Zn  Zn1       1.0  0.5000082622291373  3.077031735191964e-06  0.49999889253030727  1.0000
  Zn  Zn2       1.0  3.5595966138973125e-06  0.5000015118022886  0.49999917332296223  1.0000
  H   H1        1.0  0.9273166779744172  0.25472574499358563  0.32579676431888777  1.0000
  H   H2        1.0  0.6032089153700468  0.24541478820355414  0.6741063441896814  1.0000
  H   H3        1.0  0.07269566382183258  0.7453058885954532  0.674194273845437  1.0000
  H   H4        1.0  0.3967861880020039  0.754609958061053  0.3258848637626032  1.0000
  H   H5        1.0  0.017201336050263197  0.21299402896238462  0.13729922143004814  1.0000
  H   H6        1.0  0.8813129872257619  0.28663581175369757  0.8624544242807489  1.0000
  H   H7        1.0  0.9828232930436158  0.7869738540115135  0.8627020523639573  1.0000
  H   H8        1.0  0.1186383139807958  0.7133478526336461  0.13753018315795631  1.0000
  H   H9        1.0  0.6220358970325108  0.10943178137770809  0.268417447225012  1.0000
  H   H10       1.0  0.35611195881307367  0.38921113025809706  0.731734422300015  1.0000
  H   H11       1.0  0.3779667457253452  0.8905098702818393  0.73158557611535  1.0000
  H   H12       1.0  0.6438829154255147  0.6108089695054064  0.2682712641462857  1.0000
  H   H13       1.0  0.5958154431891811  0.9251312703004971  0.1975366676164256  1.0000
  H   H14       1.0  0.40128261686430017  0.5739826780937135  0.8027329297858189  1.0000
  H   H15       1.0  0.404207637299379  0.07484901702754597  0.8024645282098605  1.0000
  H   H16       1.0  0.5987042182945359  0.4260341993368255  0.19728603164482916  1.0000
  H   H17       1.0  0.9518872286800928  0.16081969390572223  0.22272167769634882  1.0000
  H   H18       1.0  0.7314333542814708  0.33905116320237016  0.7771758668506197  1.0000
  H   H19       1.0  0.0481249579929113  0.8392019679307409  0.777278581408062  1.0000
  H   H20       1.0  0.2685398687213407  0.6609915540915167  0.22281397415268606  1.0000
  H   H21       1.0  0.5925197610523796  0.18802838879000205  0.371710094617555  1.0000
  H   H22       1.0  0.2229033338857249  0.31083269894531174  0.6283986029202853  1.0000
  H   H23       1.0  0.40746720318598767  0.8119228454561592  0.6282949005911789  1.0000
  H   H24       1.0  0.7771229328936613  0.6891848018130771  0.37160224523535856  1.0000
  H   H25       1.0  0.6182888673443685  0.8345257547015664  0.09505772809215073  1.0000
  H   H26       1.0  0.5253560226272285  0.6652676188275564  0.9052570617244486  1.0000
  H   H27       1.0  0.381757750778803  0.16549584039019996  0.9049439603234646  1.0000
  H   H28       1.0  0.47456186410867934  0.33474095363629885  0.09476387447015362  1.0000
  H   H29       1.0  0.3381820659158521  0.9270179760943051  0.012819747452653001  1.0000
  H   H30       1.0  0.3260524716886621  0.5732513005140447  0.9872357766846209  1.0000
  H   H31       1.0  0.6618708410829512  0.0729844402170201  0.9871787121709233  1.0000
  H   H32       1.0  0.6738357508633968  0.42671490914104027  0.012775636271442205  1.0000
  H   H33       1.0  0.037442519428317694  0.11698374813433078  0.035415158464665815  1.0000
  H   H34       1.0  0.002498530159975598  0.38299822999382366  0.9643716669098482  1.0000
  H   H35       1.0  0.9626041249392043  0.8830118062272162  0.9645826098948833  1.0000
  H   H36       1.0  0.9974056888998889  0.6169536311624454  0.035616726630088615  1.0000
  H   H37       1.0  0.1520749986018188  0.0852556205433146  0.5469604980448679  1.0000
  H   H38       1.0  0.6043138851655242  0.41458070514472206  0.4530024837343021  1.0000
  H   H39       1.0  0.8479496485686298  0.9147411522329775  0.4530420612508834  1.0000
  H   H40       1.0  0.39567484057635477  0.5854218044800416  0.5469941893948232  1.0000
  H   H41       1.0  0.15306899343596567  0.8880386505352006  0.5169115469824492  1.0000
  H   H42       1.0  0.636151039865247  0.6116451897171089  0.48316190105215656  1.0000
  H   H43       1.0  0.8469775609994061  0.11195532391823798  0.4830919247636559  1.0000
  H   H44       1.0  0.3638517573768921  0.38835176536790067  0.5168358011834756  1.0000
  C   C1        1.0  0.23781033348696212  0.2840914886307502  0.41662914048321653  1.0000
  C   C2        1.0  0.8222590585236133  0.2159961266507295  0.5833163106028467  1.0000
  C   C3        1.0  0.7621908746998401  0.7159026670275493  0.5833698155052149  1.0000
  C   C4        1.0  0.17776881656531174  0.7840132278245732  0.41668110229998234  1.0000
  C   C5        1.0  0.2575672420204995  0.22975043177625307  0.35501425838724293  1.0000
  C   C6        1.0  0.9043007900599278  0.2699873658444218  0.6449440038022021  1.0000
  C   C7        1.0  0.7424355116523528  0.7702340598396658  0.6449852112911714  1.0000
  C   C8        1.0  0.0957145809622659  0.7300344142219614  0.35505287635207594  1.0000
  C   C9        1.0  0.0781864575189957  0.22121465689755831  0.312499670326048  1.0000
  C   C10       1.0  0.7675582867233431  0.27865547560170967  0.6874296779620651  1.0000
  C   C11       1.0  0.9218257859519667  0.7787988927640725  0.6874962113349883  1.0000
  C   C12       1.0  0.23243834599981736  0.7213678120185563  0.31256378945794694  1.0000
  C   C13       1.0  0.2891095529368712  0.1304153421324941  0.23726979325449804  1.0000
  C   C14       1.0  0.054242279875893494  0.3688874243488981  0.7627487070446011  1.0000
  C   C15       1.0  0.7109088986223497  0.8695843384629639  0.7627285557793614  1.0000
  C   C16       1.0  0.9457417762736284  0.6311343853200739  0.2372477509577351  1.0000
  C   C17       1.0  0.30416494083131335  0.07582795797446099  0.17574704876357572  1.0000
  C   C18       1.0  0.1307610468253628  0.4235359047419961  0.8242938808070123  1.0000
  C   C19       1.0  0.695865998121036  0.9241620062672595  0.8242531459629847  1.0000
  C   C20       1.0  0.8692088499336845  0.5764761469254793  0.17570595008591997  1.0000
  C   C21       1.0  0.1480813392822924  0.12758710145788396  0.12878793563341873  1.0000
  C   C22       1.0  0.020883084632607993  0.37206073773879916  0.8711042720546089  1.0000
  C   C23       1.0  0.851951172803446  0.872398757050966  0.8712114511729682  1.0000
  C   C24       1.0  0.9790618385178007  0.6279309111239613  0.1288884004511601  1.0000
  C   C25       1.0  0.4682107464184355  0.1403416798787021  0.2803632839203162  1.0000
  C   C26       1.0  0.19015369837502757  0.35877218600021615  0.7197008480604412  1.0000
  C   C27       1.0  0.5317982140523796  0.8596330609072708  0.7196390874088578  1.0000
  C   C28       1.0  0.8098475033602667  0.6412425608392098  0.2803002793176361  1.0000
  C   C29       1.0  0.4734160766560436  0.9698613591931532  0.16220317645689167  1.0000
  C   C30       1.0  0.3137222238480959  0.5295661200020447  0.8379776863384977  1.0000
  C   C31       1.0  0.526608595794123  0.030134097807469094  0.8377976298394431  1.0000
  C   C32       1.0  0.686234983493037  0.47045106366687867  0.16203302291199154  1.0000
  C   C33       1.0  0.09373384477014209  0.1707723372203915  0.25476973457612934  1.0000
  C   C34       1.0  0.8411699847737991  0.3288875866121329  0.7451711852614978  1.0000
  C   C35       1.0  0.9062877760806316  0.8292466593244329  0.7452278469525242  1.0000
  C   C36       1.0  0.15881881089439528  0.6711370630274587  0.2548228330926037  1.0000
  C   C37       1.0  0.4531468018254258  0.187298495777803  0.3385388917289803  1.0000
  C   C38       1.0  0.11661933803083002  0.31197890173081083  0.6615014491149296  1.0000
  C   C39       1.0  0.5468511903812754  0.8126666207737896  0.6614630349297101  1.0000
  C   C40       1.0  0.8833944285527268  0.6880386699099857  0.3384975634583611  1.0000
  C   C41       1.0  0.485870306288902  0.9170787282365254  0.10418328756492201  1.0000
  C   C42       1.0  0.38357009256588975  0.5827810697585888  0.8960095144320948  1.0000
  C   C43       1.0  0.514170040058211  0.0829291152830862  0.8958177168083524  1.0000
  C   C44       1.0  0.616352582419175  0.41722633320006947  0.10400547755976675  1.0000
  C   C45       1.0  0.3286485893002009  0.9685314513047699  0.05818756024493871  1.0000
  C   C46       1.0  0.2716119237709975  0.5315395352612596  0.9418533546529704  1.0000
  C   C47       1.0  0.6713949168680244  0.03146821182350119  0.9418109510660958  1.0000
  C   C48       1.0  0.7282889267784753  0.46845162367281995  0.05815372733422212  1.0000
  C   C49       1.0  0.16018408289411212  0.07428844178618019  0.07087032791557142  1.0000
  C   C50       1.0  0.0903492750659538  0.4256170365023593  0.929034738434197  1.0000
  C   C51       1.0  0.8398562753913696  0.9257029443257281  0.9291285007350399  1.0000
  C   C52       1.0  0.9095689608508336  0.5743593669317943  0.07096079298998602  1.0000
  O   O1        1.0  0.0653703277857502  0.34894277469722806  0.4270257679706263  1.0000
  O   O2        1.0  0.6390165081443369  0.1515462767582747  0.5729345389986094  1.0000
  O   O3        1.0  0.9346465868935353  0.6510679634022976  0.5729716273179761  1.0000
  O   O4        1.0  0.3610176352757222  0.8484589628826028  0.4270622608901179  1.0000
  O   O5        1.0  0.399829904105438  0.2647757091743231  0.45736714424372593  1.0000
  O   O6        1.0  0.9433382593085541  0.23517615982  0.54255608575064  1.0000
  O   O7        1.0  0.6001744060272073  0.7352073859460615  0.5426328304586576  1.0000
  O   O8        1.0  0.056700530040103586  0.7648275840344354  0.4574439807650776  1.0000
  O   O9        1.0  0.24096727278215715  0.9756008043738333  0.5434119081920061  1.0000
  O   O10       1.0  0.697180113619801  0.5241378963167591  0.4566473632357742  1.0000
  O   O11       1.0  0.7590651898214489  0.02439867800775629  0.45659185028041094  1.0000
  O   O12       1.0  0.30282267135829233  0.4758549094576237  0.5433507819438008  1.0000
