data_image0
_chemical_formula_structural       Zn2H36C20N8O12
_chemical_formula_sum              "Zn2 H36 C20 N8 O12"
_cell_length_a       4.981913806184676
_cell_length_b       9.409687618195019
_cell_length_c       14.518784210099414
_cell_angle_alpha    105.6823413660772
_cell_angle_beta     89.99958859481664
_cell_angle_gamma    89.9992854535978

_space_group_name_H-M_alt    "P 1"
_space_group_IT_number       1

loop_
  _space_group_symop_operation_xyz
  'x, y, z'

loop_
  _atom_site_type_symbol
  _atom_site_label
  _atom_site_symmetry_multiplicity
  _atom_site_fract_x
  _atom_site_fract_y
  _atom_site_fract_z
  _atom_site_occupancy
  Zn  Zn1       1.0  0.1607447624778544  0.7490436756532405  0.019501055737023914  1.0000
  Zn  Zn2       1.0  0.660729419848522  0.250975488432637  0.9804930882253091  1.0000
  H   H1        1.0  0.6304620255896013  0.3506199048820164  0.6566344388172  1.0000
  H   H2        1.0  0.13047518071874725  0.6493355769174941  0.34336391331051175  1.0000
  H   H3        1.0  0.27991635170294427  0.8710708214325038  0.23057300366485833  1.0000
  H   H4        1.0  0.7799140221226822  0.1289263840741697  0.7694225401340731  1.0000
  H   H5        1.0  0.19679907546529313  0.3050377435375894  0.7375585491093944  1.0000
  H   H6        1.0  0.696816057878614  0.6949690745608448  0.2624526496414461  1.0000
  H   H7        1.0  0.12876884960001433  0.27589018938792975  0.584182517485374  1.0000
  H   H8        1.0  0.6287499913577435  0.7240950657571475  0.4158127275773253  1.0000
  H   H9        1.0  0.6204249326681294  0.5382247757231513  0.722858698730157  1.0000
  H   H10       1.0  0.12039952101154941  0.4617395595466006  0.2771295029791361  1.0000
  H   H11       1.0  0.05432403534921802  0.576578536407425  0.7972957626487871  1.0000
  H   H12       1.0  0.5542962033197724  0.42344597202039597  0.20270371522955344  1.0000
  H   H13       1.0  0.7748238323524391  0.8285760587654636  0.15010677586498392  1.0000
  H   H14       1.0  0.2748156785510503  0.17143112821715084  0.8498911976967919  1.0000
  H   H15       1.0  0.7465112261325118  0.9171728899173388  0.06843406209194575  1.0000
  H   H16       1.0  0.24651550262875335  0.08284669504622143  0.9315688860665717  1.0000
  H   H17       1.0  0.18207895609591426  0.1808279036816174  0.3636492306510277  1.0000
  H   H18       1.0  0.6821137494553186  0.8191701870792159  0.6363563629981358  1.0000
  H   H19       1.0  0.4824812049630368  0.350042342941748  0.8120320172418689  1.0000
  H   H20       1.0  0.9824946766643453  0.6499664375474764  0.18797533590271343  1.0000
  H   H21       1.0  0.4469261742310239  0.14630261877775302  0.2820983928570868  1.0000
  H   H22       1.0  0.9469404884937305  0.8536998196266906  0.7179038221649634  1.0000
  H   H23       1.0  0.9891945805453092  0.9357241856081374  0.2976086459615602  1.0000
  H   H24       1.0  0.48919181041051724  0.0642679287779444  0.7023861621800265  1.0000
  H   H25       1.0  0.8954800239948284  0.10577209044073752  0.1952416010448133  1.0000
  H   H26       1.0  0.3954804021557479  0.8942385316089623  0.8047656079238479  1.0000
  H   H27       1.0  0.7687645771176222  0.1120507068929726  0.4985153529055211  1.0000
  H   H28       1.0  0.26878520258664196  0.8879355738261696  0.50148177258437  1.0000
  H   H29       1.0  0.6755104319904178  0.24037659420078938  0.43486811364884653  1.0000
  H   H30       1.0  0.1755186576918177  0.7596127442559963  0.5651401146789539  1.0000
  H   H31       1.0  0.03543858995176661  0.39514088664414965  0.514715380926539  1.0000
  H   H32       1.0  0.5354310963965504  0.6048418929260182  0.4852872542696077  1.0000
  H   H33       1.0  0.4476347092594182  0.7003887724149818  0.8596916211823071  1.0000
  H   H34       1.0  0.9475848473473578  0.29960700777773047  0.14030392942833464  1.0000
  H   H35       1.0  0.5182307291145849  0.5867055362012367  0.923272716978204  1.0000
  H   H36       1.0  0.018234507963967403  0.4132895319565506  0.07673208999204215  1.0000
  C   C1        1.0  0.9870199872010164  0.46798522253536856  0.9042812536677902  1.0000
  C   C2        1.0  0.48703071990932056  0.5320554820130496  0.09572265971629432  1.0000
  C   C3        1.0  0.25679316857771534  0.05397844181140241  0.1107648093309876  1.0000
  C   C4        1.0  0.7568140049482112  0.9460156418013241  0.8892288765256072  1.0000
  C   C5        1.0  0.1528112095461651  0.9689675933040219  0.25693570175827324  1.0000
  C   C6        1.0  0.6528096275967882  0.031037307155159503  0.7430594376086931  1.0000
  C   C7        1.0  0.18400335363479312  0.5200391828265084  0.8379306170670163  1.0000
  C   C8        1.0  0.6840011398010474  0.47998424258634764  0.16207246934003905  1.0000
  C   C9        1.0  0.337747584414153  0.3943749469389104  0.7699599012793641  1.0000
  C   C10       1.0  0.8377552039113  0.6056317665427713  0.23004953602188752  1.0000
  C   C11       1.0  0.49448076838271493  0.4412220887939852  0.6921245179989697  1.0000
  C   C12       1.0  0.9944758578571966  0.5587501339831746  0.3078709658327483  1.0000
  C   C13       1.0  0.48556003134773823  0.03892606672597761  0.3935928786872723  1.0000
  C   C14       1.0  0.98557412676837  0.96104513555467  0.6064038291605982  1.0000
  C   C15       1.0  0.030598870854433403  0.010355026335005797  0.17047343799317366  1.0000
  C   C16       1.0  0.5306018402727019  0.9896531268634872  0.8295232703678366  1.0000
  C   C17       1.0  0.32239864786342315  0.4781834292741749  0.6156103024124137  1.0000
  C   C18       1.0  0.8224050948811267  0.521811250854924  0.38439295917996935  1.0000
  C   C19       1.0  0.3147623126393668  0.09214173181482721  0.32309432562516344  1.0000
  C   C20       1.0  0.8147721976861887  0.9078518947850257  0.6769060183515735  1.0000
  N   N1        1.0  0.8851225981041538  0.8821464936656015  0.11024362432842594  1.0000
  N   N2        1.0  0.3851188827474132  0.11786527247978999  0.8897548555998824  1.0000
  N   N3        1.0  0.1458074832946394  0.37633547154353414  0.5700871998402377  1.0000
  N   N4        1.0  0.6458006669322816  0.6236408188880063  0.4299085155128282  1.0000
  N   N5        1.0  0.3604216078555211  0.6348388001092005  0.8973309602598505  1.0000
  N   N6        1.0  0.8603970989540954  0.36517430627832687  0.10267263716491472  1.0000
  N   N7        1.0  0.652654789977369  0.13872649372661527  0.4469999097624893  1.0000
  N   N8        1.0  0.1526770016741565  0.8612663213500795  0.5530034695280649  1.0000
  O   O1        1.0  0.9089593646630263  0.33449005175464913  0.8814277920117632  1.0000
  O   O2        1.0  0.4089947038691477  0.6655358385811283  0.11856893826512761  1.0000
  O   O3        1.0  0.36572168677354006  0.9484492528204103  0.04610007884746649  1.0000
  O   O4        1.0  0.8657214511462572  0.0515670939070887  0.953899244318265  1.0000
  O   O5        1.0  0.9000535758176015  0.5660155097684056  0.9768130062154656  1.0000
  O   O6        1.0  0.4000338647399317  0.4340159979370454  0.023188852201826607  1.0000
  O   O7        1.0  0.3296670712594576  0.18645931546086564  0.1305767466499219  1.0000
  O   O8        1.0  0.8296933260652467  0.8135705472863606  0.8694181219834077  1.0000
  O   O9        1.0  0.4684662507030454  0.9089970262212503  0.4016220906415526  1.0000
  O   O10       1.0  0.9684702059845804  0.09098866401765798  0.5983757918847702  1.0000
  O   O11       1.0  0.34984876316413255  0.5996633777372936  0.5955442852026139  1.0000
  O   O12       1.0  0.8498515538766823  0.4003100959476882  0.4044552343617553  1.0000
