data_image0
_chemical_formula_structural       Zn4H64C100N4O24
_chemical_formula_sum              "Zn4 H64 C100 N4 O24"
_cell_length_a       13.358230413096432
_cell_length_b       13.392995880102335
_cell_length_c       16.49172187520573
_cell_angle_alpha    90.00031325727623
_cell_angle_beta     90.00028719641828
_cell_angle_gamma    116.62361622788009

_space_group_name_H-M_alt    "P 1"
_space_group_IT_number       1

loop_
  _space_group_symop_operation_xyz
  'x, y, z'

loop_
  _atom_site_type_symbol
  _atom_site_label
  _atom_site_symmetry_multiplicity
  _atom_site_fract_x
  _atom_site_fract_y
  _atom_site_fract_z
  _atom_site_occupancy
  Zn  Zn1       1.0  0.08969926616647683  0.11104930304244222  0.5019728762352287  1.0000
  Zn  Zn2       1.0  0.9103014402426057  0.3889502203419255  0.0019721765311900004  1.0000
  Zn  Zn3       1.0  0.9103042696470427  0.8889444650011101  0.4980251915158931  1.0000
  Zn  Zn4       1.0  0.08969631541368986  0.6110570538484553  0.9980283166976208  1.0000
  H   H1        1.0  0.3279824828437229  0.1643057722449157  0.5163133975061598  1.0000
  H   H2        1.0  0.5136413349392798  0.3298886684720659  0.5172194436288677  1.0000
  H   H3        1.0  0.34086621376153653  0.5327205996972993  0.47771791009665077  1.0000
  H   H4        1.0  0.1635577834823892  0.3580985101256716  0.477238135176151  1.0000
  H   H5        1.0  0.935163106109741  0.28366909520666167  0.3501460667780236  1.0000
  H   H6        1.0  0.8423687932885645  0.3312827729977741  0.234360016324942  1.0000
  H   H7        1.0  0.7007639290878629  0.17975434018314468  0.1503815034397604  1.0000
  H   H8        1.0  0.7455262738754913  0.9351509967702968  0.2954736438641206  1.0000
  H   H9        1.0  0.509372623076402  0.8951173846997091  0.2924539875590355  1.0000
  H   H10       1.0  0.4141063836096921  0.6947467752117478  0.3380665365148303  1.0000
  H   H11       1.0  0.5651223256666216  0.6030209714507891  0.1400497154075069  1.0000
  H   H12       1.0  0.6605511480197065  0.803382067275848  0.0947464128179902  1.0000
  H   H13       1.0  0.3374636986027539  0.33173238369858643  0.3272486315234673  1.0000
  H   H14       1.0  0.14306020621601334  0.19105927093477254  0.2941573848172609  1.0000
  H   H15       1.0  0.029188799977305294  0.2398740864379292  0.1945727561701531  1.0000
  H   H16       1.0  0.29979057967354816  0.5696666247608208  0.1696287942690873  1.0000
  H   H17       1.0  0.6720228125066541  0.3356905091056391  0.0163102858858934  1.0000
  H   H18       1.0  0.4863639708910342  0.17010762364817114  0.0172172705811491  1.0000
  H   H19       1.0  0.6591381764047385  0.9672764303098663  0.9777164314151887  1.0000
  H   H20       1.0  0.8364471794588656  0.14189743682959494  0.9772365298907102  1.0000
  H   H21       1.0  0.06484385904831674  0.21633453772354025  0.850151379474255  1.0000
  H   H22       1.0  0.15763687731449494  0.1687228429545584  0.734363672564875  1.0000
  H   H23       1.0  0.29923779254379923  0.3202503139390913  0.6503857997456918  1.0000
  H   H24       1.0  0.2544779918577619  0.5648530819257475  0.7954808667783125  1.0000
  H   H25       1.0  0.49062677924800385  0.6048875559884054  0.792452640340393  1.0000
  H   H26       1.0  0.5858939072984768  0.8052578632450746  0.8380670724980277  1.0000
  H   H27       1.0  0.43487833692369554  0.8969854813949212  0.6400512628451978  1.0000
  H   H28       1.0  0.3394403957155774  0.6966214314958705  0.5947497146048448  1.0000
  H   H29       1.0  0.6625370015432568  0.16826769028013905  0.827248866969306  1.0000
  H   H30       1.0  0.856941622447025  0.30894207128566364  0.7941578188133604  1.0000
  H   H31       1.0  0.9708058771236383  0.2601227857705127  0.694569187973137  1.0000
  H   H32       1.0  0.7002051030890047  0.9303318457179658  0.6696285296299678  1.0000
  H   H33       1.0  0.6720224980266283  0.8356846192799383  0.4836870956996506  1.0000
  H   H34       1.0  0.48636364589251724  0.6701017230131684  0.4827743795638995  1.0000
  H   H35       1.0  0.6591391944350136  0.4672739856378955  0.5222886467675778  1.0000
  H   H36       1.0  0.8364464969257813  0.6418952490186953  0.5227708471432493  1.0000
  H   H37       1.0  0.06484460166985438  0.7163305011008348  0.6498532137241426  1.0000
  H   H38       1.0  0.15764383099216409  0.668722642613261  0.7656410832945683  1.0000
  H   H39       1.0  0.299244655294693  0.8202553229863271  0.8496195961810571  1.0000
  H   H40       1.0  0.254476244175848  0.0648503415698727  0.7045226048073374  1.0000
  H   H41       1.0  0.49063366171259304  0.10488726748665304  0.7075525693293726  1.0000
  H   H42       1.0  0.5858901561790761  0.30525295553805887  0.6619297121409814  1.0000
  H   H43       1.0  0.4348791746365635  0.3969879372004002  0.8599471396435732  1.0000
  H   H44       1.0  0.3394555860495529  0.19662845796575118  0.9052565058954726  1.0000
  H   H45       1.0  0.6625280787559122  0.6682732828653998  0.6727457980414756  1.0000
  H   H46       1.0  0.8569378226113288  0.808940441861772  0.7058346192877565  1.0000
  H   H47       1.0  0.9708005456953688  0.7601164932953426  0.8054216733562924  1.0000
  H   H48       1.0  0.7001866022983309  0.4303333390571211  0.8303680607129779  1.0000
  H   H49       1.0  0.32797938827975076  0.664315031947652  0.9836817182405257  1.0000
  H   H50       1.0  0.51363895242028  0.829896229142179  0.9827753399077892  1.0000
  H   H51       1.0  0.3408613415593109  0.0327232646342779  0.0222883063540564  1.0000
  H   H52       1.0  0.16355606116646032  0.8581022132980468  0.0227688142507745  1.0000
  H   H53       1.0  0.9351550024563199  0.7836718834271681  0.14985881559204023  1.0000
  H   H54       1.0  0.8423619401838637  0.8312802196054959  0.2656489479531388  1.0000
  H   H55       1.0  0.700759108589793  0.6797485727638843  0.3496250016646982  1.0000
  H   H56       1.0  0.745526081353731  0.4351532764624082  0.2045269028390706  1.0000
  H   H57       1.0  0.5093694213322665  0.39511469824042666  0.2075508846982146  1.0000
  H   H58       1.0  0.4141038043235028  0.19474605232582579  0.1619309952639298  1.0000
  H   H59       1.0  0.5651241811346638  0.10301585695244604  0.3599461985559032  1.0000
  H   H60       1.0  0.6605505491270238  0.3033775268796433  0.405254416780636  1.0000
  H   H61       1.0  0.3374646399156448  0.8317235812088627  0.172747381677965  1.0000
  H   H62       1.0  0.14306304116539792  0.6910525229595238  0.20583964257706103  1.0000
  H   H63       1.0  0.02919434127806406  0.7398735415289154  0.3054228161287611  1.0000
  H   H64       1.0  0.29979958251954747  0.06966442781534  0.3303665063049408  1.0000
  C   C1        1.0  0.3357863189208459  0.2481893000425117  0.5076347003192864  1.0000
  C   C2        1.0  0.4391222917922875  0.341925542566571  0.5084215727922299  1.0000
  C   C3        1.0  0.4457392176181473  0.4489375623602497  0.4986581380357221  1.0000
  C   C4        1.0  0.3439834275399961  0.4537535253036253  0.48649487137706876  1.0000
  C   C5        1.0  0.2436386967699705  0.3564650981888066  0.48637803016239195  1.0000
  C   C6        1.0  0.9013930965343494  0.07472961950652043  0.3959479066236895  1.0000
  C   C7        1.0  0.8444683668861405  0.1065151355057807  0.3295509144618691  1.0000
  C   C8        1.0  0.8722938552108632  0.21846079145302613  0.31303081029141566  1.0000
  C   C9        1.0  0.8206232532633637  0.2444700108327638  0.2484717076514897  1.0000
  C   C10       1.0  0.7422042962724549  0.16023796249860572  0.200252624798928  1.0000
  C   C11       1.0  0.715633998160918  0.048895275278148596  0.2167945619792917  1.0000
  C   C12       1.0  0.7655580733167824  0.021440822623738098  0.2815737683062309  1.0000
  C   C13       1.0  0.5895969787041723  0.8592519962201024  0.1912269199008776  1.0000
  C   C14       1.0  0.5210712540421343  0.8304633111993738  0.2599084481362297  1.0000
  C   C15       1.0  0.46865509774747954  0.7196124087069434  0.2850904265855689  1.0000
  C   C16       1.0  0.4850346279372247  0.6387453124359013  0.2416005818424836  1.0000
  C   C17       1.0  0.5515833058473022  0.6669943015378621  0.17220596338374614  1.0000
  C   C18       1.0  0.6045884040182373  0.7782655630307147  0.1469930624532694  1.0000
  C   C19       1.0  0.33018634347021003  0.458043238260025  0.2503442540342604  1.0000
  C   C20       1.0  0.28590132758582604  0.3516721593835115  0.2854639719403878  1.0000
  C   C21       1.0  0.1775664697481218  0.2732229477062873  0.2657057872236237  1.0000
  C   C22       1.0  0.11371937877348162  0.30027991627810013  0.2108915513907306  1.0000
  C   C23       1.0  0.15815230050946377  0.40731097071117967  0.1768881528899371  1.0000
  C   C24       1.0  0.2668555795576637  0.4870246613737947  0.19688585527036653  1.0000
  C   C25       1.0  0.0917288071626672  0.4383249197399692  0.1174073369953419  1.0000
  C   C26       1.0  0.6642181976049388  0.2518119250825279  0.0076330027807145  1.0000
  C   C27       1.0  0.560882551072865  0.15807148917065209  0.0084202533771389  1.0000
  C   C28       1.0  0.5542652044061998  0.0510552894352827  0.9986574144304896  1.0000
  C   C29       1.0  0.6560174924773747  0.04623838268138061  0.9864951435138778  1.0000
  C   C30       1.0  0.7563659885690373  0.14353012218722944  0.9863773215573914  1.0000
  C   C31       1.0  0.09861509862060559  0.42527118997895746  0.8959506478322865  1.0000
  C   C32       1.0  0.15554023251853985  0.39348906999590144  0.8295573821628963  1.0000
  C   C33       1.0  0.12771527572451905  0.28154152951105976  0.81303606081201  1.0000
  C   C34       1.0  0.17938404752215584  0.2555340755285442  0.7484734127859766  1.0000
  C   C35       1.0  0.25779944695974416  0.33976390758837016  0.7002592661520097  1.0000
  C   C36       1.0  0.28436698018075657  0.45110850647981243  0.7167993809316258  1.0000
  C   C37       1.0  0.23444699332770108  0.47856284876604593  0.7815827525045124  1.0000
  C   C38       1.0  0.41039455259888064  0.6407518225532343  0.6912284402892368  1.0000
  C   C39       1.0  0.47892662221546806  0.6695387373244086  0.7599061288364695  1.0000
  C   C40       1.0  0.5313426863852158  0.7803891038428574  0.7850924506939876  1.0000
  C   C41       1.0  0.5149649310433732  0.8612590151598168  0.7416035062778902  1.0000
  C   C42       1.0  0.4484162394442635  0.8330125512784292  0.6722103124477599  1.0000
  C   C43       1.0  0.39540559403920394  0.7217376943767989  0.6469948829334058  1.0000
  C   C44       1.0  0.6698112560071295  0.041957628248596314  0.7503415309636737  1.0000
  C   C45       1.0  0.7140992947792102  0.14832993264979422  0.7854637204172406  1.0000
  C   C46       1.0  0.8224320298417284  0.2267764130367595  0.7657032905763045  1.0000
  C   C47       1.0  0.8862781478801625  0.19972131669557314  0.7108897984092195  1.0000
  C   C48       1.0  0.8418448110242595  0.09268817898186647  0.6768851375581022  1.0000
  C   C49       1.0  0.7331398688214533  0.012972229356705601  0.6968832588315694  1.0000
  C   C50       1.0  0.908269533097773  0.061677699160952705  0.6174062708494077  1.0000
  C   C51       1.0  0.6642202390602208  0.7518077907716362  0.49236700563426433  1.0000
  C   C52       1.0  0.56088453939136  0.6580639868861625  0.49157710132092797  1.0000
  C   C53       1.0  0.5542675695627326  0.5510486085054326  0.5013435678939758  1.0000
  C   C54       1.0  0.6560185752181628  0.5462369020917209  0.5135080472821016  1.0000
  C   C55       1.0  0.7563647950793354  0.6435253113073144  0.5136297394183201  1.0000
  C   C56       1.0  0.09861154507142794  0.9252632954397342  0.6040501611277591  1.0000
  C   C57       1.0  0.15553785182333965  0.8934844787225628  0.6704471533076841  1.0000
  C   C58       1.0  0.12771606415324743  0.781537098659882  0.6869684702114114  1.0000
  C   C59       1.0  0.179385604342805  0.7555320909969083  0.7515299983178566  1.0000
  C   C60       1.0  0.25780458332283024  0.839765818611987  0.7997454429852695  1.0000
  C   C61       1.0  0.2843711587730908  0.9511085506489535  0.7832028994326733  1.0000
  C   C62       1.0  0.23444891192038145  0.9785604619287013  0.7184218740093016  1.0000
  C   C63       1.0  0.4104026272759358  0.1407544159089582  0.8087735733297521  1.0000
  C   C64       1.0  0.47892756339313547  0.16953975129584362  0.7400932578149907  1.0000
  C   C65       1.0  0.5313388471964373  0.2803881930789984  0.7149076411614033  1.0000
  C   C66       1.0  0.5149586384705318  0.36126033618563735  0.7583914222661364  1.0000
  C   C67       1.0  0.448419683522495  0.3330145891888918  0.8277914980351184  1.0000
  C   C68       1.0  0.39541386283716673  0.22174501596979476  0.8530056116975402  1.0000
  C   C69       1.0  0.6698012619294009  0.5419566000472147  0.7496501755092879  1.0000
  C   C70       1.0  0.7140922560658467  0.6483292865032908  0.7145286385243352  1.0000
  C   C71       1.0  0.8224263473653438  0.7267768278456046  0.7342874296006627  1.0000
  C   C72       1.0  0.886271544006398  0.6997173627408557  0.7891034845186342  1.0000
  C   C73       1.0  0.8418341551091331  0.5926863621207161  0.8231117339291103  1.0000
  C   C74       1.0  0.7331316646127775  0.512976021099135  0.8031140315577261  1.0000
  C   C75       1.0  0.9082644593116813  0.5616807289500086  0.8825961880449  1.0000
  C   C76       1.0  0.33578098105948595  0.7481902932469995  0.9923632458859544  1.0000
  C   C77       1.0  0.43911739411573353  0.8419323994793759  0.9915729634706949  1.0000
  C   C78       1.0  0.445738507488514  0.9489519130285163  0.0013406533508942  1.0000
  C   C79       1.0  0.34398391979573273  0.9537638087704894  0.0135035306165321  1.0000
  C   C80       1.0  0.24363765732326942  0.8564720423977905  0.0136255971312167  1.0000
  C   C81       1.0  0.9013859964576626  0.5747352042580828  0.10405590904952791  1.0000
  C   C82       1.0  0.8444615850951536  0.6065156359889913  0.1704516001759018  1.0000
  C   C83       1.0  0.8722831804991176  0.7184623771678603  0.18697413424786902  1.0000
  C   C84       1.0  0.8206144086979708  0.7444698311467806  0.2515361759090808  1.0000
  C   C85       1.0  0.7421959650967127  0.6602349970282334  0.29974910979611735  1.0000
  C   C86       1.0  0.7156288591458164  0.5488945918894998  0.2832053568377759  1.0000
  C   C87       1.0  0.7655525906843155  0.5214418841037017  0.2184250171001949  1.0000
  C   C88       1.0  0.5895979033099652  0.35924879718957203  0.30877447837335137  1.0000
  C   C89       1.0  0.5210721511889888  0.33046096655494495  0.2400937580127191  1.0000
  C   C90       1.0  0.46865719282551066  0.2196097469536085  0.2149098616148208  1.0000
  C   C91       1.0  0.4850353094000256  0.138738991474554  0.2583939551111953  1.0000
  C   C92       1.0  0.5515825779910061  0.1669905112167882  0.3277913935034604  1.0000
  C   C93       1.0  0.6045886901727898  0.2782603839913521  0.3530062166327427  1.0000
  C   C94       1.0  0.33018934566191405  0.9580395342164822  0.24964986677603918  1.0000
  C   C95       1.0  0.2859016681680657  0.851666385700014  0.21453070914543557  1.0000
  C   C96       1.0  0.17756740000461957  0.7732165646180179  0.2342881071517269  1.0000
  C   C97       1.0  0.11372394286600966  0.8002758278558706  0.2891040247927492  1.0000
  C   C98       1.0  0.15815612990936495  0.9073064600618109  0.3231086856359653  1.0000
  C   C99       1.0  0.2668591997887263  0.9870215924565643  0.3031123834513636  1.0000
  C   C100      1.0  0.09173142987403801  0.9383186192140658  0.3825924032670187  1.0000
  N   N1        1.0  0.23901513600254282  0.2550724345086266  0.49763192618639357  1.0000
  N   N2        1.0  0.7609889569064663  0.24492460782201425  0.9976292622713885  1.0000
  N   N3        1.0  0.7609879725618925  0.7449171398038317  0.5023734179323966  1.0000
  N   N4        1.0  0.2390150722216333  0.7550783918962481  0.002367592771634  1.0000
  O   O1        1.0  0.9927606104523364  0.15080670534172214  0.4235439234968297  1.0000
  O   O2        1.0  0.854286710615007  0.9727351854416499  0.41835377828495973  1.0000
  O   O3        1.0  0.6418489956916388  0.9689148898128508  0.164129432002369  1.0000
  O   O4        1.0  0.4398853536634349  0.5299265581722423  0.2710932270058422  1.0000
  O   O5        1.0  0.13600981978215299  0.5395566352662727  0.09311849609032662  1.0000
  O   O6        1.0  0.9970410253291889  0.3618857524688793  0.09522756281923962  1.0000
  O   O7        1.0  0.007249776082296907  0.349195249251352  0.9235495952578674  1.0000
  O   O8        1.0  0.1457107198013503  0.5272654137859618  0.9183579692527103  1.0000
  O   O9        1.0  0.35814332814469924  0.5310877539435311  0.6641320722161836  1.0000
  O   O10       1.0  0.5601167358329492  0.9700747342937958  0.7710937864479561  1.0000
  O   O11       1.0  0.8639928950797117  0.9604483889694536  0.5931153886158427  1.0000
  O   O12       1.0  0.002957058519804403  0.138116602931575  0.5952268201026599  1.0000
  O   O13       1.0  0.007239947256003584  0.8491870985795273  0.5764577824372878  1.0000
  O   O14       1.0  0.14571648592692552  0.027261106016098314  0.5816406512821644  1.0000
  O   O15       1.0  0.3581550994949509  0.031093147841815508  0.8358722739705868  1.0000
  O   O16       1.0  0.5601066969048318  0.47007154703754134  0.7288993834483506  1.0000
  O   O17       1.0  0.863986063543692  0.4604498216864884  0.9068826034977063  1.0000
  O   O18       1.0  0.002942606258763234  0.6381233713620278  0.904776568574107  1.0000
  O   O19       1.0  0.9927621037474951  0.650810175406548  0.0764654507510727  1.0000
  O   O20       1.0  0.8542847802606559  0.47274020800475114  0.0816443430623366  1.0000
  O   O21       1.0  0.6418464668958637  0.46890869893501747  0.3358738782558603  1.0000
  O   O22       1.0  0.4398861434650811  0.029925759898688398  0.2289000367630578  1.0000
  O   O23       1.0  0.1360106627404534  0.039547058373031505  0.4068820727742448  1.0000
  O   O24       1.0  0.9970505612086811  0.8618762761549948  0.4047706412899076  1.0000
