data_image0
_chemical_formula_structural       Rb4H20C24Cl8O24
_chemical_formula_sum              "Rb4 H20 C24 Cl8 O24"
_cell_length_a       7.390106625630537
_cell_length_b       9.07670814807461
_cell_length_c       14.919513676055525
_cell_angle_alpha    95.38112782259047
_cell_angle_beta     89.99248866091558
_cell_angle_gamma    89.99876434816316

_space_group_name_H-M_alt    "P 1"
_space_group_IT_number       1

loop_
  _space_group_symop_operation_xyz
  'x, y, z'

loop_
  _atom_site_type_symbol
  _atom_site_label
  _atom_site_symmetry_multiplicity
  _atom_site_fract_x
  _atom_site_fract_y
  _atom_site_fract_z
  _atom_site_occupancy
  Rb  Rb1       1.0  0.059888449383684886  0.48020468220094176  0.658402220725172  1.0000
  Rb  Rb2       1.0  0.5599179263559221  0.019783893572451902  0.841588571114066  1.0000
  Rb  Rb3       1.0  0.9401033567424052  0.5197833731963969  0.3415978593332625  1.0000
  Rb  Rb4       1.0  0.44010364977634703  0.980214035882902  0.15840797390626443  1.0000
  H   H1        1.0  0.5346805732389298  0.4444620030200284  0.6584687288383434  1.0000
  H   H2        1.0  0.034709751248918494  0.0555214180339831  0.84151813775658  1.0000
  H   H3        1.0  0.46530446679645365  0.555537117529312  0.3415318976273198  1.0000
  H   H4        1.0  0.9653145304901116  0.9444710771319363  0.15848283114576128  1.0000
  H   H5        1.0  0.45396431348359556  0.38626585646728273  0.7616729754457409  1.0000
  H   H6        1.0  0.9539619492912337  0.11371683247193691  0.7383230081854463  1.0000
  H   H7        1.0  0.5460383178468645  0.6137299303494715  0.2383268157649923  1.0000
  H   H8        1.0  0.04603797522057109  0.8862745985352587  0.26167991962572046  1.0000
  H   H9        1.0  0.719562034884369  0.43441578029899125  0.5602032681769558  1.0000
  H   H10       1.0  0.21955231895099558  0.06558202188103479  0.9397848613912314  1.0000
  H   H11       1.0  0.28042977114085926  0.5655855251240283  0.43979612538142016  1.0000
  H   H12       1.0  0.7804733163812898  0.9344126301296212  0.06021353269554908  1.0000
  H   H13       1.0  0.6558960262003736  0.6020253881315725  0.5731559982583576  1.0000
  H   H14       1.0  0.1559175805622033  0.897970440889253  0.9268349469640923  1.0000
  H   H15       1.0  0.34408766131651447  0.3979725557216014  0.426841218557513  1.0000
  H   H16       1.0  0.8441067013643958  0.1020242392142379  0.07316478917118727  1.0000
  H   H17       1.0  0.5674121513947696  0.729969818598086  0.33509939717144727  1.0000
  H   H18       1.0  0.0673915371920586  0.7700297824743387  0.16490153704094007  1.0000
  H   H19       1.0  0.43256341715938623  0.2700281253317627  0.6648978198127011  1.0000
  H   H20       1.0  0.9326408630553119  0.22996607426141943  0.8351016086039065  1.0000
  C   C1        1.0  0.7068634778524653  0.10161679914461531  0.4234317058144724  1.0000
  C   C2        1.0  0.20683146467019498  0.3983733568800858  0.07656143710472918  1.0000
  C   C3        1.0  0.2930972058574072  0.8983888764474489  0.5765652228548603  1.0000
  C   C4        1.0  0.7932131141078074  0.6016191802142358  0.9234415444076018  1.0000
  C   C5        1.0  0.8041074169674403  0.17528100610496009  0.49586844483042103  1.0000
  C   C6        1.0  0.3041205772549985  0.32472626389354536  0.004128304807459002  1.0000
  C   C7        1.0  0.1958559718371191  0.8247248098618128  0.5041351938851051  1.0000
  C   C8        1.0  0.695907763561607  0.6752817223573971  0.9958734287845415  1.0000
  C   C9        1.0  0.663727639300113  0.9508451563831246  0.4170265217359414  1.0000
  C   C10       1.0  0.1637011465039961  0.5491603431124901  0.08296946035111567  1.0000
  C   C11       1.0  0.3362330442512018  0.04917598225225111  0.582969829686732  1.0000
  C   C12       1.0  0.83633125408965  0.45084099000722233  0.9170312743863177  1.0000
  C   C13       1.0  0.807314991167118  0.9371665787270447  0.5697778707905811  1.0000
  C   C14       1.0  0.30741169763697235  0.5628457058195407  0.9302318810509076  1.0000
  C   C15       1.0  0.19263351330523193  0.06284139423780737  0.430223193445947  1.0000
  C   C16       1.0  0.6926125838424823  0.43715674792568393  0.06976957949173367  1.0000
  C   C17       1.0  0.7144921179473654  0.8619466219666166  0.4958927683720161  1.0000
  C   C18       1.0  0.21453330561369907  0.638065916381514  0.004113568518143009  1.0000
  C   C19       1.0  0.2854645055453986  0.13805913790393734  0.5041081864428276  1.0000
  C   C20       1.0  0.7854990948284879  0.3619365372870361  0.9958878918562204  1.0000
  C   C21       1.0  0.8558975467351501  0.08715649260879128  0.5749062760526156  1.0000
  C   C22       1.0  0.35596794376228047  0.4128457800547452  0.9250959873283617  1.0000
  C   C23       1.0  0.14405637034293053  0.912848174818535  0.4250952952018493  1.0000
  C   C24       1.0  0.644056337003029  0.5871512394266034  0.07490989715238068  1.0000
  Cl  Cl1       1.0  0.8555687125049829  0.8391471417420034  0.6604513011880895  1.0000
  Cl  Cl2       1.0  0.3557614529559102  0.6608721164898982  0.8395635408666704  1.0000
  Cl  Cl3       1.0  0.14438249927633257  0.1608463763826151  0.3395456977940937  1.0000
  Cl  Cl4       1.0  0.6442628290789685  0.3391324800728199  0.1604346738782283  1.0000
  Cl  Cl5       1.0  0.6415386328809731  0.20495633736617694  0.3377684524366486  1.0000
  Cl  Cl6       1.0  0.14142342213079218  0.29503353956727807  0.16220788622685225  1.0000
  Cl  Cl7       1.0  0.35842881554208356  0.7950582885126637  0.6622336101776511  1.0000
  Cl  Cl8       1.0  0.8586143912561467  0.7049666729524874  0.8377921227614633  1.0000
  O   O1        1.0  0.9391241043801202  0.15737746154857038  0.6402040247156862  1.0000
  O   O2        1.0  0.43921124598487177  0.3426264181801528  0.8597882420643469  1.0000
  O   O3        1.0  0.0608406378444712  0.8426183958261219  0.3597991223314878  1.0000
  O   O4        1.0  0.5608238606628575  0.6573804614980788  0.1402134367607246  1.0000
  O   O5        1.0  0.8480820970896515  0.31027660571346877  0.4998776307977764  1.0000
  O   O6        1.0  0.3480864434452399  0.1897252533414502  0.0001096964993152015  1.0000
  O   O7        1.0  0.15189752951049942  0.6897248121447603  0.5001271310948496  1.0000
  O   O8        1.0  0.6519283665241317  0.8102771302930948  0.9998884091885074  1.0000
  O   O9        1.0  0.5804269057032696  0.8850682057893164  0.3499539758262884  1.0000
  O   O10       1.0  0.080357464590243  0.6149365561179181  0.1500406539325283  1.0000
  O   O11       1.0  0.4195432502019755  0.11494408068611511  0.6500419383864581  1.0000
  O   O12       1.0  0.9196844069941575  0.38506600978138295  0.8499661743273349  1.0000
  O   O13       1.0  0.6692322656062615  0.7277671072430182  0.4899967357066827  1.0000
  O   O14       1.0  0.16926672494013673  0.7722417055175298  0.010003877882716901  1.0000
  O   O15       1.0  0.3307365387108518  0.27223176073919564  0.5099918129114229  1.0000
  O   O16       1.0  0.8307521437964596  0.22775524381479784  0.9899986516590713  1.0000
  O   O17       1.0  0.6710849212648426  0.5116193335328135  0.6056859372760711  1.0000
  O   O18       1.0  0.17110713787715778  0.9883750880597404  0.8943036526629341  1.0000
  O   O19       1.0  0.3289041784971544  0.488379758898141  0.3943133470849958  1.0000
  O   O20       1.0  0.8289198506155911  0.011619563938140199  0.10569474139580139  1.0000
  O   O21       1.0  0.4391124429734178  0.3837204415307837  0.6928427924171598  1.0000
  O   O22       1.0  0.9391471291941755  0.11627364881455553  0.80715703641593  1.0000
  O   O23       1.0  0.5608739497968712  0.6162809341434752  0.3071599563045381  1.0000
  O   O24       1.0  0.060873092731718294  0.8837221939961851  0.19284543847111013  1.0000
