data_image0
_chemical_formula_structural       P2H20PbC18O8
_chemical_formula_sum              "P2 H20 Pb1 C18 O8"
_cell_length_a       5.175551165876148
_cell_length_b       8.490167170749926
_cell_length_c       12.135916287256999
_cell_angle_alpha    110.57165870136876
_cell_angle_beta     99.09934875288415
_cell_angle_gamma    89.96304122617869

_space_group_name_H-M_alt    "P 1"
_space_group_IT_number       1

loop_
  _space_group_symop_operation_xyz
  'x, y, z'

loop_
  _atom_site_type_symbol
  _atom_site_label
  _atom_site_symmetry_multiplicity
  _atom_site_fract_x
  _atom_site_fract_y
  _atom_site_fract_z
  _atom_site_occupancy
  P   P1        1.0  0.6122997498458461  0.571129392192091  0.18164519967156417  1.0000
  P   P2        1.0  0.3875553856503302  0.3888061238675674  0.8185090011799971  1.0000
  H   H1        1.0  0.36644112135171264  0.8155869446183103  0.36299071769632  1.0000
  H   H2        1.0  0.6337264419627785  0.45161709496852603  0.6374899219708254  1.0000
  H   H3        1.0  0.4678671839435892  0.9288503259872627  0.58334587200941  1.0000
  H   H4        1.0  0.5326609465905604  0.3442660836736878  0.4171056907007582  1.0000
  H   H5        1.0  0.8564142422247869  0.8318553499343293  0.6900859479203304  1.0000
  H   H6        1.0  0.1439419103903745  0.14078147906521812  0.30998604298789445  1.0000
  H   H7        1.0  0.1447711787372157  0.6302132569153611  0.573323685440613  1.0000
  H   H8        1.0  0.8557428015197529  0.0557538769819033  0.4263678717605615  1.0000
  H   H9        1.0  0.0511826748591417  0.5237109713916795  0.35182304141638815  1.0000
  H   H10       1.0  0.9485933684254988  0.17107424809903185  0.647862576764858  1.0000
  H   H11       1.0  0.28765720904272024  0.3912721462046349  0.2054707987122626  1.0000
  H   H12       1.0  0.7115156861997034  0.18429423714268714  0.7936904527445207  1.0000
  H   H13       1.0  0.33767133268673893  0.3277676008043428  0.057128660067206696  1.0000
  H   H14       1.0  0.6632591312645673  0.2696782469707769  0.9423161587317708  1.0000
  H   H15       1.0  0.7824037091182133  0.21951736440833255  0.11457979330187835  1.0000
  H   H16       1.0  0.2176010604372536  0.1048551204465156  0.8853945646821016  1.0000
  H   H17       1.0  0.7377985082313927  0.2866440096505585  0.2635511184477934  1.0000
  H   H18       1.0  0.2615691697800742  0.022039128700065202  0.7363552718146805  1.0000
  H   H19       1.0  0.5523370716661803  0.8602635304010277  0.1723270004688757  1.0000
  H   H20       1.0  0.44722028736580194  0.6872997533853463  0.8279741907524141  1.0000
  Pb  Pb1       1.0  0.9998576836241568  0.682170544172102  0.00019581066878516498  1.0000
  C   C1        1.0  0.7000816315053767  0.6605567826877632  0.342615514276808  1.0000
  C   C2        1.0  0.299881559815006  0.31713977422572265  0.6575095344879429  1.0000
  C   C3        1.0  0.5377193164662019  0.7757044669678449  0.40904686042668453  1.0000
  C   C4        1.0  0.4624812535139142  0.36566893850567783  0.5912792742334787  1.0000
  C   C5        1.0  0.5952703360927815  0.8386010419391922  0.5334962655590658  1.0000
  C   C6        1.0  0.4052062725575637  0.3039865898408891  0.46681689134467047  1.0000
  C   C7        1.0  0.8120321567232622  0.7852602836219518  0.5927821060529865  1.0000
  C   C8        1.0  0.1884357094337759  0.1913782427219957  0.40731346967572796  1.0000
  C   C9        1.0  0.9748575587721433  0.6709923361684247  0.5271442099312864  1.0000
  C   C10       1.0  0.025546703380122396  0.1427678514187534  0.47271600958374194  1.0000
  C   C11       1.0  0.9205526377442579  0.610098755312073  0.4026301933356891  1.0000
  C   C12       1.0  0.07948206584580927  0.2065798912095075  0.5972759534932521  1.0000
  C   C13       1.0  0.44143341487403376  0.3698244898368585  0.14973763083280997  1.0000
  C   C14       1.0  0.5584994158616254  0.21904777524945726  0.8498841258927143  1.0000
  C   C15       1.0  0.6299224708087647  0.24170202371075075  0.17144239884724038  1.0000
  C   C16       1.0  0.3698337329589378  0.06948503369577709  0.8283994939898065  1.0000
  C   C17       1.0  0.498306255917214  0.07208648465068988  0.147976912730087  1.0000
  C   C18       1.0  0.5013151795575652  0.9233201616344642  0.8518895215609134  1.0000
  O   O1        1.0  0.8596343742217057  0.5418234824879844  0.12433125724098905  1.0000
  O   O2        1.0  0.1403841488902273  0.41692829378662566  0.8759253671527674  1.0000
  O   O3        1.0  0.4228083882574366  0.6897016391951354  0.14343566800978638  1.0000
  O   O4        1.0  0.5769905731133064  0.5456428328220395  0.8569800504286319  1.0000
  O   O5        1.0  0.2707569965633497  0.028043891587209695  0.0954621427868858  1.0000
  O   O6        1.0  0.7289786393500108  0.9318264496126855  0.9042767395391917  1.0000
  O   O7        1.0  0.6545962235378439  0.9742768998942919  0.19015720144066964  1.0000
  O   O8        1.0  0.344906271278944  0.7833192603451307  0.8099518934020155  1.0000
