data_image0
_chemical_formula_structural       Zr6H20C100N32O32
_chemical_formula_sum              "Zr6 H20 C100 N32 O32"
_cell_length_a       15.326627142071159
_cell_length_b       17.719420416300295
_cell_length_c       17.728448730016837
_cell_angle_alpha    91.84842937337106
_cell_angle_beta     89.97086161647448
_cell_angle_gamma    90.02009347158081

_space_group_name_H-M_alt    "P 1"
_space_group_IT_number       1

loop_
  _space_group_symop_operation_xyz
  'x, y, z'

loop_
  _atom_site_type_symbol
  _atom_site_label
  _atom_site_symmetry_multiplicity
  _atom_site_fract_x
  _atom_site_fract_y
  _atom_site_fract_z
  _atom_site_occupancy
  Zr  Zr1       1.0  0.004855190140489199  0.14186800763877727  0.0015662650158247994  1.0000
  Zr  Zr2       1.0  0.008685956480199798  0.9953300745486545  0.8562357300086347  1.0000
  Zr  Zr3       1.0  0.0074825933823917  0.004473755095950998  0.1441084470376524  1.0000
  Zr  Zr4       1.0  0.0062376176247838  0.8593295640316043  0.0010643084930208983  1.0000
  Zr  Zr5       1.0  0.843755839323684  0.9999459985095955  0.0005839341910701122  1.0000
  Zr  Zr6       1.0  0.16937118488613828  0.000580872225477  0.001152143320283  1.0000
  H   H1        1.0  0.1309559276755436  0.11536241133170928  0.8903994439845564  1.0000
  H   H2        1.0  0.8890579227097034  0.882687773554501  0.8790148858328736  1.0000
  H   H3        1.0  0.1307088120163158  0.8846536308887494  0.1124701807211892  1.0000
  H   H4        1.0  0.8819521667040675  0.11505114054077842  0.11841112096601591  1.0000
  H   H5        1.0  0.0433155349297749  0.88282607086515  0.7542089619480947  1.0000
  H   H6        1.0  0.06350295972939789  0.7514048722937118  0.8894229592333291  1.0000
  H   H7        1.0  0.9693770575999776  0.7546958189365539  0.10302953619963522  1.0000
  H   H8        1.0  0.0098498796569473  0.8493585766189398  0.16654662747735222  1.0000
  H   H9        1.0  0.0453179961852186  0.1169133746384787  0.2476792534490855  1.0000
  H   H10       1.0  0.008756360600969498  0.1705782661045774  0.15556551569225976  1.0000
  H   H11       1.0  0.9636717273530877  0.24397504148601712  0.8978857723964355  1.0000
  H   H12       1.0  0.008648970399121898  0.1505483362818723  0.8349684428678901  1.0000
  H   H13       1.0  0.9616361856994188  0.8827180324683042  0.24105745068327172  1.0000
  H   H14       1.0  0.9642936751934101  0.24746610658388576  0.1271143257477476  1.0000
  H   H15       1.0  0.9645940250832793  0.11673738277382029  0.7586986569587425  1.0000
  H   H16       1.0  0.9592901511159154  0.7456542191638107  0.8765943720180973  1.0000
  H   H17       1.0  0.3437359711753059  0.5007753290142745  0.006600647520102102  1.0000
  H   H18       1.0  0.6643980592780777  0.49959058848606464  0.004122940729239097  1.0000
  H   H19       1.0  0.34653049814151154  0.9986910313417283  0.5017772352191088  1.0000
  H   H20       1.0  0.6670637616228916  0.9981613944370619  0.500833368403768  1.0000
  C   C1        1.0  0.7936536436780344  0.1773870419939456  0.9978172940741388  1.0000
  C   C2        1.0  0.22162040206229958  0.9955469697396212  0.8260920514409591  1.0000
  C   C3        1.0  0.7928028674512646  0.0018735185799342998  0.8265923685096868  1.0000
  C   C4        1.0  0.21754690263447427  0.17612204936616388  0.011251828089868403  1.0000
  C   C5        1.0  0.2179653000431614  0.004871070984606299  0.1786680388738944  1.0000
  C   C6        1.0  0.7937823235873581  0.8231828381173969  0.006501681052796499  1.0000
  C   C7        1.0  0.22096828521129194  0.8253940500982465  0.9901753674771573  1.0000
  C   C8        1.0  0.794885568868338  0.9990926621937389  0.1774974234908981  1.0000
  C   C9        1.0  0.45772375946498295  0.4309445698915156  0.006132390404232501  1.0000
  C   C10       1.0  0.5498147274742066  0.43061335406599  0.005256418287288504  1.0000
  C   C11       1.0  0.5934394710697788  0.499868888960201  0.004461402287333303  1.0000
  C   C12       1.0  0.5505248253561207  0.5693914200839743  0.0038590996825576076  1.0000
  C   C13       1.0  0.45839984141070284  0.5696871916971984  0.0044169310410779985  1.0000
  C   C14       1.0  0.41474137975289693  0.5005187070447689  0.005979135949253597  1.0000
  C   C15       1.0  0.46098858620032246  0.9970313371080123  0.570732114074552  1.0000
  C   C16       1.0  0.5531115851491036  0.9977601906510286  0.5705796021912664  1.0000
  C   C17       1.0  0.5960818037730107  0.9983228456965564  0.50105069072535  1.0000
  C   C18       1.0  0.5526572058388338  0.9993570672233288  0.43177862414864177  1.0000
  C   C19       1.0  0.4605273684085488  0.0004456188622939001  0.4320216925292186  1.0000
  C   C20       1.0  0.41751548902832514  0.9986702113058358  0.5015103717961438  1.0000
  C   C21       1.0  0.28580347300155035  0.005658601930562701  0.24029227191918068  1.0000
  C   C22       1.0  0.3538447385711477  0.9527957862287761  0.24059185151257623  1.0000
  C   C23       1.0  0.41049622082738313  0.9494110086192931  0.3039521176866558  1.0000
  C   C24       1.0  0.40437549411781487  0.0030402500710877997  0.3641378392210015  1.0000
  C   C25       1.0  0.3382782858447442  0.0585917561223113  0.3612090221901668  1.0000
  C   C26       1.0  0.2781872618649145  0.05832914207913831  0.3009655873429438  1.0000
  C   C27       1.0  0.36712590764179254  0.8997635276575195  0.17938224479983236  1.0000
  C   C28       1.0  0.3296157260767315  0.11499088325179228  0.4200057976096262  1.0000
  C   C29       1.0  0.2101678353502905  0.11326836252727193  0.3017489003445135  1.0000
  C   C30       1.0  0.4702604392545169  0.8880693023242755  0.3077535643136571  1.0000
  C   C31       1.0  0.608936259322995  0.9990666144372609  0.36371810900446633  1.0000
  C   C32       1.0  0.6736564342572818  0.9425066058591726  0.3550989594638025  1.0000
  C   C33       1.0  0.7330832291884589  0.9433592723010946  0.29444019763458584  1.0000
  C   C34       1.0  0.7277627884125621  0.9988755419737672  0.23979335781533004  1.0000
  C   C35       1.0  0.6630684540373722  0.054553080519767094  0.24699757393656804  1.0000
  C   C36       1.0  0.6050125276189888  0.0555939287993041  0.3096628324344195  1.0000
  C   C37       1.0  0.6815335314434706  0.8841059353758141  0.4082142650341538  1.0000
  C   C38       1.0  0.6578901847864173  0.11323133113504721  0.1939022661059724  1.0000
  C   C39       1.0  0.545472801902136  0.11690766989520539  0.3191908505122712  1.0000
  C   C40       1.0  0.7987464526465329  0.8865263992925919  0.2884196121772362  1.0000
  C   C41       1.0  0.2894947104190706  0.9938539049259064  0.7645637688948315  1.0000
  C   C42       1.0  0.35606046417505144  0.04790637958006978  0.7620499039746138  1.0000
  C   C43       1.0  0.41203218938899516  0.0501965092597132  0.6981383367598257  1.0000
  C   C44       1.0  0.40556551304295846  0.9952572454954589  0.6391772151740228  1.0000
  C   C45       1.0  0.3402739419600779  0.9390820074591987  0.6439466280435086  1.0000
  C   C46       1.0  0.28195173582206207  0.9393873778678948  0.7054592795817314  1.0000
  C   C47       1.0  0.367352148575577  0.10316611367186111  0.8215853364893846  1.0000
  C   C48       1.0  0.3307821781359976  0.8821577192486529  0.5857484677447076  1.0000
  C   C49       1.0  0.21629719378574205  0.8824603430893844  0.7087332372013722  1.0000
  C   C50       1.0  0.471337673620404  0.1117253245573053  0.6925777640897409  1.0000
  C   C51       1.0  0.7260308208990978  0.0012534083164866  0.7640624031960928  1.0000
  C   C52       1.0  0.7327399046627717  0.05540703741157671  0.7080727289273341  1.0000
  C   C53       1.0  0.6741313331846187  0.055246405398165194  0.6468325371784402  1.0000
  C   C54       1.0  0.6092302656736167  0.9987249705283715  0.6387172671275039  1.0000
  C   C55       1.0  0.6046133925130944  0.9430807442883451  0.6936388778842899  1.0000
  C   C56       1.0  0.6614816190506686  0.9453930301043486  0.7571085151331048  1.0000
  C   C57       1.0  0.7990700452656369  0.11183035633919759  0.712677519230006  1.0000
  C   C58       1.0  0.5458499432101929  0.881150494352397  0.684176656759071  1.0000
  C   C59       1.0  0.6552424737231988  0.8873705485744451  0.8108935099310772  1.0000
  C   C60       1.0  0.6830994335166806  0.11239157804294561  0.5924221481533749  1.0000
  C   C61       1.0  0.40345231502345763  0.6383674237174546  0.0020081862671049  1.0000
  C   C62       1.0  0.3394714829459531  0.6516503594565249  0.058469161487806814  1.0000
  C   C63       1.0  0.2838832903027537  0.7148832191142489  0.0557085507287596  1.0000
  C   C64       1.0  0.2887485289627491  0.764029467254538  0.9951470960829101  1.0000
  C   C65       1.0  0.3534172240414648  0.75286634271081  0.9402431070748989  1.0000
  C   C66       1.0  0.41021187219238436  0.689643532139371  0.9431650051579653  1.0000
  C   C67       1.0  0.3290259955574442  0.6007817914441702  0.11858614335110933  1.0000
  C   C68       1.0  0.3622085979954761  0.8044099391035501  0.8806177081546026  1.0000
  C   C69       1.0  0.47134916480072764  0.6772567982460344  0.8835170506785418  1.0000
  C   C70       1.0  0.2268838496741026  0.7331612097137921  0.11718906004409041  1.0000
  C   C71       1.0  0.6065949334091059  0.6375128723752181  0.0029908018730821985  1.0000
  C   C72       1.0  0.5998348575769157  0.6967441112096397  0.05773817829257412  1.0000
  C   C73       1.0  0.6569370387637078  0.7600257231319744  0.056687253816406304  1.0000
  C   C74       1.0  0.72514205378107  0.7619718574146076  0.004167155832362801  1.0000
  C   C75       1.0  0.7324226697471373  0.7028241793159041  0.9497422410744321  1.0000
  C   C76       1.0  0.6733932413985995  0.6417655527403382  0.9481448012888195  1.0000
  C   C77       1.0  0.5391630953307214  0.6923883103112658  0.11835127778858381  1.0000
  C   C78       1.0  0.7998826846621298  0.7052281283619309  0.8945629316012856  1.0000
  C   C79       1.0  0.6849336628278448  0.5834820728648253  0.8916034557680846  1.0000
  C   C80       1.0  0.6450766970595723  0.819739370419235  0.11160667377184551  1.0000
  C   C81       1.0  0.2855382002138214  0.23753013356032676  0.008838810126803799  1.0000
  C   C82       1.0  0.3505395681466368  0.24601987169687323  0.0638830149721983  1.0000
  C   C83       1.0  0.4081155754198278  0.3089218328814384  0.06335908683645641  1.0000
  C   C84       1.0  0.40188869597061927  0.3626327418355544  0.006724077276253102  1.0000
  C   C85       1.0  0.3374870430762513  0.35220112856757163  0.9501816131787777  1.0000
  C   C86       1.0  0.2808685864489817  0.289464828035058  0.9506673673207688  1.0000
  C   C87       1.0  0.3592167875283891  0.19243026357737136  0.12172044637507182  1.0000
  C   C88       1.0  0.32757888891840276  0.40557115949128075  0.8921946567260834  1.0000
  C   C89       1.0  0.2228520537349041  0.2757010266088287  0.8888994268319552  1.0000
  C   C90       1.0  0.4698145531411199  0.3185309627653937  0.12297367721559033  1.0000
  C   C91       1.0  0.7252533409422525  0.2387226296176834  0.0008020635182575005  1.0000
  C   C92       1.0  0.6566108450807634  0.24103769276986495  0.9487635510295009  1.0000
  C   C93       1.0  0.5989782729719622  0.30399276453972124  0.949011462324556  1.0000
  C   C94       1.0  0.6056620922759136  0.3623092468197981  0.004700795510281402  1.0000
  C   C95       1.0  0.6729621540146978  0.35766870633869274  0.058908234913005224  1.0000
  C   C96       1.0  0.732995694643634  0.29741485203562956  0.05566387097533721  1.0000
  C   C97       1.0  0.6452500701516753  0.18234001069137656  0.8926848414953383  1.0000
  C   C98       1.0  0.6837364759186568  0.4149886457137342  0.11654416320581622  1.0000
  C   C99       1.0  0.8018647165048023  0.2963577137565777  0.10955045665376423  1.0000
  C   C100      1.0  0.5378567835929432  0.30923349454121046  0.8888973894647167  1.0000
  N   N1        1.0  0.15409358760270206  0.1578261562630487  0.3031708363754647  1.0000
  N   N2        1.0  0.5183496823482585  0.8372220118952853  0.31148677053841584  1.0000
  N   N3        1.0  0.3196746564665887  0.159837975766699  0.46898398915269734  1.0000
  N   N4        1.0  0.3827996655771101  0.8554705290640569  0.131166887483694  1.0000
  N   N5        1.0  0.496929289663548  0.1673503831118808  0.3270667282589415  1.0000
  N   N6        1.0  0.8532407975235755  0.8406567057622495  0.2834169280237546  1.0000
  N   N7        1.0  0.6541603695381751  0.1623583022638115  0.1517519497168749  1.0000
  N   N8        1.0  0.6917348637962349  0.8375564693282201  0.452529467966805  1.0000
  N   N9        1.0  0.1629129653889052  0.8357420924701344  0.7124487052236648  1.0000
  N   N10       1.0  0.5192417841686278  0.16263816271753487  0.6878618299692436  1.0000
  N   N11       1.0  0.3198649331804759  0.837250030690967  0.5370003864205373  1.0000
  N   N12       1.0  0.37966971681809275  0.1489538641109647  0.8691631234651427  1.0000
  N   N13       1.0  0.6500400220380698  0.8382894047623141  0.8530053892128963  1.0000
  N   N14       1.0  0.6939615951183882  0.1576010157157057  0.5468470186964396  1.0000
  N   N15       1.0  0.4982237226361334  0.8300434481770723  0.6762729450026514  1.0000
  N   N16       1.0  0.8536535214033022  0.15777429940557394  0.7153085466106717  1.0000
  N   N17       1.0  0.521513038675998  0.6678343445073551  0.8344928735280066  1.0000
  N   N18       1.0  0.1844608807976869  0.7534186043653506  0.16868401972346456  1.0000
  N   N19       1.0  0.37036033989789274  0.8471280824899239  0.8324026802433339  1.0000
  N   N20       1.0  0.3164877583022374  0.5572164333966254  0.16543711231832964  1.0000
  N   N21       1.0  0.6991806700021072  0.5349048771813899  0.8472225518634815  1.0000
  N   N22       1.0  0.6323774677675401  0.8676264630448287  0.15696045979986914  1.0000
  N   N23       1.0  0.8559079995177541  0.70845609145627  0.8502652941485495  1.0000
  N   N24       1.0  0.4908922944607284  0.6893182358644623  0.1691472819689821  1.0000
  N   N25       1.0  0.17968995745049907  0.26117976187055797  0.8361439456749694  1.0000
  N   N26       1.0  0.5207463103052203  0.3259703201768218  0.17164571708953963  1.0000
  N   N27       1.0  0.3155993661835764  0.4512111047412474  0.8472615502400913  1.0000
  N   N28       1.0  0.3683045051050156  0.1489125996153433  0.1690848571498336  1.0000
  N   N29       1.0  0.8589042893210318  0.2959681188066554  0.1530548313556466  1.0000
  N   N30       1.0  0.48897264401792023  0.3135968750557083  0.8387200549484533  1.0000
  N   N31       1.0  0.696632516335022  0.4629433207712238  0.1619018922806674  1.0000
  N   N32       1.0  0.633375123563347  0.13537891182935624  0.8461963684766759  1.0000
  O   O1        1.0  0.8715057719795068  0.2017831761293323  0.9993024649154523  1.0000
  O   O2        1.0  0.7674645910002768  0.1097442464243557  0.9951116955304048  1.0000
  O   O3        1.0  0.1442050034169426  0.9924984839555933  0.8018420131679775  1.0000
  O   O4        1.0  0.24802815748075346  0.0005091490564339999  0.8938144637913581  1.0000
  O   O5        1.0  0.8700729200272689  0.010401545511548699  0.8044084107057756  1.0000
  O   O6        1.0  0.7655584867601348  0.9930270167600949  0.8934651414748488  1.0000
  O   O7        1.0  0.1401038297035129  0.19997026111963118  0.0127297396277228  1.0000
  O   O8        1.0  0.24466529306079107  0.10843407186284539  0.010161490733288802  1.0000
  O   O9        1.0  0.006785425675538201  0.20466279900009712  0.9047373607683014  1.0000
  O   O10       1.0  0.00784009512995  0.20902093986950374  0.1120287478369377  1.0000
  O   O11       1.0  0.0098652420560441  0.10562103417382215  0.7958581483727585  1.0000
  O   O12       1.0  0.9973771401673229  0.9099916062125433  0.7817499661664444  1.0000
  O   O13       1.0  0.9361983360844801  0.056586663224919696  0.9437943926494655  1.0000
  O   O14       1.0  0.0986731154549432  0.08067803154728638  0.9214950770841528  1.0000
  O   O15       1.0  0.1399511941004903  0.0079884205432492  0.20224919164394353  1.0000
  O   O16       1.0  0.24487720312985314  0.0002810157338259999  0.11122807087666332  1.0000
  O   O17       1.0  0.8714518942318036  0.7986297963187282  0.005838683722281198  1.0000
  O   O18       1.0  0.7675836795968038  0.8907430427029085  0.008139340277011803  1.0000
  O   O19       1.0  0.1436996634111267  0.8008749217364793  0.982829024475919  1.0000
  O   O20       1.0  0.24711096441205163  0.892946155737249  0.9954264747732684  1.0000
  O   O21       1.0  0.872777378254156  0.9936445647089229  0.2002213314404671  1.0000
  O   O22       1.0  0.7673267550144587  0.005132701647113399  0.11060020227465371  1.0000
  O   O23       1.0  0.008377747549786799  0.894732845251866  0.20545461052246594  1.0000
  O   O24       1.0  0.0025846358173779995  0.10453670630331402  0.2081742797932264  1.0000
  O   O25       1.0  0.011085131570055796  0.7953897525920297  0.0973250357714548  1.0000
  O   O26       1.0  0.0068253828226048  0.7682056812436996  0.9079435162352993  1.0000
  O   O27       1.0  0.09892590209674519  0.9191430296084065  0.08075301362755032  1.0000
  O   O28       1.0  0.9367966205725863  0.9426354480033364  0.058802971026864305  1.0000
  O   O29       1.0  0.07562161301586198  0.0592395708333413  0.060888936302532705  1.0000
  O   O30       1.0  0.916390237421801  0.9142501114428683  0.9182261873550032  1.0000
  O   O31       1.0  0.9133556361538311  0.0823371232656314  0.08273982074312872  1.0000
  O   O32       1.0  0.07799400311444767  0.9397147933246399  0.9405218864975851  1.0000
