data_image0
_chemical_formula_structural       Cd4H52C56N8O16
_chemical_formula_sum              "Cd4 H52 C56 N8 O16"
_cell_length_a       10.22776534800519
_cell_length_b       10.348894594781285
_cell_length_c       13.75989442027351
_cell_angle_alpha    109.25682719738874
_cell_angle_beta     89.99996699867518
_cell_angle_gamma    90.00011505202262

_space_group_name_H-M_alt    "P 1"
_space_group_IT_number       1

loop_
  _space_group_symop_operation_xyz
  'x, y, z'

loop_
  _atom_site_type_symbol
  _atom_site_label
  _atom_site_symmetry_multiplicity
  _atom_site_fract_x
  _atom_site_fract_y
  _atom_site_fract_z
  _atom_site_occupancy
  Cd  Cd1       1.0  0.630410220909944  0.9802905141205612  0.5981312791904188  1.0000
  Cd  Cd2       1.0  0.1304113477556186  0.0197103578829143  0.9018688062847532  1.0000
  Cd  Cd3       1.0  0.3695898857611084  0.0197098732488143  0.4018680908082786  1.0000
  Cd  Cd4       1.0  0.8695887589152774  0.9802910786443845  0.0981337263480953  1.0000
  H   H1        1.0  0.9954493835896513  0.49266253698807105  0.6101072322883069  1.0000
  H   H2        1.0  0.4954495525068339  0.5073349781058382  0.8898918809772454  1.0000
  H   H3        1.0  0.004551700808988799  0.5073347861833141  0.38989211802591944  1.0000
  H   H4        1.0  0.5045505541613905  0.4926623386588105  0.11010674101248705  1.0000
  H   H5        1.0  0.8621925143383959  0.46113422857930414  0.5242488624891877  1.0000
  H   H6        1.0  0.3621907257810193  0.5388619938528975  0.9757499922642339  1.0000
  H   H7        1.0  0.1378075923304962  0.5388641181259998  0.4757507371613272  1.0000
  H   H8        1.0  0.6378074254255636  0.4611353293155319  0.02424935804989303  1.0000
  H   H9        1.0  0.9901646018665601  0.26674905584083314  0.3976227599414273  1.0000
  H   H10       1.0  0.4901615384825462  0.7332511032160126  0.1023773595321273  1.0000
  H   H11       1.0  0.0098345270725986  0.733250314398397  0.6023770890453761  1.0000
  H   H12       1.0  0.5098366127259197  0.2667482670222299  0.8976224894546405  1.0000
  H   H13       1.0  0.11955408974559838  0.2983377013860604  0.4880179660128334  1.0000
  H   H14       1.0  0.6195524643045188  0.7016617091893238  0.01198212794144385  1.0000
  H   H15       1.0  0.8804460169247788  0.7016616560426455  0.5119804263250884  1.0000
  H   H16       1.0  0.3804476423641033  0.29833664392173626  0.9880182000335297  1.0000
  H   H17       1.0  0.9314730389688747  0.03420685753924599  0.6836454389594877  1.0000
  H   H18       1.0  0.4314741935586213  0.9657915262612845  0.8163510059393317  1.0000
  H   H19       1.0  0.0685300008942562  0.9657914379229808  0.3163483340954727  1.0000
  H   H20       1.0  0.568526890842989  0.0342078183569043  0.1836459297497086  1.0000
  H   H21       1.0  0.1157319791467373  0.18940789760751636  0.620794805984886  1.0000
  H   H22       1.0  0.6157302925617428  0.8105857607873901  0.8792013481518594  1.0000
  H   H23       1.0  0.8842691052504392  0.8105863229303623  0.3792001546980898  1.0000
  H   H24       1.0  0.3842698141035327  0.18940744262035028  0.1207940915192225  1.0000
  H   H25       1.0  0.6396978737678722  0.14570069187520568  0.44922957892659093  1.0000
  H   H26       1.0  0.13969802854191468  0.8543018428004954  0.05077272107267557  1.0000
  H   H27       1.0  0.3603012551735603  0.8543017617802631  0.5507724747180873  1.0000
  H   H28       1.0  0.8603020781302034  0.14570061085596103  0.9492293325720382  1.0000
  H   H29       1.0  0.7674922073488162  0.158177519548822  0.36585016645337015  1.0000
  H   H30       1.0  0.26749325055524753  0.8418262839438884  0.13415093503293465  1.0000
  H   H31       1.0  0.2325069215941085  0.8418259448300489  0.6341506798787151  1.0000
  H   H32       1.0  0.7325088115797198  0.15817718043793857  0.8658499112992502  1.0000
  H   H33       1.0  0.7130904071087086  0.3072797017423666  0.4659033265451598  1.0000
  H   H34       1.0  0.21309024718918573  0.6927229875619147  0.034099706832186875  1.0000
  H   H35       1.0  0.28690969956407747  0.6927237818547525  0.5340997047603365  1.0000
  H   H36       1.0  0.7869118149442966  0.3072794660965172  0.965902346812598  1.0000
  H   H37       1.0  0.1066666401358631  0.4602317076685409  0.8671758729912682  1.0000
  H   H38       1.0  0.6066685047132765  0.5397680928483695  0.6328239615126847  1.0000
  H   H39       1.0  0.8933334665336973  0.5397676689774328  0.13282470432002919  1.0000
  H   H40       1.0  0.3933325796896766  0.4602333116511446  0.36717492949791364  1.0000
  H   H41       1.0  0.1594828911231758  0.6464621030994164  0.7929575168225113  1.0000
  H   H42       1.0  0.659483343533239  0.35353884683564013  0.7070447556278835  1.0000
  H   H43       1.0  0.8405191710081467  0.35353830989495083  0.20704476647408404  1.0000
  H   H44       1.0  0.3405157854091385  0.6464646303547354  0.2929575473531187  1.0000
  H   H45       1.0  0.32867235158210667  0.6046840775250927  0.6569519383797696  1.0000
  H   H46       1.0  0.8286737619884689  0.3953182248284151  0.8430491384080341  1.0000
  H   H47       1.0  0.6713297105507082  0.39531734619266956  0.3430491376042326  1.0000
  H   H48       1.0  0.1713263446851343  0.6046852395514364  0.1569517079240939  1.0000
  H   H49       1.0  0.44335995740539147  0.3802811233492703  0.5941345372660436  1.0000
  H   H50       1.0  0.9433617744155924  0.6197224213504954  0.9058653401062884  1.0000
  H   H51       1.0  0.5566391715334902  0.6197182532957155  0.4058660400452112  1.0000
  H   H52       1.0  0.056639309988696596  0.38028104303034377  0.094135506225868  1.0000
  C   C1        1.0  0.9693136579311811  0.45484851251379876  0.5279096216122312  1.0000
  C   C2        1.0  0.469313840387528  0.545149979737225  0.9720904675144552  1.0000
  C   C3        1.0  0.030686448739601194  0.5451518812613257  0.4720904767109245  1.0000
  C   C4        1.0  0.5306862662813643  0.45484836696808617  0.027909132136059604  1.0000
  C   C5        1.0  0.013195579360498796  0.3062959227072852  0.4802412551618218  1.0000
  C   C6        1.0  0.5131939318194512  0.6937032602555177  0.01975737481995313  1.0000
  C   C7        1.0  0.9868045273092177  0.6937024047807583  0.5197561595153246  1.0000
  C   C8        1.0  0.4868042193883538  0.3062950800420623  0.9802414965060322  1.0000
  C   C9        1.0  0.8279462260563476  0.168973545836856  0.5172043567836369  1.0000
  C   C10       1.0  0.3279450242595773  0.8310297593651795  0.9827947843170222  1.0000
  C   C11       1.0  0.17205485834726625  0.8310288886033206  0.482795511887737  1.0000
  C   C12       1.0  0.6720541046829495  0.1689726686672657  0.017204356029829202  1.0000
  C   C13       1.0  0.9230049916568107  0.09115154645719771  0.6304348489631763  1.0000
  C   C14       1.0  0.4230089231639197  0.9088417474098517  0.8695654469422464  1.0000
  C   C15       1.0  0.07699315954640439  0.9088427189180094  0.3695652099909026  1.0000
  C   C16       1.0  0.5769970498835448  0.09115150084409859  0.1304350910002299  1.0000
  C   C17       1.0  0.014075350119597397  0.16747494000038188  0.6005256111356587  1.0000
  C   C18       1.0  0.5140688037811285  0.8325256778288264  0.8994722813553436  1.0000
  C   C19       1.0  0.9859325783996197  0.8325274752294399  0.39947207256258105  1.0000
  C   C20       1.0  0.4859254365075855  0.16747571385226218  0.10052515300610311  1.0000
  C   C21       1.0  0.7321550737483732  0.1970586716761034  0.4457124715596379  1.0000
  C   C22       1.0  0.2321560994604468  0.8029450604499146  0.05428862749344893  1.0000
  C   C23       1.0  0.267842099733187  0.8029447927007922  0.5542883747723835  1.0000
  C   C24       1.0  0.767844984942897  0.19705738039601778  0.9457119695023906  1.0000
  C   C25       1.0  0.34728117366085337  0.2996760445905196  0.7010088959035627  1.0000
  C   C26       1.0  0.847280302898312  0.7003252782138034  0.7989926611536546  1.0000
  C   C27       1.0  0.6527179552768131  0.7003223149253088  0.29899216039583376  1.0000
  C   C28       1.0  0.15272175923301026  0.2996751347805642  0.2010096221429407  1.0000
  C   C29       1.0  0.249517875899528  0.32175076232144306  0.7769013906046709  1.0000
  C   C30       1.0  0.7495189741200717  0.6782503630426574  0.7231001597208788  1.0000
  C   C31       1.0  0.7504802753105508  0.6782506613923687  0.22309968537920347  1.0000
  C   C32       1.0  0.2504801548196269  0.3217489943850609  0.27689823261700747  1.0000
  C   C33       1.0  0.1828142697951307  0.44681757509597736  0.8093564997855012  1.0000
  C   C34       1.0  0.6828151394418995  0.5531834155536683  0.6906450459469937  1.0000
  C   C35       1.0  0.8171858368720065  0.5531797672916882  0.19064503550206524  1.0000
  C   C36       1.0  0.3171879004237539  0.44682004882914583  0.3093558003852337  1.0000
  C   C37       1.0  0.21142376713891756  0.5492161727266238  0.7675340325798744  1.0000
  C   C38       1.0  0.7114253748642624  0.45078590564401116  0.7324684927833971  1.0000
  C   C39       1.0  0.788575361802792  0.4507862745230896  0.23246729274034553  1.0000
  C   C40       1.0  0.28857277634785566  0.5492165159816977  0.2675299192389602  1.0000
  C   C41       1.0  0.3057933604426708  0.5253672317046706  0.6902311078879393  1.0000
  C   C42       1.0  0.8057939794269798  0.4746329901834443  0.8097709253007181  1.0000
  C   C43       1.0  0.6942096794146266  0.4746280636161372  0.3097699287270856  1.0000
  C   C44       1.0  0.19420612724231026  0.5253663928682781  0.1902303803350307  1.0000
  C   C45       1.0  0.3719396609882821  0.40060691494912953  0.6561609359303945  1.0000
  C   C46       1.0  0.8719395289585918  0.599397528260809  0.8438413708337363  1.0000
  C   C47       1.0  0.6280614234123617  0.5993934980442502  0.3438413473661655  1.0000
  C   C48       1.0  0.12805862225607  0.4006079703753753  0.15615851752205148  1.0000
  C   C49       1.0  0.4359015926997571  0.17735130917353104  0.6707319763325046  1.0000
  C   C50       1.0  0.9359009466279459  0.8226522268666303  0.8292686288506346  1.0000
  C   C51       1.0  0.5640975362403394  0.822649084600606  0.32926812199062283  1.0000
  C   C52       1.0  0.0640981823149787  0.1773512375122408  0.1707322174814507  1.0000
  C   C53       1.0  0.2085733189766827  0.2091868491486508  0.8160658665972349  1.0000
  C   C54       1.0  0.7085727199499985  0.7908110908888372  0.6839312912776592  1.0000
  C   C55       1.0  0.7914267876915418  0.7908104676159908  0.18393275539249743  1.0000
  C   C56       1.0  0.2914283644545606  0.20919236708624572  0.3160688267300387  1.0000
  N   N1        1.0  0.9532356117765488  0.2160055636890377  0.5298751735576417  1.0000
  N   N2        1.0  0.45323334664779213  0.7839938811887635  0.9701207938514429  1.0000
  N   N3        1.0  0.0467664503576302  0.7839958279999522  0.4701222608040752  1.0000
  N   N4        1.0  0.5467667600234093  0.21600545702268184  0.0298754135131034  1.0000
  N   N5        1.0  0.8077295883342827  0.0930050503631037  0.5781654790032462  1.0000
  N   N6        1.0  0.3077285873127522  0.9069982396327417  0.9218365740031799  1.0000
  N   N7        1.0  0.19227345153015557  0.906997396890553  0.4218358463171086  1.0000
  N   N8        1.0  0.6922705416296181  0.0930052375576338  0.0781657289778224  1.0000
  O   O1        1.0  0.5204987253462859  0.16486825233985763  0.7341020136462858  1.0000
  O   O2        1.0  0.020495742924865095  0.8351375409803905  0.7659022242399445  1.0000
  O   O3        1.0  0.4795013813254343  0.8351331649701804  0.26589833401319407  1.0000
  O   O4        1.0  0.9795033860184502  0.1648669597448915  0.2341003280773748  1.0000
  O   O5        1.0  0.435489921084752  0.0955610623182466  0.5772329353532157  1.0000
  O   O6        1.0  0.9354864358134448  0.9044414813814967  0.9227710620874419  1.0000
  O   O7        1.0  0.5645092078541295  0.9044383143267395  0.4227676419580462  1.0000
  O   O8        1.0  0.0645107376641931  0.09555893801368141  0.0772319495334415  1.0000
  O   O9        1.0  0.2433774939518827  0.08763809521286701  0.7664912669416637  1.0000
  O   O10       1.0  0.7433761254985853  0.9123640092537997  0.7335068906750165  1.0000
  O   O11       1.0  0.756621634989152  0.9123633220961765  0.23350908071778062  1.0000
  O   O12       1.0  0.2566239811726234  0.0876353289576457  0.2664893166895297  1.0000
  O   O13       1.0  0.1368900151701524  0.23901571383220235  0.8975428852707239  1.0000
  O   O14       1.0  0.6368894182360235  0.7609831305920238  0.6024574303023869  1.0000
  O   O15       1.0  0.8631100915003529  0.7609846863486851  0.10245794137689053  1.0000
  O   O16       1.0  0.3631097107030072  0.23901519689503195  0.397539984374724  1.0000
