data_image0
_chemical_formula_structural       H30Pb2C30S2N4O12
_chemical_formula_sum              "H30 Pb2 C30 S2 N4 O12"
_cell_length_a       6.997782301353148
_cell_length_b       11.471913821046195
_cell_length_c       11.69539318763233
_cell_angle_alpha    114.13914730099134
_cell_angle_beta     92.56113895549815
_cell_angle_gamma    100.32470475260277

_space_group_name_H-M_alt    "P 1"
_space_group_IT_number       1

loop_
  _space_group_symop_operation_xyz
  'x, y, z'

loop_
  _atom_site_type_symbol
  _atom_site_label
  _atom_site_symmetry_multiplicity
  _atom_site_fract_x
  _atom_site_fract_y
  _atom_site_fract_z
  _atom_site_occupancy
  H   H1        1.0  0.3785112740368959  0.539586128573859  0.06090790457794531  1.0000
  H   H2        1.0  0.6215342003397526  0.460389540288432  0.9390628638591565  1.0000
  H   H3        1.0  0.1387809491104974  0.42422731128879576  0.14983116064146165  1.0000
  H   H4        1.0  0.8612782784968334  0.5757463107387863  0.8501484834316244  1.0000
  H   H5        1.0  0.8524045619885642  0.5167545865012002  0.23329204350377342  1.0000
  H   H6        1.0  0.14763380523984176  0.48322993503007433  0.7666795970011151  1.0000
  H   H7        1.0  0.8071474940834946  0.7245781074904725  0.22536781944185683  1.0000
  H   H8        1.0  0.1928630007623653  0.2753713960625177  0.7745522331210991  1.0000
  H   H9        1.0  0.7338874614676669  0.7722139235354676  0.8486841614365302  1.0000
  H   H10       1.0  0.2660628122221027  0.2277226904770728  0.15132254736567316  1.0000
  H   H11       1.0  0.44237893618160484  0.6165119828517477  0.7143757185840584  1.0000
  H   H12       1.0  0.5575511733199008  0.38356446787504694  0.2855231240616972  1.0000
  H   H13       1.0  0.7924809225541622  0.5132780929337172  0.40429085236871026  1.0000
  H   H14       1.0  0.2076316304463788  0.4867924104295867  0.5957061859659518  1.0000
  H   H15       1.0  0.06774138152164257  0.6846729595205546  0.5531874849452406  1.0000
  H   H16       1.0  0.9324188771906777  0.31528011788349625  0.4469322463883997  1.0000
  H   H17       1.0  0.6204139541739764  0.9666416608820327  0.7056802780219796  1.0000
  H   H18       1.0  0.37957943640201824  0.033338906929920094  0.2943383694590693  1.0000
  H   H19       1.0  0.5158101971925362  0.685091048919837  0.34840936204425077  1.0000
  H   H20       1.0  0.4842182386916107  0.3149736562130911  0.6516399201355227  1.0000
  H   H21       1.0  0.4235146713741571  0.8135176865124619  0.3333891582713732  1.0000
  H   H22       1.0  0.5765278917174115  0.1864894880043124  0.6665575640174524  1.0000
  H   H23       1.0  0.30518934311947277  0.7316396940198401  0.42086232886248337  1.0000
  H   H24       1.0  0.6947453284347347  0.2684051731730647  0.5790785208946119  1.0000
  H   H25       1.0  0.8491814534859116  0.9862490111558913  0.5913530327902236  1.0000
  H   H26       1.0  0.15077374210466138  0.013776850355562004  0.4086600742066508  1.0000
  H   H27       1.0  0.7595818425298762  0.970363275071769  0.4374232265884998  1.0000
  H   H28       1.0  0.24042680921981233  0.0296516541604319  0.562577206064887  1.0000
  H   H29       1.0  0.8478318431292707  0.8410705539990532  0.45325026358138837  1.0000
  H   H30       1.0  0.15206107724660003  0.15892603544419612  0.5467769659641277  1.0000
  Pb  Pb1       1.0  0.20552070964455996  0.9237060308540069  0.862372488214497  1.0000
  Pb  Pb2       1.0  0.7944558231090683  0.0764072447676085  0.1378450081882576  1.0000
  C   C1        1.0  0.008289594881183958  0.8644250394856743  0.1266224846245478  1.0000
  C   C2        1.0  0.9916222524820882  0.13553926668659946  0.8733638399904748  1.0000
  C   C3        1.0  0.062134736280498266  0.7467333524666273  0.13518803494740433  1.0000
  C   C4        1.0  0.9378533073954856  0.25322106225071644  0.8647506215500229  1.0000
  C   C5        1.0  0.2232178463324743  0.6932295631056533  0.08854651454875297  1.0000
  C   C6        1.0  0.7767844177354419  0.3067325753343654  0.9114109783507587  1.0000
  C   C7        1.0  0.25250388931927154  0.5793440181737566  0.09707004991209794  1.0000
  C   C8        1.0  0.7475232054543781  0.4206239009902859  0.9028920415657422  1.0000
  C   C9        1.0  0.11976124010205778  0.5161478825104312  0.14946478808511898  1.0000
  C   C10       1.0  0.8802724554080829  0.48381414180363447  0.8504933452366216  1.0000
  C   C11       1.0  0.9603908803606347  0.5691581955166711  0.19721573991649421  1.0000
  C   C12       1.0  0.03963736194879887  0.4308048487579653  0.802737557748479  1.0000
  C   C13       1.0  0.9337858122873826  0.6841631733854997  0.19173607692498953  1.0000
  C   C14       1.0  0.06621824796719267  0.31577945510287003  0.8081913058894088  1.0000
  C   C15       1.0  0.7395665883108365  0.7156187394897203  0.7483800273625434  1.0000
  C   C16       1.0  0.2604398118061368  0.284353978344086  0.251627167990442  1.0000
  C   C17       1.0  0.5754065708401654  0.6243336805707996  0.6709109736112281  1.0000
  C   C18       1.0  0.4245941140421934  0.37569813654229733  0.3290448340789922  1.0000
  C   C19       1.0  0.5862447666384939  0.5486106584181271  0.5430433959975715  1.0000
  C   C20       1.0  0.4138105475933855  0.45143465107841513  0.4569250662132943  1.0000
  C   C21       1.0  0.7691099020799472  0.5697578122152294  0.5010884569648368  1.0000
  C   C22       1.0  0.23098120184110368  0.43027742049795137  0.4989143210182405  1.0000
  C   C23       1.0  0.9255566564971504  0.6644404642959074  0.5840055213392219  1.0000
  C   C24       1.0  0.07454566873200005  0.3355346318698266  0.41605774945218593  1.0000
  C   C25       1.0  0.5111377713305671  0.894175365666662  0.6261178174492414  1.0000
  C   C26       1.0  0.4888003370566879  0.1058455776248977  0.3739134420317782  1.0000
  C   C27       1.0  0.4466163232996223  0.7677697156596537  0.39755140879292117  1.0000
  C   C28       1.0  0.5533604831687172  0.2322836097501622  0.6024450983343144  1.0000
  C   C29       1.0  0.7679482662014151  0.9190329397951732  0.49829011341315527  1.0000
  C   C30       1.0  0.23199413451922624  0.0809929476350746  0.5017278549793716  1.0000
  S   S1        1.0  0.3990096685670537  0.762277147745337  0.014572412634009841  1.0000
  S   S2        1.0  0.601006578482668  0.23770442281424667  0.9854206339482943  1.0000
  N   N1        1.0  0.9121054880110083  0.737035224975145  0.7061471642815392  1.0000
  N   N2        1.0  0.08796044507394642  0.26291153611065715  0.2939183487441285  1.0000
  N   N3        1.0  0.5720783221284904  0.8619777937908568  0.5124601573739582  1.0000
  N   N4        1.0  0.42782719439856015  0.13809729764254544  0.4875547411129374  1.0000
  O   O1        1.0  0.9891763916195515  0.870573133617846  0.020458025850238905  1.0000
  O   O2        1.0  0.010574367614928791  0.129396604218087  0.9795398095306211  1.0000
  O   O3        1.0  0.9706021772182468  0.950397067142504  0.2287259407813168  1.0000
  O   O4        1.0  0.0293982415556471  0.049552034836608506  0.7713031778141543  1.0000
  O   O5        1.0  0.30933224754853217  0.7170381012299387  0.8819159556300562  1.0000
  O   O6        1.0  0.6907199123196293  0.28296591472821586  0.1180758683979448  1.0000
  O   O7        1.0  0.5753240107490285  0.7143099566688279  0.024044835262323247  1.0000
  O   O8        1.0  0.42472684442275016  0.28571557804631453  0.975965098724778  1.0000
  O   O9        1.0  0.4269547187047919  0.9067999065829895  0.0839260423026926  1.0000
  O   O10       1.0  0.5729657701220319  0.09317597647691402  0.9161019372887083  1.0000
  O   O11       1.0  0.3437592591571033  0.8478004008122326  0.6435421150259514  1.0000
  O   O12       1.0  0.6562161086202636  0.15222812435550986  0.35652296288069607  1.0000
