data_image0
_chemical_formula_structural       Zn8H24C96Cl24O26
_chemical_formula_sum              "Zn8 H24 C96 Cl24 O26"
_cell_length_a       28.14619417494179
_cell_length_b       28.146907991659386
_cell_length_c       28.144642941316686
_cell_angle_alpha    119.99827145162124
_cell_angle_beta     90.00175729476264
_cell_angle_gamma    59.99305988479061

_space_group_name_H-M_alt    "P 1"
_space_group_IT_number       1

loop_
  _space_group_symop_operation_xyz
  'x, y, z'

loop_
  _atom_site_type_symbol
  _atom_site_label
  _atom_site_symmetry_multiplicity
  _atom_site_fract_x
  _atom_site_fract_y
  _atom_site_fract_z
  _atom_site_occupancy
  Zn  Zn1       1.0  0.5284772960509727  0.056999723179046856  0.028493085726658787  1.0000
  Zn  Zn2       1.0  0.528545618892693  0.9430245788407846  0.9144717509482803  1.0000
  Zn  Zn3       1.0  0.41456062865284327  0.05695378570781186  0.028430754718073152  1.0000
  Zn  Zn4       1.0  0.5284802094509973  0.9430429223792416  0.02845567051398463  1.0000
  Zn  Zn5       1.0  0.9714221190549778  0.9430673997452108  0.47158097728508613  1.0000
  Zn  Zn6       1.0  0.08541300781797659  0.9429987217181548  0.4714945276572917  1.0000
  Zn  Zn7       1.0  0.9714600709433444  0.056980221180971825  0.585466104048443  1.0000
  Zn  Zn8       1.0  0.971440737433966  0.05697587492043274  0.4715137180898169  1.0000
  H   H1        1.0  0.8678732827286524  0.07649190614890979  0.36803266294583625  1.0000
  H   H2        1.0  0.8679014041362337  0.9234198667506279  0.3679915590986339  1.0000
  H   H3        1.0  0.6320347646411122  0.0764991032442028  0.1320319042925533  1.0000
  H   H4        1.0  0.6319910856480959  0.923474327410304  0.13202103091111886  1.0000
  H   H5        1.0  0.20846210644342014  0.9234671868964598  0.5555227566218051  1.0000
  H   H6        1.0  0.0554311153346988  0.07658552355115238  0.7086098430259253  1.0000
  H   H7        1.0  0.4445128006723354  0.9234777065833484  0.7913539530957507  1.0000
  H   H8        1.0  0.29148602901644705  0.07653849021763647  0.9444389575752151  1.0000
  H   H9        1.0  0.2083937783746706  0.7359254910879187  0.3680895221838012  1.0000
  H   H10       1.0  0.05534500577436337  0.7359418886235146  0.36810897477639754  1.0000
  H   H11       1.0  0.4444102925186045  0.2641168992487621  0.13214942717190317  1.0000
  H   H12       1.0  0.2914150007405  0.2640188873793934  0.13206423881683796  1.0000
  H   H13       1.0  0.8679656646752036  0.2640502995462417  0.5555352888959745  1.0000
  H   H14       1.0  0.8679363452750407  0.26407772775002786  0.7086047151973743  1.0000
  H   H15       1.0  0.6320145794930737  0.7359047046849698  0.7914067451886166  1.0000
  H   H16       1.0  0.6320164253997193  0.735969786442006  0.9444947439766123  1.0000
  H   H17       1.0  0.8680042471281624  0.07657697054896351  0.7086218930262901  1.0000
  H   H18       1.0  0.8679310534203496  0.9235564003379513  0.5556334754290975  1.0000
  H   H19       1.0  0.6320049354394328  0.07666123195218695  0.9446153294379439  1.0000
  H   H20       1.0  0.6320940617820481  0.9235830749985118  0.7915100616110708  1.0000
  H   H21       1.0  0.20851528862671392  0.923627648975355  0.3680687241950336  1.0000
  H   H22       1.0  0.05543794934035158  0.07666243714199095  0.36805760119705166  1.0000
  H   H23       1.0  0.4444478671152653  0.9235060925702714  0.13201447142285605  1.0000
  H   H24       1.0  0.2914041089058372  0.07658777050301079  0.1320195039105201  1.0000
  C   C1        1.0  0.5908972317337273  8.026694006729959e-05  0.9091671298885586  1.0000
  C   C2        1.0  0.40916018235655116  6.251319163850857e-06  0.9090570637654735  1.0000
  C   C3        1.0  0.4090977371224652  0.18176303662490784  0.09088900685783596  1.0000
  C   C4        1.0  0.4091045481786892  1.572771288499556e-05  0.09084480182080772  1.0000
  C   C5        1.0  0.5908797205976415  0.9999874917962756  0.09086245526083278  1.0000
  C   C6        1.0  0.5909048451506463  0.8182477694787029  0.9090976821364904  1.0000
  C   C7        1.0  0.09073553692796589  0.8182527420282854  0.4092164424800938  1.0000
  C   C8        1.0  0.09079217737083672  2.1920139731357863e-06  0.5909127936863143  1.0000
  C   C9        1.0  0.9090890623814547  4.241821577038597e-05  0.5909467395999641  1.0000
  C   C10       1.0  0.9090373764955119  0.18175882217590106  0.5909146626809019  1.0000
  C   C11       1.0  0.909011566986962  1.8293862995819578e-06  0.409194516449645  1.0000
  C   C12       1.0  0.09081988614730106  5.0400029771128066e-05  0.40915057205305766  1.0000
  C   C13       1.0  0.8714930204951302  0.9999717137054137  0.3716400825168406  1.0000
  C   C14       1.0  0.8540352666576184  0.04316814887837959  0.3541758196624656  1.0000
  C   C15       1.0  0.8191755429831105  0.04304246925622853  0.3192646916952312  1.0000
  C   C16       1.0  0.8005782673859938  0.9999421623780766  0.3006332897071717  1.0000
  C   C17       1.0  0.8191952392291384  0.9568450028136084  0.3192466595599228  1.0000
  C   C18       1.0  0.8540577678338581  0.9567518413485279  0.35415429465248843  1.0000
  C   C19       1.0  0.7652925091273562  0.9999490419719025  0.2653377383490605  1.0000
  C   C20       1.0  0.7346171932091182  0.9999597049624569  0.2346760205522854  1.0000
  C   C21       1.0  0.6993291559412852  0.9999758222105585  0.19938843263265932  1.0000
  C   C22       1.0  0.6807363639734163  0.0430661521019861  0.18077497491960778  1.0000
  C   C23       1.0  0.6458635922086485  0.04317743418622668  0.1458772268628293  1.0000
  C   C24       1.0  0.628403406123404  0.9999842875133353  0.12841217643958888  1.0000
  C   C25       1.0  0.6458381139556337  0.9567906225157972  0.14587490224937463  1.0000
  C   C26       1.0  0.6807059667411014  0.9568967608302189  0.18077612567369516  1.0000
  C   C27       1.0  0.128334548704551  1.8878541680986305e-05  0.6284523526875743  1.0000
  C   C28       1.0  0.18899695481147916  0.9568039531733349  0.6026923913249077  1.0000
  C   C29       1.0  0.22378827886936392  0.9569289378682913  0.6376690837665888  1.0000
  C   C30       1.0  0.1993184088156282  5.054455338904635e-05  0.6993751073029841  1.0000
  C   C31       1.0  0.13760826912018606  0.043161195049251026  0.7238758870646365  1.0000
  C   C32       1.0  0.10259916058036113  0.04324870574594565  0.6891084524790472  1.0000
  C   C33       1.0  0.2346233805204108  5.787080968416647e-05  0.7346493097206589  1.0000
  C   C34       1.0  0.26531089603797403  4.542908521188378e-05  0.7653048672690658  1.0000
  C   C35       1.0  0.30062087052771624  3.32152480452395e-05  0.8005801088942093  1.0000
  C   C36       1.0  0.36233278346547615  0.9569350751629387  0.7760939672135049  1.0000
  C   C37       1.0  0.3973408469439406  0.9568198540386135  0.8108567647305873  1.0000
  C   C38       1.0  0.3716203025602951  1.620890255827033e-05  0.8715174974133718  1.0000
  C   C39       1.0  0.3109560122484823  0.04322659145699963  0.8972708839374943  1.0000
  C   C40       1.0  0.27616429403308734  0.043124698441424664  0.8622892534359038  1.0000
  C   C41       1.0  0.1282556482267268  0.7431754409954224  0.3717236351217679  1.0000
  C   C42       1.0  0.18892077295611642  0.7082388855571154  0.354263896125417  1.0000
  C   C43       1.0  0.22370389106777122  0.638466954915323  0.31936853262310905  1.0000
  C   C44       1.0  0.19922459424176964  0.6012485386079973  0.30074811031698073  1.0000
  C   C45       1.0  0.1375134556454399  0.6384909833465855  0.3193837813215337  1.0000
  C   C46       1.0  0.10251380730870366  0.7082650816690971  0.3542768196629637  1.0000
  C   C47       1.0  0.2345027329601096  0.5306704147564147  0.2654647096399429  1.0000
  C   C48       1.0  0.2651897104610228  0.469330476602373  0.23480006380393795  1.0000
  C   C49       1.0  0.30051528733886096  0.39875198845724213  0.19949942228517867  1.0000
  C   C50       1.0  0.362221530752656  0.3615564419089028  0.18091128072261853  1.0000
  C   C51       1.0  0.3972435651113528  0.2917844698070695  0.1459930111487607  1.0000
  C   C52       1.0  0.37153209930167463  0.25683893079229864  0.1284856186242749  1.0000
  C   C53       1.0  0.31087507412917154  0.2917225504985836  0.14593619678933575  1.0000
  C   C54       1.0  0.27606712584010745  0.36149235507969035  0.18085284014330938  1.0000
  C   C55       1.0  0.8715478512703851  0.2568343445852792  0.6284518538409143  1.0000
  C   C56       1.0  0.8541257249592037  0.2917456544692458  0.6027033833480145  1.0000
  C   C57       1.0  0.8192759618987964  0.3615161810524232  0.6376909823171745  1.0000
  C   C58       1.0  0.8006598768139384  0.3987495080044216  0.6993986319663819  1.0000
  C   C59       1.0  0.819263411965558  0.3615233989812554  0.7238815984023076  1.0000
  C   C60       1.0  0.8541128020212344  0.29175466248739224  0.6891114741434519  1.0000
  C   C61       1.0  0.7653550671349976  0.46933367606494175  0.7346870311863325  1.0000
  C   C62       1.0  0.734649461689081  0.5306697099552198  0.7653592923950753  1.0000
  C   C63       1.0  0.6993372333486789  0.6012528128465391  0.800637700400024  1.0000
  C   C64       1.0  0.6807161865453111  0.6384672006334359  0.7761455995690056  1.0000
  C   C65       1.0  0.6458475587415081  0.7082355844867652  0.8109061825869334  1.0000
  C   C66       1.0  0.6284053243243761  0.7431697588194769  0.8715669468973173  1.0000
  C   C67       1.0  0.6458517385838862  0.7082694585817324  0.8973255919221541  1.0000
  C   C68       1.0  0.6807232697197068  0.6384978631486152  0.8623471356767922  1.0000
  C   C69       1.0  0.8715780939291305  6.030816451435852e-05  0.6285114887937125  1.0000
  C   C70       1.0  0.8541491798700919  0.04326884950798179  0.6891662340256132  1.0000
  C   C71       1.0  0.8192732715904186  0.04318984833165746  0.7239702208739016  1.0000
  C   C72       1.0  0.8006393014922396  0.00011965674081465561  0.6995144067603504  1.0000
  C   C73       1.0  0.8192227803356218  0.9570128916002005  0.6378166009483975  1.0000
  C   C74       1.0  0.8541055921884392  0.9568773006382617  0.6027953816070025  1.0000
  C   C75       1.0  0.7653471391444171  0.000158348995804151  0.7348338149990497  1.0000
  C   C76       1.0  0.7346763583224175  0.00017572421473527672  0.7655075399410195  1.0000
  C   C77       1.0  0.6993859720085709  0.0001533076416253601  0.8007676161839823  1.0000
  C   C78       1.0  0.6807470116011205  0.043251277274798675  0.8624818930248495  1.0000
  C   C79       1.0  0.6458641025005106  0.04333535166911457  0.897442454946045  1.0000
  C   C80       1.0  0.6284342326337722  0.00011673181409597942  0.8716712107547336  1.0000
  C   C81       1.0  0.6459172536727424  0.9569157170515085  0.8110086118203692  1.0000
  C   C82       1.0  0.6808066971032857  0.9570412580064698  0.7762511329215372  1.0000
  C   C83       1.0  0.1283533058261953  0.00013624860461895397  0.37168487849896076  1.0000
  C   C84       1.0  0.18901933865330298  0.9569712289325237  0.3542454175523415  1.0000
  C   C85       1.0  0.22379085866250392  0.957108151150891  0.319379888663221  1.0000
  C   C86       1.0  0.19931198742698802  0.00018276832802411816  0.3007459141351916  1.0000
  C   C87       1.0  0.1375948099838809  0.043267825631879614  0.3193699550701865  1.0000
  C   C88       1.0  0.10260861704029625  0.043346937640386364  0.35423483205069317  1.0000
  C   C89       1.0  0.23460296933068045  0.0001629053921804015  0.26543159303258784  1.0000
  C   C90       1.0  0.2652691455055276  0.0001355816570695031  0.23472623141643817  1.0000
  C   C91       1.0  0.30056748493081636  0.00010008547805288504  0.19940313235475313  1.0000
  C   C92       1.0  0.3622774440358256  0.9569809992834383  0.1807668394001143  1.0000
  C   C93       1.0  0.3972774509062588  0.9568478829415954  0.14586328012935465  1.0000
  C   C94       1.0  0.37154644734465586  4.357205375542347e-05  0.1283969932964339  1.0000
  C   C95       1.0  0.3108868365952091  0.04326586512854658  0.1458663363255823  1.0000
  C   C96       1.0  0.27609892927256396  0.04318792166169074  0.18077596322314798  1.0000
  Cl  Cl1       1.0  0.7979510063819576  0.9035553158814766  0.29793189334886694  1.0000
  Cl  Cl2       1.0  0.797922879466135  0.09630709934815264  0.2979915726915507  1.0000
  Cl  Cl3       1.0  0.7019576505828127  0.9036431444172808  0.20205626377757824  1.0000
  Cl  Cl4       1.0  0.7020133331828688  0.0963220818160553  0.20205807075947751  1.0000
  Cl  Cl5       1.0  0.10563670020988526  0.09645818009356337  0.7984150247592011  1.0000
  Cl  Cl6       1.0  0.29832671216060186  0.903652019839342  0.605647145619038  1.0000
  Cl  Cl7       1.0  0.2016241808819716  0.09639948551969718  0.8943164250699522  1.0000
  Cl  Cl8       1.0  0.39431339415638433  0.903662956529459  0.7015500480176582  1.0000
  Cl  Cl9       1.0  0.1055214287292401  0.5959507916687415  0.29811275542271426  1.0000
  Cl  Cl10      1.0  0.29824357697952997  0.5959284593923259  0.2980831153580681  1.0000
  Cl  Cl11      1.0  0.2015306807084443  0.4040091779180842  0.20211831841480424  1.0000
  Cl  Cl12      1.0  0.39418522496882263  0.40412506157876044  0.2022205884042023  1.0000
  Cl  Cl13      1.0  0.7979953034925275  0.4040854647824262  0.7984231092671263  1.0000
  Cl  Cl14      1.0  0.7980377376216838  0.4040441622411709  0.6056802169046659  1.0000
  Cl  Cl15      1.0  0.70199157844349  0.5959780482312101  0.8943629894422216  1.0000
  Cl  Cl16      1.0  0.7019808816153842  0.5958998064221394  0.7016028838462345  1.0000
  Cl  Cl17      1.0  0.797925726785373  0.9037751202722935  0.6058573260393699  1.0000
  Cl  Cl18      1.0  0.7980112756962046  0.09645342133467255  0.7985062703057364  1.0000
  Cl  Cl19      1.0  0.7021105785898885  0.9037798092839185  0.7017108573170104  1.0000
  Cl  Cl20      1.0  0.7020030377223776  0.09652458414673531  0.8944829066881962  1.0000
  Cl  Cl21      1.0  0.10558600336724314  0.09653248079909105  0.29809533654032794  1.0000
  Cl  Cl22      1.0  0.29833330339099  0.903837950839936  0.298116291529688  1.0000
  Cl  Cl23      1.0  0.20156176087417782  0.09647801659311041  0.2020541794098207  1.0000
  Cl  Cl24      1.0  0.394282359981027  0.9037131471990633  0.20203788759036437  1.0000
  O   O1        1.0  0.5000255756426031  0.9999964889683289  0.9999399152329075  1.0000
  O   O2        1.0  0.5764183533955674  0.040558843508272435  0.9641109554511544  1.0000
  O   O3        1.0  0.464104661730758  0.9595309689633642  0.8830285331766489  1.0000
  O   O4        1.0  0.3830920022309456  0.15283193942462966  0.07638390392499876  1.0000
  O   O5        1.0  0.5764668395927477  0.9595864047962834  0.8831105282125903  1.0000
  O   O6        1.0  0.46403415595353437  0.15286954362247956  0.07643370002818267  1.0000
  O   O7        1.0  0.38313208956935074  0.04047148545054602  0.9639923623637828  1.0000
  O   O8        1.0  0.3830878198794707  0.04048546102103511  0.07637111407130695  1.0000
  O   O9        1.0  0.5764237094199275  0.9595074340792349  0.07639145780859706  1.0000
  O   O10       1.0  0.4640444192140975  0.9595358479481817  0.07639479000423681  1.0000
  O   O11       1.0  0.576430295826789  0.0404708447943351  0.07640827183042379  1.0000
  O   O12       1.0  0.5764874208073324  0.8471546577419321  0.8830658746461069  1.0000
  O   O13       1.0  0.5764411060242908  0.8471668808160332  0.9640368202193482  1.0000
  O   O14       1.0  0.9999360893338506  2.9899901082701958e-06  0.5000053717365205  1.0000
  O   O15       1.0  0.03579564811939679  0.8471803410518461  0.4236787692977727  1.0000
  O   O16       1.0  0.11681079064531032  0.9595061270585248  0.5359707020498802  1.0000
  O   O17       1.0  0.9235436639137686  0.04052142787856674  0.6169532603292466  1.0000
  O   O18       1.0  0.11677859957495683  0.8471415506212807  0.4236206154138244  1.0000
  O   O19       1.0  0.9235201006267744  0.959560018382149  0.5360174274048647  1.0000
  O   O20       1.0  0.035854460395683053  0.04049424657522139  0.6169481296369383  1.0000
  O   O21       1.0  0.9234729189635827  0.15285370713535  0.6169457606969357  1.0000
  O   O22       1.0  0.9234684578371172  0.04047442439182494  0.42363230060052376  1.0000
  O   O23       1.0  0.9234713508072616  0.15284149200847752  0.5359736687549272  1.0000
  O   O24       1.0  0.9234451351234726  0.9595472569654648  0.42367770211683337  1.0000
  O   O25       1.0  0.11684907921679909  0.9595270925581617  0.4235699393127915  1.0000
  O   O26       1.0  0.03587334972981892  0.04050300052165308  0.4235845802253734  1.0000
