data_image0
_chemical_formula_structural       Nd4P4H60C84N4O44
_chemical_formula_sum              "Nd4 P4 H60 C84 N4 O44"
_cell_length_a       11.793573682381652
_cell_length_b       14.595969903296467
_cell_length_c       17.67660365801476
_cell_angle_alpha    89.9999650464199
_cell_angle_beta     89.99985776817617
_cell_angle_gamma    91.99844672165683

_space_group_name_H-M_alt    "P 1"
_space_group_IT_number       1

loop_
  _space_group_symop_operation_xyz
  'x, y, z'

loop_
  _atom_site_type_symbol
  _atom_site_label
  _atom_site_symmetry_multiplicity
  _atom_site_fract_x
  _atom_site_fract_y
  _atom_site_fract_z
  _atom_site_occupancy
  Nd  Nd1       1.0  0.0715118631364504  0.5921779096791794  0.9277962362869091  1.0000
  Nd  Nd2       1.0  0.4284968799153148  0.9078238216789032  0.4277970973917534  1.0000
  Nd  Nd3       1.0  0.9284955415876088  0.4078223044689723  0.0722030464876937  1.0000
  Nd  Nd4       1.0  0.5715038976153721  0.09218048360505547  0.5722027511068364  1.0000
  P   P1        1.0  0.33415045419076955  0.753065814899443  0.9154830933903214  1.0000
  P   P2        1.0  0.16585409505426443  0.7469359131646768  0.4154844689376489  1.0000
  P   P3        1.0  0.665853479874997  0.2469323316239951  0.084517320826734  1.0000
  P   P4        1.0  0.8341475305036994  0.2530683948753421  0.5845176424383851  1.0000
  H   H1        1.0  0.1108337964285724  0.13561196208368637  0.173950711470674  1.0000
  H   H2        1.0  0.38915886530718075  0.3643824794332176  0.6739554123591986  1.0000
  H   H3        1.0  0.8891564120800197  0.8643820271367771  0.8260457427220163  1.0000
  H   H4        1.0  0.6108290085052205  0.6356169857691327  0.3260489619075458  1.0000
  H   H5        1.0  0.17776235084215133  0.4825009447781811  0.7741970991794034  1.0000
  H   H6        1.0  0.32223774905779834  0.0174982348646751  0.2741943706160441  1.0000
  H   H7        1.0  0.8222340556464333  0.5174999190601995  0.2258033150431942  1.0000
  H   H8        1.0  0.6777619448524064  0.9824998978741204  0.7258049121654508  1.0000
  H   H9        1.0  0.23275209099974606  0.4827276683799724  0.8556397350725151  1.0000
  H   H10       1.0  0.26725027258318335  0.017272135672193704  0.3556387946848787  1.0000
  H   H11       1.0  0.7672485818253351  0.5172738947760536  0.1443595477073174  1.0000
  H   H12       1.0  0.7327503217097656  0.9827273708872255  0.6443616195345996  1.0000
  H   H13       1.0  0.5689893005490704  0.7997110813098091  0.8613203336536088  1.0000
  H   H14       1.0  0.9310137435639447  0.7002865883755902  0.3613195969636466  1.0000
  H   H15       1.0  0.43101632957871777  0.20028707072744106  0.13868064628157842  1.0000
  H   H16       1.0  0.0689876464093331  0.2997115498772517  0.6386796858164487  1.0000
  H   H17       1.0  0.7524438401615612  0.7310451379944923  0.8931820890671818  1.0000
  H   H18       1.0  0.7475591625343441  0.7689545611379671  0.3931844499973779  1.0000
  H   H19       1.0  0.24756096811348266  0.2689536968182579  0.10681775942943973  1.0000
  H   H20       1.0  0.25244151029073697  0.23104700201806594  0.6068148327824474  1.0000
  H   H21       1.0  0.5848106164453881  0.5476068072502044  0.0504332765604687  1.0000
  H   H22       1.0  0.9151955034565872  0.9523966170964326  0.5504322333186664  1.0000
  H   H23       1.0  0.41519350085705753  0.4523961379975247  0.9495671376552366  1.0000
  H   H24       1.0  0.0848060697554942  0.047606319881190004  0.4495659180210083  1.0000
  H   H25       1.0  0.3986382332820213  0.6148231048896521  0.0191887237675417  1.0000
  H   H26       1.0  0.10136791250123169  0.88518170296674  0.5191848385418681  1.0000
  H   H27       1.0  0.6013649312758248  0.38517709547144113  0.9808150847668458  1.0000
  H   H28       1.0  0.89863366071085  0.11482123401088272  0.4808133127978067  1.0000
  H   H29       1.0  0.46656964833207576  0.8410097570604902  0.037810966850315715  1.0000
  H   H30       1.0  0.0334304125851119  0.658992959030556  0.5378140953986801  1.0000
  H   H31       1.0  0.5334284542227864  0.15899111229266077  0.9621877502122729  1.0000
  H   H32       1.0  0.9665677684976262  0.3410099669182359  0.46218575310240345  1.0000
  H   H33       1.0  0.41819172580881064  0.9610736609432563  0.1315478752262749  1.0000
  H   H34       1.0  0.0818019413161792  0.5389262138523492  0.6315504179794047  1.0000
  H   H35       1.0  0.581802058057285  0.038925138028403694  0.8684514075599383  1.0000
  H   H36       1.0  0.9181877594511575  0.4610766845261979  0.36844943052869183  1.0000
  H   H37       1.0  0.09032950897655923  0.9848381105775986  0.028309416657528202  1.0000
  H   H38       1.0  0.4096659810817158  0.515155002376467  0.5283102978227064  1.0000
  H   H39       1.0  0.9096674837811494  0.015155900698346199  0.9716887346881578  1.0000
  H   H40       1.0  0.5903244106518315  0.4848437855656371  0.47169237928351754  1.0000
  H   H41       1.0  0.1357931964106882  0.8642036165692273  0.9350203537641522  1.0000
  H   H42       1.0  0.36420502894533496  0.635789849164162  0.4350225882856549  1.0000
  H   H43       1.0  0.8642064189748382  0.1357924595746454  0.06497610042024601  1.0000
  H   H44       1.0  0.6357895244169712  0.364206895967193  0.5649795230981027  1.0000
  H   H45       1.0  0.28921756839860535  0.6651784719031824  0.7756367177053891  1.0000
  H   H46       1.0  0.21078658072460854  0.8348213159631965  0.2756391065692654  1.0000
  H   H47       1.0  0.710788087912242  0.3348203656675609  0.2243608679123952  1.0000
  H   H48       1.0  0.7892158405147571  0.1651816237704863  0.7243613076478468  1.0000
  H   H49       1.0  0.3320656809123079  0.7114011145058255  0.6412958185262314  1.0000
  H   H50       1.0  0.16793900010404883  0.7885994733574577  0.14129830128186432  1.0000
  H   H51       1.0  0.667940901959014  0.2885997824178261  0.3587023328098127  1.0000
  H   H52       1.0  0.8320641906357906  0.2114014125368868  0.858702678654659  1.0000
  H   H53       1.0  0.44039304473282925  0.9805786997491522  0.7169838441396409  1.0000
  H   H54       1.0  0.059606184642632294  0.519419750486122  0.21698607454133173  1.0000
  H   H55       1.0  0.5596066753497836  0.0194201185207206  0.28301770151979616  1.0000
  H   H56       1.0  0.9403961057133898  0.48057976158735016  0.7830143396767397  1.0000
  H   H57       1.0  0.40035986567588827  0.9357724317719018  0.8502272447410775  1.0000
  H   H58       1.0  0.09964402883378648  0.564227978071905  0.35022938660606684  1.0000
  H   H59       1.0  0.5996415766432791  0.064227077543336  0.14977599807536993  1.0000
  H   H60       1.0  0.9003584185822503  0.43577564719382167  0.6497710276108464  1.0000
  C   C1        1.0  0.4720867968201646  0.7121173657629214  0.9391549578078083  1.0000
  C   C2        1.0  0.027915093046423995  0.7878836483293908  0.43915427808103413  1.0000
  C   C3        1.0  0.527917985273952  0.28788078351681895  0.0608471535671455  1.0000
  C   C4        1.0  0.9720839884233144  0.21212065144099768  0.5608444389798919  1.0000
  C   C5        1.0  0.571499026935932  0.7454379943203835  0.9035965659592549  1.0000
  C   C6        1.0  0.9285039103792981  0.7545610104065191  0.4035986349414529  1.0000
  C   C7        1.0  0.4285057813380462  0.2545608404921254  0.0964038482569052  1.0000
  C   C8        1.0  0.0714967100903152  0.2454391816849437  0.5964017792778336  1.0000
  C   C9        1.0  0.6747197191752364  0.7071356080420583  0.9211236128236849  1.0000
  C   C10       1.0  0.8252814822739933  0.7928640617688882  0.4211258333387846  1.0000
  C   C11       1.0  0.325284267244932  0.29286390954570857  0.078876235673448  1.0000
  C   C12       1.0  0.17471659410100673  0.2071361220515016  0.578874580882605  1.0000
  C   C13       1.0  0.6796326076474415  0.6356347663106163  0.9737423319770145  1.0000
  C   C14       1.0  0.8203727144112278  0.8643669290481597  0.4737439592220838  1.0000
  C   C15       1.0  0.32037135259606236  0.3643640657451073  0.026257516520317402  1.0000
  C   C16       1.0  0.17963060721301363  0.1356373845066301  0.5262564549939414  1.0000
  C   C17       1.0  0.5802859814480286  0.6036280869886069  0.009989976777319503  1.0000
  C   C18       1.0  0.9197202645252601  0.8963746862861014  0.5099878225629197  1.0000
  C   C19       1.0  0.41971977955989814  0.39637349270812894  0.9900127003155107  1.0000
  C   C20       1.0  0.08028218289609872  0.10362893898083311  0.49000976305632093  1.0000
  C   C21       1.0  0.47666136391323016  0.6414160256961877  0.9928400583646493  1.0000
  C   C22       1.0  0.023343820692545595  0.8585876958101223  0.49283935092744  1.0000
  C   C23       1.0  0.5233426486782876  0.35858417742241505  0.0071626187299643  1.0000
  C   C24       1.0  0.9766578310484775  0.1414172977633896  0.507159366131191  1.0000
  C   C25       1.0  0.7907159774355678  0.5913328649170991  0.9883604439903452  1.0000
  C   C26       1.0  0.7092857665887279  0.9086653792989239  0.4883599698980134  1.0000
  C   C27       1.0  0.2092871347732057  0.4086659643808801  0.0116411016662852  1.0000
  C   C28       1.0  0.29071228361492985  0.0913341189906234  0.5116376157258884  1.0000
  C   C29       1.0  0.3049964517282647  0.8455858542718672  0.9799066693261267  1.0000
  C   C30       1.0  0.1950052323699865  0.6544137540321057  0.479910305712437  1.0000
  C   C31       1.0  0.695004194925474  0.1544150233533301  0.0200897848562178  1.0000
  C   C32       1.0  0.8049902213782616  0.3455843649205903  0.520091239950709  1.0000
  C   C33       1.0  0.38447706756537064  0.8729040382825985  0.0352556716114165  1.0000
  C   C34       1.0  0.11552117602697357  0.6270952468119544  0.535257548922587  1.0000
  C   C35       1.0  0.6155200822491481  0.12709408618487567  0.9647441768917134  1.0000
  C   C36       1.0  0.8844735082239908  0.37290492598081215  0.46474173386253176  1.0000
  C   C37       1.0  0.35782016739163686  0.9399520818940843  0.08772955810088233  1.0000
  C   C38       1.0  0.14217276429958764  0.5600464564157619  0.5877319905154437  1.0000
  C   C39       1.0  0.6421735117677868  0.060043974949401495  0.9122697246860981  1.0000
  C   C40       1.0  0.8578186325276319  0.43995644747610635  0.41226955514985525  1.0000
  C   C41       1.0  0.25185285930581364  0.9803155821262732  0.085234246754446  1.0000
  C   C42       1.0  0.24814002942685684  0.5196815872459196  0.5852359584058462  1.0000
  C   C43       1.0  0.7481425944498882  0.0196825368281139  0.9147633388719498  1.0000
  C   C44       1.0  0.7518477920417936  0.4803165068945105  0.4147633243854685  1.0000
  C   C45       1.0  0.17262793517839728  0.9533160113880326  0.029508116188758003  1.0000
  C   C46       1.0  0.32736667615582604  0.5466764122548398  0.5295108148398812  1.0000
  C   C47       1.0  0.827368209548837  0.046677997131126886  0.9704894694380856  1.0000
  C   C48       1.0  0.6726236370487797  0.45332031909138226  0.47049129654738664  1.0000
  C   C49       1.0  0.19873305683599093  0.8862116036892259  0.9770187488017896  1.0000
  C   C50       1.0  0.30126763304024007  0.6137838911256993  0.47702336122636524  1.0000
  C   C51       1.0  0.8012665323728644  0.11378378692260328  0.0229777053827931  1.0000
  C   C52       1.0  0.6987295952957665  0.38621628993597307  0.5229810130324708  1.0000
  C   C53       1.0  0.22630415265945913  0.05148753719233671  0.14273366735354642  1.0000
  C   C54       1.0  0.2736878047418472  0.448507613699391  0.6427351228489827  1.0000
  C   C55       1.0  0.7736834594022426  0.9485050726932087  0.8572622211220989  1.0000
  C   C56       1.0  0.72630271788249  0.5514946019046147  0.357263594219539  1.0000
  C   C57       1.0  0.34545351079729864  0.797078821193054  0.8207878458423183  1.0000
  C   C58       1.0  0.154548824651954  0.7029222937533177  0.32078813059410294  1.0000
  C   C59       1.0  0.6545487795587307  0.2029206908804184  0.1792125683757533  1.0000
  C   C60       1.0  0.8454544184433459  0.29707996320559  0.6792117179029589  1.0000
  C   C61       1.0  0.32343350679971644  0.7337610677044849  0.7622149763516788  1.0000
  C   C62       1.0  0.17657323694844254  0.766238739870104  0.26221462739219  1.0000
  C   C63       1.0  0.6765721756814005  0.26623845539684504  0.23778600358311763  1.0000
  C   C64       1.0  0.8234300323235219  0.23376420262084707  0.7377852211046871  1.0000
  C   C65       1.0  0.3469006744014109  0.759137924710977  0.6879467243636201  1.0000
  C   C66       1.0  0.15310460050559982  0.7408605695650934  0.1879475582986672  1.0000
  C   C67       1.0  0.6531065470838442  0.2408574907124006  0.3120536898513961  1.0000
  C   C68       1.0  0.846900312475043  0.2591410073755824  0.8120528559167185  1.0000
  C   C69       1.0  0.39209336766921143  0.8471598400088994  0.6718259211871569  1.0000
  C   C70       1.0  0.107908680503698  0.6528413991028827  0.171826873744152  1.0000
  C   C71       1.0  0.6079064047678032  0.1528403493252952  0.3281750587523647  1.0000
  C   C72       1.0  0.8920954106231422  0.3471608606130515  0.8281729747522135  1.0000
  C   C73       1.0  0.40912872530478955  0.9113517837230348  0.7299750706482797  1.0000
  C   C74       1.0  0.090875517182063  0.5886459864539617  0.2299755176689615  1.0000
  C   C75       1.0  0.5908751302277865  0.08864430620355529  0.27002704072796047  1.0000
  C   C76       1.0  0.9091259774989596  0.41135489392728897  0.7700231993908205  1.0000
  C   C77       1.0  0.3860693148646135  0.8862833324406479  0.8046229200302905  1.0000
  C   C78       1.0  0.11393557317741448  0.6137164334859618  0.3046233164239425  1.0000
  C   C79       1.0  0.6139346715491741  0.11371618514566958  0.19538032278405382  1.0000
  C   C80       1.0  0.8860668480651414  0.38628650624843874  0.6953754006345605  1.0000
  C   C81       1.0  0.4211779267315023  0.86971309908877  0.5917296226116591  1.0000
  C   C82       1.0  0.07882508774758888  0.6302834123004146  0.0917334630984499  1.0000
  C   C83       1.0  0.5788242589221185  0.13028367085750148  0.4082685287290389  1.0000
  C   C84       1.0  0.9211788463149875  0.3697147342223062  0.9082686482772077  1.0000
  N   N1        1.0  0.9741574483226644  0.7204814687925205  0.8141390093039506  1.0000
  N   N2        1.0  0.5258424597941272  0.7795182866592256  0.3141439943700135  1.0000
  N   N3        1.0  0.0258430150975926  0.27951461010910345  0.1858557477211349  1.0000
  N   N4        1.0  0.4741574435198288  0.2204853303337373  0.685860379885753  1.0000
  O   O1        1.0  0.24768839603832765  0.6746821514137976  0.9193244200503797  1.0000
  O   O2        1.0  0.25231603403786096  0.825316831248763  0.4193267450013707  1.0000
  O   O3        1.0  0.7523129415805558  0.32531461577472237  0.0806754284496307  1.0000
  O   O4        1.0  0.7476863086661824  0.1746840518875955  0.5806764978139896  1.0000
  O   O5        1.0  0.7892174696680385  0.5209981117278629  0.0314481323685314  1.0000
  O   O6        1.0  0.7107827592923783  0.9790046239610175  0.5314536366871607  1.0000
  O   O7        1.0  0.2107857210792545  0.4790027741681655  0.9685488875312418  1.0000
  O   O8        1.0  0.28921645305430843  0.02100310346813219  0.46854847469001026  1.0000
  O   O9        1.0  0.8778001068432674  0.6262276399384845  0.9559729199323428  1.0000
  O   O10       1.0  0.6222096269729605  0.8737768264743265  0.455973738640985  1.0000
  O   O11       1.0  0.1222065545548645  0.37377531358056615  0.04402692856172051  1.0000
  O   O12       1.0  0.3777979609877704  0.12622818639811578  0.5440255441322678  1.0000
  O   O13       1.0  0.12347123175710811  0.08480112596135571  0.13585006874252772  1.0000
  O   O14       1.0  0.37652239526278924  0.4151926652445965  0.6358536337357991  1.0000
  O   O15       1.0  0.8765214423129066  0.9151908149333393  0.8641480826072439  1.0000
  O   O16       1.0  0.6234663265832837  0.5848068027152565  0.3641496090911716  1.0000
  O   O17       1.0  0.29560246668268775  0.07720047055419603  0.19176508146922094  1.0000
  O   O18       1.0  0.20439020653547862  0.4227960123831521  0.6917627043141295  1.0000
  O   O19       1.0  0.7043921913831002  0.9227990167046017  0.8082387270723788  1.0000
  O   O20       1.0  0.7955968716072379  0.5772048211281842  0.30823714419665293  1.0000
  O   O21       1.0  0.4622054723492895  0.9501370030307967  0.5749118583061377  1.0000
  O   O22       1.0  0.03779442272498561  0.5498649959158755  0.07491637245775712  1.0000
  O   O23       1.0  0.5377970012391557  0.0498673077660072  0.4250908187887319  1.0000
  O   O24       1.0  0.9622070981284452  0.4501365699964524  0.925084607479974  1.0000
  O   O25       1.0  0.40283175191964915  0.809853713445136  0.5410406166600836  1.0000
  O   O26       1.0  0.09717839469125521  0.6901469763829623  0.04104213407195801  1.0000
  O   O27       1.0  0.597178432489038  0.19015267876246608  0.45895866611067504  1.0000
  O   O28       1.0  0.90282394801811  0.30985390675459706  0.9589582801457296  1.0000
  O   O29       1.0  0.9820127018812316  0.6355664287451716  0.7985127189980261  1.0000
  O   O30       1.0  0.5179914790428201  0.864432668274503  0.29851654324753  1.0000
  O   O31       1.0  0.017989431421177895  0.3644289701374887  0.2014843009039922  1.0000
  O   O32       1.0  0.482012638252165  0.1355702769715492  0.7014878310049186  1.0000
  O   O33       1.0  0.027942097436948594  0.7516611109919397  0.871674026061605  1.0000
  O   O34       1.0  0.47206174250734284  0.7483399661085955  0.3716799861777461  1.0000
  O   O35       1.0  0.9720626846731407  0.2483370382914174  0.1283195995203243  1.0000
  O   O36       1.0  0.5279364647467374  0.251663645371039  0.6283226909208182  1.0000
  O   O37       1.0  0.9142429623090751  0.7714642229415175  0.774583370511543  1.0000
  O   O38       1.0  0.5857519018195063  0.7285328075439635  0.27458658480929904  1.0000
  O   O39       1.0  0.08575318242242248  0.2285297855786084  0.2254119522371667  1.0000
  O   O40       1.0  0.41424792296764695  0.27146875285359323  0.7254160922884411  1.0000
  O   O41       1.0  0.18396290872832574  0.5173582384682972  0.8221174900025829  1.0000
  O   O42       1.0  0.3160445099077124  0.9826428918879627  0.3221162368045897  1.0000
  O   O43       1.0  0.8160394339821053  0.48264264466950374  0.17788235849556602  1.0000
  O   O44       1.0  0.6839595026901932  0.0173573112320824  0.6778830459728199  1.0000
