data_image0
_chemical_formula_structural       Pr2Ag2H12C28N4O16
_chemical_formula_sum              "Pr2 Ag2 H12 C28 N4 O16"
_cell_length_a       7.379842325711832
_cell_length_b       10.25440618443942
_cell_length_c       11.574208942729419
_cell_angle_alpha    97.34100899677559
_cell_angle_beta     101.41944878776562
_cell_angle_gamma    95.60313639823673

_space_group_name_H-M_alt    "P 1"
_space_group_IT_number       1

loop_
  _space_group_symop_operation_xyz
  'x, y, z'

loop_
  _atom_site_type_symbol
  _atom_site_label
  _atom_site_symmetry_multiplicity
  _atom_site_fract_x
  _atom_site_fract_y
  _atom_site_fract_z
  _atom_site_occupancy
  Pr  Pr1       1.0  0.260033943270777  0.4709697641976192  0.07242555322697092  1.0000
  Pr  Pr2       1.0  0.7399661255842744  0.5290290558374976  0.9275730455416851  1.0000
  Ag  Ag1       1.0  0.28849361592586564  0.7696613111429399  0.6974442441905  1.0000
  Ag  Ag2       1.0  0.711502512106719  0.2303385007191352  0.30255572493923927  1.0000
  H   H1        1.0  0.1958980415807048  0.6544838073309975  0.4295637876600368  1.0000
  H   H2        1.0  0.804103416462759  0.34551497001591963  0.5704367047067225  1.0000
  H   H3        1.0  0.5793347854304898  0.6265312317117946  0.5305138366845555  1.0000
  H   H4        1.0  0.42066170792290336  0.3734706258184559  0.4694829823047329  1.0000
  H   H5        1.0  0.871313011954335  0.7038888221714288  0.6832191979473309  1.0000
  H   H6        1.0  0.1286833031468859  0.2961119966175616  0.31678005873474296  1.0000
  H   H7        1.0  0.7260565529680676  0.9681028187360354  0.15925174846153572  1.0000
  H   H8        1.0  0.2739429987634381  0.0318928214466112  0.8407576138757452  1.0000
  H   H9        1.0  0.04986559851484162  0.9672404622689539  0.1080136061861481  1.0000
  H   H10       1.0  0.950130520701272  0.0327593814074589  0.8919846376984637  1.0000
  H   H11       1.0  0.2746938262939338  0.1499430304238842  0.23395234681022004  1.0000
  H   H12       1.0  0.7253052539594055  0.8500577507102278  0.7660481092003836  1.0000
  C   C1        1.0  0.05758732507547384  0.6478287580997842  0.4499019415215955  1.0000
  C   C2        1.0  0.9424131311415636  0.35217202806764897  0.5500978202194133  1.0000
  C   C3        1.0  0.9029492760024952  0.5998428152433632  0.3584809431167813  1.0000
  C   C4        1.0  0.09705156316829289  0.40015995296355567  0.6415191189740315  1.0000
  C   C5        1.0  0.7250305002254931  0.5931877760643544  0.3852606546799607  1.0000
  C   C6        1.0  0.27497132754701437  0.4068130310435691  0.6147375501689041  1.0000
  C   C7        1.0  0.7129107266528862  0.6319852541947453  0.5035311858064091  1.0000
  C   C8        1.0  0.28708834478398165  0.3680155587537115  0.49646754495906026  1.0000
  C   C9        1.0  0.8743918739059495  0.6769767078653074  0.5896665480945771  1.0000
  C   C10       1.0  0.1256056256821054  0.3230231249372579  0.41033186414301087  1.0000
  C   C11       1.0  0.9340430173000059  0.5576072038080113  0.23526484599875638  1.0000
  C   C12       1.0  0.06596315188166099  0.4423945298837637  0.7647357393290692  1.0000
  C   C13       1.0  0.5511070559370523  0.546451997305347  0.29046726898508274  1.0000
  C   C14       1.0  0.4488920154998155  0.45354881564310995  0.7095314617803936  1.0000
  C   C15       1.0  0.5754913428167399  0.9642242138454121  0.14806590370291423  1.0000
  C   C16       1.0  0.42450423723464337  0.035772529514389396  0.8519387906375117  1.0000
  C   C17       1.0  0.4596970417808277  0.8564274057810122  0.07625016301341958  1.0000
  C   C18       1.0  0.5403044162626358  0.14357137156591188  0.9237503293533396  1.0000
  C   C19       1.0  0.26553168059217563  0.8554884780645506  0.059496942963257006  1.0000
  C   C20       1.0  0.7344685885562184  0.14451130117596017  0.9405035312254242  1.0000
  C   C21       1.0  0.1988542294483507  0.9616336827980518  0.1194310641245906  1.0000
  C   C22       1.0  0.8011444722594729  0.03836510038940589  0.8805699541587731  1.0000
  C   C23       1.0  0.3242278740952074  0.06449305313243771  0.19006445889184684  1.0000
  C   C24       1.0  0.6757696475340254  0.935506700134269  0.8099382664585664  1.0000
  C   C25       1.0  0.5478510076259296  0.7478618390892107  0.01946516382364648  1.0000
  C   C26       1.0  0.45214002631470146  0.25213303438852114  0.9805344119952368  1.0000
  C   C27       1.0  0.12473174634532566  0.7543848642859317  0.9719053408492189  1.0000
  C   C28       1.0  0.8752687275046612  0.24561585825281168  0.028097871382044576  1.0000
  N   N1        1.0  0.04512267591061195  0.6866887379148493  0.563316299193481  1.0000
  N   N2        1.0  0.9548763999344914  0.31331205912643867  0.43668329419455193  1.0000
  N   N3        1.0  0.5105984112112907  0.06713746068232498  0.20405332818908314  1.0000
  N   N4        1.0  0.48939954663021007  0.9328572788902887  0.7959514025075126  1.0000
  O   O1        1.0  0.09090729830674595  0.5187464625195657  0.22993780657189697  1.0000
  O   O2        1.0  0.9090925390376156  0.4812583145078689  0.7700615248931657  1.0000
  O   O3        1.0  0.8031910837822736  0.5651214634627094  0.14863155148297122  1.0000
  O   O4        1.0  0.19680483514049021  0.43487742100830923  0.8513648169816221  1.0000
  O   O5        1.0  0.49855348828013035  0.42160833148042787  0.25971056855041047  1.0000
  O   O6        1.0  0.5014495372039107  0.5783914419195569  0.7402893797216593  1.0000
  O   O7        1.0  0.4623869476221216  0.6344321576445182  0.24706740039566455  1.0000
  O   O8        1.0  0.5376156860916909  0.365565665530319  0.7529305222814886  1.0000
  O   O9        1.0  0.7089993246313425  0.7710963737104348  0.9988492545363387  1.0000
  O   O10       1.0  0.2910151091490008  0.22890535836690867  0.001148890419109694  1.0000
  O   O11       1.0  0.45601348386595214  0.6310856575959104  0.9919226301415878  1.0000
  O   O12       1.0  0.5439942439398139  0.3689171039632626  0.008075685846428413  1.0000
  O   O13       1.0  0.06472857766210176  0.7846444669175198  0.8716627644621796  1.0000
  O   O14       1.0  0.9352710593889172  0.21535935090452088  0.12833469158285746  1.0000
  O   O15       1.0  0.06809590185969933  0.6479469432578637  0.01047963762614047  1.0000
  O   O16       1.0  0.9319015889118774  0.3520529213590393  0.9895170493663273  1.0000
