data_image0
_chemical_formula_structural       Cu12H8C12N36
_chemical_formula_sum              "Cu12 H8 C12 N36"
_cell_length_a       8.611032383640422
_cell_length_b       8.610949816705132
_cell_length_c       12.329683680465715
_cell_angle_alpha    77.36468646293864
_cell_angle_beta     77.3649298319776
_cell_angle_gamma    79.96229198747058

_space_group_name_H-M_alt    "P 1"
_space_group_IT_number       1

loop_
  _space_group_symop_operation_xyz
  'x, y, z'

loop_
  _atom_site_type_symbol
  _atom_site_label
  _atom_site_symmetry_multiplicity
  _atom_site_fract_x
  _atom_site_fract_y
  _atom_site_fract_z
  _atom_site_occupancy
  Cu  Cu1       1.0  0.3655347314910244  0.36553600517315477  0.018928111204246482  1.0000
  Cu  Cu2       1.0  0.6344602937795044  0.6344570873326488  0.9810729496264515  1.0000
  Cu  Cu3       1.0  0.7545899826661965  0.7545887133119961  0.13668942382673782  1.0000
  Cu  Cu4       1.0  0.2454088752104084  0.24541029205736453  0.863308212432095  1.0000
  Cu  Cu5       1.0  0.9460473425088836  0.9460516086657547  0.8660849559701874  1.0000
  Cu  Cu6       1.0  0.053945666655209806  0.053940474144759804  0.1339199139838527  1.0000
  Cu  Cu7       1.0  0.3770966511402706  0.37710023466973996  0.3330983624434296  1.0000
  Cu  Cu8       1.0  0.622899301112888  0.6229050576544564  0.6669035251935256  1.0000
  Cu  Cu9       1.0  0.9025320625080011  0.9025288476200755  0.544724189035058  1.0000
  Cu  Cu10      1.0  0.09748025665834352  0.09747467284374521  0.4552847552433761  1.0000
  Cu  Cu11      1.0  0.721769384489491  0.7217693313215746  0.3595677003568695  1.0000
  Cu  Cu12      1.0  0.27823003842454613  0.2782317824248537  0.6404245666112872  1.0000
  H   H1        1.0  0.1004328751453727  0.6924160520392489  0.33955273755771037  1.0000
  H   H2        1.0  0.3076056272393615  0.8995736498226138  0.6604406504558752  1.0000
  H   H3        1.0  0.8995589060023121  0.30758998971118956  0.6604424683034936  1.0000
  H   H4        1.0  0.6924109109543862  0.10043634890958938  0.33955412952095526  1.0000
  H   H5        1.0  0.6658873742365898  0.2536284135209925  0.8448384649974372  1.0000
  H   H6        1.0  0.746366199657686  0.33409675885867063  0.15516370259401668  1.0000
  H   H7        1.0  0.3341065606825779  0.7463647740197459  0.15516440483125393  1.0000
  H   H8        1.0  0.2536273032952465  0.6658917246563616  0.8448417407421333  1.0000
  C   C1        1.0  0.05487574749662368  0.5785997174387134  0.3543644025763655  1.0000
  C   C2        1.0  0.42140329946435173  0.9451254005010482  0.6456310173698584  1.0000
  C   C3        1.0  0.9451175337504124  0.4214052746595414  0.6456331579616689  1.0000
  C   C4        1.0  0.5785995381093442  0.054879664820610685  0.3543655778455843  1.0000
  C   C5        1.0  0.6126155994785591  0.6126154224018024  0.21847306192962887  1.0000
  C   C6        1.0  0.3873807975330977  0.3873862215973247  0.7815286045799397  1.0000
  C   C7        1.0  0.6553228433210094  0.17669243178630006  0.9275804807195556  1.0000
  C   C8        1.0  0.8233136265242961  0.3446607247079925  0.07241402018591712  1.0000
  C   C9        1.0  0.3446662936326419  0.8233077001248076  0.07241792973449887  1.0000
  C   C10       1.0  0.17669721230583957  0.6553273138746646  0.9275801783701924  1.0000
  C   C11       1.0  0.0376197221403842  0.037613130563300984  0.613875429642178  1.0000
  C   C12       1.0  0.962404473067096  0.9624057779904405  0.3861244176848971  1.0000
  N   N1        1.0  0.5378966361583934  0.20040621739638448  0.01672502367674872  1.0000
  N   N2        1.0  0.7995929676306517  0.4620921432164664  0.9832745950311832  1.0000
  N   N3        1.0  0.46209623062766525  0.7995927238222577  0.9832729179676463  1.0000
  N   N4        1.0  0.20040385540669803  0.5378961042233498  0.016726215820490574  1.0000
  N   N5        1.0  0.5630207587810077  0.0773193458489772  0.1029971525418745  1.0000
  N   N6        1.0  0.9226755099960966  0.436978136086303  0.8970006531756455  1.0000
  N   N7        1.0  0.4369787574807233  0.9226748604597432  0.8970012482264381  1.0000
  N   N8        1.0  0.07731882536422324  0.5630183595966612  0.10299665623499271  1.0000
  N   N9        1.0  0.692558710790152  0.9838829132848941  0.06621558583024992  1.0000
  N   N10       1.0  0.01611245566963499  0.3074394149636674  0.9337810981650776  1.0000
  N   N11       1.0  0.3074406408752921  0.016112492788984373  0.9337826238106928  1.0000
  N   N12       1.0  0.983881501467778  0.6925594312200332  0.06621503448133124  1.0000
  N   N13       1.0  0.7536546618819032  0.043608467644055786  0.9562170859962579  1.0000
  N   N14       1.0  0.9563831162550542  0.24633016535617713  0.04378971238959649  1.0000
  N   N15       1.0  0.24633390532132185  0.9563825503931295  0.043791238529664184  1.0000
  N   N16       1.0  0.0436059447370241  0.7536572533855262  0.9562191855184281  1.0000
  N   N17       1.0  0.01494727597833639  0.01494439077799109  0.7140894613363074  1.0000
  N   N18       1.0  0.9850540135740928  0.9850544965012206  0.28592562527965276  1.0000
  N   N19       1.0  0.5206517938979259  0.520649382037888  0.2641863675079179  1.0000
  N   N20       1.0  0.4793454308081309  0.479353268632309  0.7358117098573161  1.0000
  N   N21       1.0  0.1433799895891283  0.43482133504028997  0.3644780991874086  1.0000
  N   N22       1.0  0.5651911769888471  0.8566174989156535  0.6355212255292743  1.0000
  N   N23       1.0  0.8566106474638674  0.565177747218634  0.6355226659434692  1.0000
  N   N24       1.0  0.4348217912557857  0.14338548524699488  0.3644787591657632  1.0000
  N   N25       1.0  0.8994261072026503  0.5617843160820186  0.3670721293089868  1.0000
  N   N26       1.0  0.43822852051192035  0.10058609369261967  0.6329214571396662  1.0000
  N   N27       1.0  0.1005718786622083  0.43822063908356756  0.6329237568035211  1.0000
  N   N28       1.0  0.5617819110253423  0.8994250896836035  0.36707423160484615  1.0000
  N   N29       1.0  0.8904908420395329  0.4024215008128138  0.3855411944509015  1.0000
  N   N30       1.0  0.5975863113606081  0.10952262484594398  0.614453967535887  1.0000
  N   N31       1.0  0.10951179469981298  0.5975763628936548  0.614456767507761  1.0000
  N   N32       1.0  0.4024268261932987  0.890486165048415  0.38554166350534314  1.0000
  N   N33       1.0  0.03671308302149609  0.3274477955260693  0.38467157619951564  1.0000
  N   N34       1.0  0.6725615716061313  0.9633003713670546  0.6153261942653572  1.0000
  N   N35       1.0  0.9632905600283551  0.6725526178236905  0.6153281670538746  1.0000
  N   N36       1.0  0.32745057365710295  0.03670861162139969  0.3846728347928376  1.0000
