data_image0
_chemical_formula_structural       Zn4H60C78N12O16
_chemical_formula_sum              "Zn4 H60 C78 N12 O16"
_cell_length_a       11.882325297946213
_cell_length_b       11.896207012946599
_cell_length_c       24.173114229308624
_cell_angle_alpha    89.96501671054472
_cell_angle_beta     89.8377209433729
_cell_angle_gamma    89.89663703669792

_space_group_name_H-M_alt    "P 1"
_space_group_IT_number       1

loop_
  _space_group_symop_operation_xyz
  'x, y, z'

loop_
  _atom_site_type_symbol
  _atom_site_label
  _atom_site_symmetry_multiplicity
  _atom_site_fract_x
  _atom_site_fract_y
  _atom_site_fract_z
  _atom_site_occupancy
  Zn  Zn1       1.0  0.6168617487744186  0.5012592894071374  0.5003711759309297  1.0000
  Zn  Zn2       1.0  0.38516338744965856  0.5016367404194071  0.49986975905466113  1.0000
  Zn  Zn3       1.0  0.0022702554494812995  0.8877212965031163  0.00034763390689819984  1.0000
  Zn  Zn4       1.0  0.0048902644079618  0.11930845763293264  0.0001630754652027  1.0000
  H   H1        1.0  0.18107710245270434  0.5055532436052559  0.4252359999890558  1.0000
  H   H2        1.0  0.23239254813904614  0.48906184411122666  0.5936031509924504  1.0000
  H   H3        1.0  0.8209430610342707  0.5062557408115538  0.5750276857803414  1.0000
  H   H4        1.0  0.7697728957386688  0.48695419647407323  0.40674775966787274  1.0000
  H   H5        1.0  0.6797370538234732  0.1392724418153577  0.720790763183551  1.0000
  H   H6        1.0  0.32800226095680785  0.8641233502426716  0.7202827745490693  1.0000
  H   H7        1.0  0.36576610109969465  0.17712200056703148  0.7794417194308492  1.0000
  H   H8        1.0  0.6422741224602433  0.8253401741722257  0.7805284926694397  1.0000
  H   H9        1.0  0.33653483241916143  0.22580122165191344  0.6133753873157133  1.0000
  H   H10       1.0  0.6731381133456223  0.7746748572616725  0.6141629864876208  1.0000
  H   H11       1.0  0.27953905858912986  0.8351549504982501  0.887982451888483  1.0000
  H   H12       1.0  0.7267506965552997  0.16935193445931418  0.8873495126799538  1.0000
  H   H13       1.0  0.3296941510137117  0.0792619194303228  0.6867148100901375  1.0000
  H   H14       1.0  0.6796971615993929  0.9204127881654429  0.687798262302735  1.0000
  H   H15       1.0  0.4246348859224868  0.8268128024194255  0.8137244841937986  1.0000
  H   H16       1.0  0.5821738071428157  0.17600242135564773  0.8133002823306299  1.0000
  H   H17       1.0  0.6773532103280999  0.8632854325634015  0.2804069328873808  1.0000
  H   H18       1.0  0.32593649052995494  0.13979309925747427  0.2790717428086679  1.0000
  H   H19       1.0  0.3643482460514989  0.8272022600336941  0.2193427854729109  1.0000
  H   H20       1.0  0.6413512686694959  0.17760230674451097  0.2202858800190626  1.0000
  H   H21       1.0  0.33021391341012674  0.77635892390051  0.38525976879992635  1.0000
  H   H22       1.0  0.6671434619997355  0.22633706257099107  0.3876048284455108  1.0000
  H   H23       1.0  0.28161907272063763  0.1721985487442553  0.1125031133713961  1.0000
  H   H24       1.0  0.7268253696698255  0.8337663657252677  0.1129826322473804  1.0000
  H   H25       1.0  0.3258845100104892  0.9234414135229019  0.312151217934634  1.0000
  H   H26       1.0  0.6760860504525682  0.0809632937577121  0.3137926102189112  1.0000
  H   H27       1.0  0.42607228761873733  0.17751247292196837  0.18670921328982357  1.0000
  H   H28       1.0  0.5819812571737017  0.8271340559758471  0.18739718955690424  1.0000
  H   H29       1.0  0.15843732977258185  0.32480530470608937  0.9995804083327542  1.0000
  H   H30       1.0  0.8157500470593108  0.2709779081576826  0.9997607887225753  1.0000
  H   H31       1.0  0.8505634348949231  0.6823807772340944  0.0005427924932063998  1.0000
  H   H32       1.0  0.19313512066641897  0.7367037798211058  0.9995247505380432  1.0000
  H   H33       1.0  0.9472691352842659  0.420253639852497  0.34625007011480585  1.0000
  H   H34       1.0  0.0740213427459508  0.49235126452361305  0.3614044232477198  1.0000
  H   H35       1.0  0.9497501467986781  0.568442180050532  0.3455145210899246  1.0000
  H   H36       1.0  0.05456482530705391  0.4222868867198813  0.6543233389347307  1.0000
  H   H37       1.0  0.927814277393324  0.49451689731225207  0.6387900481872748  1.0000
  H   H38       1.0  0.051885292123138506  0.570524301495908  0.6545834085315789  1.0000
  H   H39       1.0  0.31750760721188703  0.5583626514670854  0.9627961965717945  1.0000
  H   H40       1.0  0.2877397980630221  0.4339540711358012  0.0003553671354979001  1.0000
  H   H41       1.0  0.3176848131226607  0.560964767085679  0.0358379466615872  1.0000
  H   H42       1.0  0.6911663437761747  0.4491954052404808  0.9643619350440601  1.0000
  H   H43       1.0  0.7215844679944183  0.5738262591133889  0.0014508078045452003  1.0000
  H   H44       1.0  0.6919962007777728  0.4470817719447737  0.0374103684696152  1.0000
  H   H45       1.0  0.2942261194267317  0.6723460951115285  0.607364967963413  1.0000
  H   H46       1.0  0.22776567795069272  0.755399089837098  0.6570993395686101  1.0000
  H   H47       1.0  0.8578623258998163  0.7974475317242237  0.883583007078073  1.0000
  H   H48       1.0  0.787252663596327  0.7343638934856358  0.8279403990547323  1.0000
  H   H49       1.0  0.713287955775968  0.3363533571087062  0.6096393948461838  1.0000
  H   H50       1.0  0.780254609203041  0.2532836463704058  0.6594990750386458  1.0000
  H   H51       1.0  0.14926140488149287  0.2073751793716241  0.8825592479134272  1.0000
  H   H52       1.0  0.22032580090237272  0.2692297473778922  0.8264454793837713  1.0000
  H   H53       1.0  0.28938709378368804  0.33460950239878434  0.39096152062936085  1.0000
  H   H54       1.0  0.2235996343307676  0.2519074487257527  0.3407497059626579  1.0000
  H   H55       1.0  0.8576590872214211  0.2053457811809452  0.1169796360838333  1.0000
  H   H56       1.0  0.7868224993354573  0.26822181141066187  0.17269596103509596  1.0000
  H   H57       1.0  0.7082661198886414  0.6690836258842198  0.3925240776921513  1.0000
  H   H58       1.0  0.7757741585984947  0.7522153298016717  0.34321881553123024  1.0000
  H   H59       1.0  0.1480334903935301  0.8015089544646017  0.11670609355638112  1.0000
  H   H60       1.0  0.21866492347477623  0.7379064391499739  0.1720852291790109  1.0000
  C   C1        1.0  0.5005092402391115  0.6541375175081258  0.42080268609485927  1.0000
  C   C2        1.0  0.4943900897940098  0.3474130662796071  0.42172124069350037  1.0000
  C   C3        1.0  0.5079782129913468  0.3485487545000724  0.5792997570522971  1.0000
  C   C4        1.0  0.5016227651961672  0.6553859155823004  0.5786239318780275  1.0000
  C   C5        1.0  0.1576620027870987  0.003135328224757899  0.0779455947806156  1.0000
  C   C6        1.0  0.15824739904034857  0.0073849939613879  0.9224776093600724  1.0000
  C   C7        1.0  0.8492816215296629  0.9982656252749108  0.9223161660049752  1.0000
  C   C8        1.0  0.8488118743782564  0.004058068694519099  0.0779265338972479  1.0000
  C   C9        1.0  0.14151714570942892  0.5013328603229823  0.4659101903215016  1.0000
  C   C10       1.0  0.1691389303762492  0.4943624166618791  0.561071605969417  1.0000
  C   C11       1.0  0.055413295185871916  0.4970015139958193  0.5733860043230123  1.0000
  C   C12       1.0  0.9791028533114459  0.4996426513244359  0.5278837034027433  1.0000
  C   C13       1.0  0.8605526955164251  0.5014690491698558  0.5343803802365911  1.0000
  C   C14       1.0  0.8329733469574735  0.4929614413999985  0.43926180270014464  1.0000
  C   C15       1.0  0.9466727806991528  0.4957795469469701  0.4269302547816736  1.0000
  C   C16       1.0  0.022973344167695604  0.4993210531096608  0.47240846691124716  1.0000
  C   C17       1.0  0.5041168674195546  0.0009661112569361  0.7502807497567829  1.0000
  C   C18       1.0  0.40369145617075464  0.0020034212848117  0.7906439677519259  1.0000
  C   C19       1.0  0.6038822929180087  0.0006350035589477  0.7908106998637834  1.0000
  C   C20       1.0  0.5038258216900219  0.9007451866266932  0.7101032407679497  1.0000
  C   C21       1.0  0.5047082798622001  0.10084811553285533  0.7098029130198285  1.0000
  C   C22       1.0  0.603312569596298  0.15804653418898337  0.6976287043932032  1.0000
  C   C23       1.0  0.40487010925586014  0.8447618230447064  0.6973777290907393  1.0000
  C   C24       1.0  0.34662412064935216  0.10083359329966872  0.8026801636830213  1.0000
  C   C25       1.0  0.6609779333461107  0.9021185185398294  0.8033820091227852  1.0000
  C   C26       1.0  0.6093141577993039  0.2398088160278391  0.6554170995186509  1.0000
  C   C27       1.0  0.39892096949269273  0.7641398350648032  0.6547122490177415  1.0000
  C   C28       1.0  0.2657525297176235  0.1077695034282016  0.845479828924617  1.0000
  C   C29       1.0  0.7414024942773024  0.89604330501129  0.8462280317617397  1.0000
  C   C30       1.0  0.5102383837577308  0.2653773811818568  0.6249709846948974  1.0000
  C   C31       1.0  0.4985746810041078  0.7376388546646311  0.6246740047567484  1.0000
  C   C32       1.0  0.241385130335054  0.009259034008017902  0.8767356166467053  1.0000
  C   C33       1.0  0.7656590665886186  0.9951775974923506  0.876920277789061  1.0000
  C   C34       1.0  0.4109077273832469  0.2066578145921056  0.6379623560215961  1.0000
  C   C35       1.0  0.5982852241820993  0.7946256153725102  0.6384205342337593  1.0000
  C   C36       1.0  0.2993017701146812  0.909523679184943  0.8634795471197094  1.0000
  C   C37       1.0  0.707365234869812  0.09444749243084521  0.8632718221533081  1.0000
  C   C38       1.0  0.40708288424809785  0.1256533298864611  0.6789808363808661  1.0000
  C   C39       1.0  0.601978094756106  0.8750525596466118  0.6796525122166557  1.0000
  C   C40       1.0  0.3791191176283065  0.9046779872569745  0.8217966163006238  1.0000
  C   C41       1.0  0.6278492312189458  0.09838990241739513  0.8216279244842111  1.0000
  C   C42       1.0  0.5025247761574292  0.0021624279972413995  0.24999864518363774  1.0000
  C   C43       1.0  0.40331307057264354  0.002323619327953  0.20915545515676107  1.0000
  C   C44       1.0  0.6032680863129443  0.002421455844825  0.20984140071229257  1.0000
  C   C45       1.0  0.5011346208048407  0.1020175258397131  0.2904015708955257  1.0000
  C   C46       1.0  0.5018014261207  0.9019060683782597  0.290226235835334  1.0000
  C   C47       1.0  0.6000514801192764  0.8445278460001973  0.3030478980673195  1.0000
  C   C48       1.0  0.40193148290002517  0.1586420994341751  0.3024935953256147  1.0000
  C   C49       1.0  0.34599308221825004  0.9041841959180134  0.19648165277410354  1.0000
  C   C50       1.0  0.6603691631344193  0.10087956478636781  0.19733084879943158  1.0000
  C   C51       1.0  0.6047475671912254  0.7629857833294765  0.34537587502992306  1.0000
  C   C52       1.0  0.39465307420226037  0.2395631586100109  0.3449950199271115  1.0000
  C   C53       1.0  0.26557124203849014  0.8989456917843129  0.1536279515764534  1.0000
  C   C54       1.0  0.740920606168139  0.10684515599401581  0.1543387137337078  1.0000
  C   C55       1.0  0.5045285329252637  0.7371739623325625  0.3750510380668644  1.0000
  C   C56       1.0  0.49319078436572994  0.26503545568560577  0.375755822065841  1.0000
  C   C57       1.0  0.2417158988457544  0.9985374494119982  0.12308751493308989  1.0000
  C   C58       1.0  0.7652953642167547  0.0076857162487656006  0.12356525960687038  1.0000
  C   C59       1.0  0.40552274705112973  0.7957621397727337  0.3612839640146391  1.0000
  C   C60       1.0  0.5932248908238124  0.20718489227427037  0.362754185196799  1.0000
  C   C61       1.0  0.30056857439034707  0.09719440413701359  0.1366779078393918  1.0000
  C   C62       1.0  0.7072706279507203  0.9084613412187038  0.1372715340884909  1.0000
  C   C63       1.0  0.4031024606879187  0.8769915010251951  0.3203474859855717  1.0000
  C   C64       1.0  0.5982397701407224  0.1268837958935762  0.3214727004284867  1.0000
  C   C65       1.0  0.3800291987870422  0.1003349391106241  0.1783300674684511  1.0000
  C   C66       1.0  0.627656278694431  0.9046152280572388  0.17904600902961934  1.0000
  C   C67       1.0  0.0752928518522964  0.36365893485103123  0.9996641471099676  1.0000
  C   C68       1.0  0.8816560950470773  0.33470737203150963  0.9999831247566104  1.0000
  C   C69       1.0  0.8561258744463415  0.44817818862195213  0.0003190572615281003  1.0000
  C   C70       1.0  0.9480436697274685  0.5252741046814577  0.0001376868553180001  1.0000
  C   C71       1.0  0.9337677140040981  0.6436581913277878  0.0002661614485930004  1.0000
  C   C72       1.0  0.1273142653245074  0.672878759169386  0.9998455328903475  1.0000
  C   C73       1.0  0.1530080046016664  0.5593987732448298  0.9997810911713856  1.0000
  C   C74       1.0  0.0611824810307553  0.4821271100284432  0.9998255116501511  1.0000
  C   C75       1.0  0.982667498063222  0.49410105560109946  0.36720960450422524  1.0000
  C   C76       1.0  0.019195546324915807  0.496007695164586  0.6330897991913459  1.0000
  C   C77       1.0  0.27484371576472455  0.5249837898355167  0.999710496884731  1.0000
  C   C78       1.0  0.7343613425330489  0.48278510423892834  0.0009384555264944004  1.0000
  N   N1        1.0  0.21082249780285167  0.49854022124622327  0.508678933694469  1.0000
  N   N2        1.0  0.7912450207943709  0.49785796196175636  0.4916304527876107  1.0000
  N   N3        1.0  0.9885780599963782  0.2937151614912992  0.9997034367193861  1.0000
  N   N4        1.0  0.020336124546901105  0.7136943475308257  7.72298161777e-05  1.0000
  N   N5        1.0  0.29712241873696854  0.7128144585194959  0.6445037170898544  1.0000
  N   N6        1.0  0.7904271550269114  0.7940751516494656  0.8576596819166723  1.0000
  N   N7        1.0  0.7102082609437163  0.29338496575049783  0.6461386703546239  1.0000
  N   N8        1.0  0.21660342612116076  0.20991167019283105  0.856378006905878  1.0000
  N   N9        1.0  0.29315129725072353  0.2923017694291516  0.35431438410149235  1.0000
  N   N10       1.0  0.7896843203502472  0.20891856010351265  0.142735770510086  1.0000
  N   N11       1.0  0.7060034764932656  0.7101852439842985  0.3555213945121096  1.0000
  N   N12       1.0  0.21631885169547624  0.7971710785563391  0.1420584107085077  1.0000
  O   O1        1.0  0.5944371481269214  0.609505412673343  0.43599177267793005  1.0000
  O   O2        1.0  0.4058231550359324  0.6311333803295582  0.4429345362448771  1.0000
  O   O3        1.0  0.3995709521266094  0.3915730077008845  0.4363420100261735  1.0000
  O   O4        1.0  0.5879629607369168  0.37050474342016315  0.44458098683954717  1.0000
  O   O5        1.0  0.414111450599286  0.37198304436221713  0.556716624185249  1.0000
  O   O6        1.0  0.6025008773500033  0.39295330564213765  0.5646033413747134  1.0000
  O   O7        1.0  0.596060354183301  0.6320557197841411  0.5562453149194084  1.0000
  O   O8        1.0  0.40741874484093193  0.6116283259290825  0.5634961120002515  1.0000
  O   O9        1.0  0.10380575853461242  0.9118151376464496  0.0669681117938765  1.0000
  O   O10       1.0  0.14185665972769362  0.09577078727827627  0.05251046745986089  1.0000
  O   O11       1.0  0.10557585727898561  0.0998717074610411  0.9333697820925763  1.0000
  O   O12       1.0  0.1419721925988497  0.9159142331624891  0.9486923519774919  1.0000
  O   O13       1.0  0.8656340688165401  0.0902544202231397  0.9479918511377505  1.0000
  O   O14       1.0  0.9023398446182115  0.9061108103721051  0.9333759533802279  1.0000
  O   O15       1.0  0.8648351632887669  0.9115706638172796  0.05241193509075259  1.0000
  O   O16       1.0  0.9018412547668574  0.09580336956913267  0.0665605868842221  1.0000
