data_image0
_chemical_formula_structural       Zn12H104C168N16O48
_chemical_formula_sum              "Zn12 H104 C168 N16 O48"
_cell_length_a       15.117901640415619
_cell_length_b       15.117916116956431
_cell_length_c       21.93235794200477
_cell_angle_alpha    90.00007519431439
_cell_angle_beta     89.99997586112164
_cell_angle_gamma    109.95520302575363

_space_group_name_H-M_alt    "P 1"
_space_group_IT_number       1

loop_
  _space_group_symop_operation_xyz
  'x, y, z'

loop_
  _atom_site_type_symbol
  _atom_site_label
  _atom_site_symmetry_multiplicity
  _atom_site_fract_x
  _atom_site_fract_y
  _atom_site_fract_z
  _atom_site_occupancy
  Zn  Zn1       1.0  0.21236630167733486  0.13768171075175667  0.8392964739955602  1.0000
  Zn  Zn2       1.0  0.7876331662028377  0.8623176218666658  0.3392962142759615  1.0000
  Zn  Zn3       1.0  0.8623170999632279  0.7876334346303152  0.6607039281722108  1.0000
  Zn  Zn4       1.0  0.1376823632268227  0.21236687759777337  0.16070418283192822  1.0000
  Zn  Zn5       1.0  0.2295943137085033  0.6458807606738403  0.8953308030528146  1.0000
  Zn  Zn6       1.0  0.7704051565726501  0.35411867998069363  0.3953305468054466  1.0000
  Zn  Zn7       1.0  0.35411976211132407  0.7704075453301871  0.6046698909131791  1.0000
  Zn  Zn8       1.0  0.6458811031502236  0.22959181247207283  0.10466955850364461  1.0000
  Zn  Zn9       1.0  0.2807154159621135  0.719284466757095  0.7500003536041789  1.0000
  Zn  Zn10      1.0  0.7192847518092477  0.2807149324717387  0.2500005019806864  1.0000
  Zn  Zn11      1.0  0.1758989302385743  0.1758990266734344  5.3790614599999995e-08  1.0000
  Zn  Zn12      1.0  0.8241012312640804  0.8241018764589185  0.5000002989306153  1.0000
  H   H1        1.0  0.363418678509575  0.5054803070402228  0.7014938330126695  1.0000
  H   H2        1.0  0.6365821938629281  0.49452056138164113  0.2014914620193977  1.0000
  H   H3        1.0  0.49451953296835427  0.6365771121783651  0.7985057860767243  1.0000
  H   H4        1.0  0.5054806413247519  0.3634243664824055  0.2985051586944962  1.0000
  H   H5        1.0  0.39015438387121987  0.3596465850091661  0.6655272704477824  1.0000
  H   H6        1.0  0.6098478914326293  0.6403533676770223  0.16552367059527742  1.0000
  H   H7        1.0  0.6403533363836686  0.6098425045298014  0.8344717901320422  1.0000
  H   H8        1.0  0.3596461327709051  0.390157480757466  0.33447168483769474  1.0000
  H   H9        1.0  0.2174370519457085  0.34829130768578415  0.856998723061089  1.0000
  H   H10       1.0  0.7825574921525345  0.6517070496019386  0.3569982752285128  1.0000
  H   H11       1.0  0.651706627213585  0.782561470182671  0.6430013453162928  1.0000
  H   H12       1.0  0.3482928352179329  0.21743880791373726  0.14300108782803989  1.0000
  H   H13       1.0  0.4247009146911225  0.2382671277566644  0.650880358871227  1.0000
  H   H14       1.0  0.5753034755805898  0.7617354989295251  0.15087596634988643  1.0000
  H   H15       1.0  0.7617347591423355  0.575299846004377  0.849120888775616  1.0000
  H   H16       1.0  0.2382661121501783  0.4246979971968159  0.34912221743640265  1.0000
  H   H17       1.0  0.43683868759562466  0.08055731624666153  0.6288484553050253  1.0000
  H   H18       1.0  0.5631664054494792  0.9194455067395921  0.1288464879818747  1.0000
  H   H19       1.0  0.9194456460141254  0.5631654618155791  0.8711522354507936  1.0000
  H   H20       1.0  0.08055663958164418  0.43683554929823015  0.37115362053862816  1.0000
  H   H21       1.0  0.23855154011479834  0.9671099523318604  0.7739801090450982  1.0000
  H   H22       1.0  0.7614500346376615  0.032889308712100274  0.27398047812794607  1.0000
  H   H23       1.0  0.032890597920747694  0.7614502860004819  0.7260194026706585  1.0000
  H   H24       1.0  0.9671095762287224  0.23855237684684025  0.22601989753791676  1.0000
  H   H25       1.0  0.46768985736467517  0.23034519733855055  0.041207187861729694  1.0000
  H   H26       1.0  0.5323103029413687  0.7696544613004548  0.5412070122336772  1.0000
  H   H27       1.0  0.7696548553182723  0.5323117669043284  0.4587934797467527  1.0000
  H   H28       1.0  0.2303460265980135  0.46768893563157826  0.9587935753808454  1.0000
  H   H29       1.0  0.46776408386570983  0.10951628249425485  0.8635733399535469  1.0000
  H   H30       1.0  0.5322367924894209  0.8904835744828714  0.363573179274816  1.0000
  H   H31       1.0  0.8904819412007683  0.5322361593969659  0.6364278055798208  1.0000
  H   H32       1.0  0.1095154097969839  0.4677633896977511  0.13642784230945182  1.0000
  H   H33       1.0  0.6206563143190422  0.08806857731606499  0.8909821259184838  1.0000
  H   H34       1.0  0.3793445632105232  0.91193133250664  0.3909824846058498  1.0000
  H   H35       1.0  0.9119279781947753  0.3793429997253597  0.6090184600523897  1.0000
  H   H36       1.0  0.08807218797912947  0.6206581135977063  0.1090181846465796  1.0000
  H   H37       1.0  0.8552653099876651  0.22747359622238156  0.11847014106753312  1.0000
  H   H38       1.0  0.14473555734634402  0.7725264501587786  0.6184705357963124  1.0000
  H   H39       1.0  0.7725229792425737  0.1447357460572576  0.38153029448783116  1.0000
  H   H40       1.0  0.22747508449363343  0.8552638524080934  0.8815298279239769  1.0000
  H   H41       1.0  0.7393015173097766  0.05975130048820177  0.9262277364055578  1.0000
  H   H42       1.0  0.26069795281412667  0.9402475377660335  0.42622769886650497  1.0000
  H   H43       1.0  0.940247615996654  0.2606999205543871  0.5737718503274607  1.0000
  H   H44       1.0  0.059752547185880196  0.739300462842145  0.0737726017811937  1.0000
  H   H45       1.0  0.8949322316283741  0.0635748270126655  0.9669711689033067  1.0000
  H   H46       1.0  0.1050679454398207  0.9364249905431806  0.46697117282603523  1.0000
  H   H47       1.0  0.9364249706115685  0.10506905070517543  0.5330283276063454  1.0000
  H   H48       1.0  0.0635737833904244  0.8949307765837347  0.033028306150662  1.0000
  H   H49       1.0  0.8383996502682365  0.2592932811609359  0.8319967216950985  1.0000
  H   H50       1.0  0.161598411345544  0.7407062218018297  0.33199607718739094  1.0000
  H   H51       1.0  0.7407044079888366  0.16159774076555075  0.6680047485221082  1.0000
  H   H52       1.0  0.2592964644299229  0.8384037250625411  0.1680059875556239  1.0000
  H   H53       1.0  0.706643122069636  0.32008235668887863  0.8432189996452168  1.0000
  H   H54       1.0  0.2933577593378587  0.679920108927661  0.34321871835277307  1.0000
  H   H55       1.0  0.679917913098592  0.2933562409376265  0.6567812171656372  1.0000
  H   H56       1.0  0.320081549923394  0.706644063728156  0.15678232006056447  1.0000
  H   H57       1.0  0.7020417394238551  0.422018459622656  0.9320166121007676  1.0000
  H   H58       1.0  0.2979598495058299  0.5779844159746119  0.4320162377249233  1.0000
  H   H59       1.0  0.5779828295783177  0.297958253919326  0.5679827561337092  1.0000
  H   H60       1.0  0.4220166281576779  0.7020412175691108  0.06798382547518858  1.0000
  H   H61       1.0  0.8328868906051524  0.4671259450658312  0.0066505378095627005  1.0000
  H   H62       1.0  0.16711608901416497  0.5328772499335699  0.506649798469539  1.0000
  H   H63       1.0  0.5328769122000878  0.167113454990016  0.49334914158198023  1.0000
  H   H64       1.0  0.46712185708250326  0.8328852739009848  0.9933494976258926  1.0000
  H   H65       1.0  0.9669339387976519  0.40832682418015753  0.9946974706918256  1.0000
  H   H66       1.0  0.0330676468932865  0.5916735243846462  0.4946971850667267  1.0000
  H   H67       1.0  0.5916739027442404  0.03306592081496969  0.5053030998146681  1.0000
  H   H68       1.0  0.40832484710751515  0.9669325290770204  0.0053030437018577  1.0000
  H   H69       1.0  0.049976798363630295  0.3244022061909249  0.9390610484523876  1.0000
  H   H70       1.0  0.950022666385635  0.6755940089225659  0.4390605738052571  1.0000
  H   H71       1.0  0.6755957559148413  0.9500227811925157  0.5609400171483827  1.0000
  H   H72       1.0  0.324404408198987  0.04997823943397609  0.06094007176310609  1.0000
  H   H73       1.0  0.9278137387052964  0.17481310496197003  0.8501214889563897  1.0000
  H   H74       1.0  0.07218502295910409  0.8251846858103846  0.3501218581837692  1.0000
  H   H75       1.0  0.82518658696128  0.07218636883072801  0.6498785100696551  1.0000
  H   H76       1.0  0.17481287576489987  0.9278139225248762  0.14987803017059062  1.0000
  H   H77       1.0  0.48413708498505065  0.8760797284811377  0.8144120738503916  1.0000
  H   H78       1.0  0.515863790744703  0.12392069568113577  0.3144107719408921  1.0000
  H   H79       1.0  0.12391665254149589  0.5158667220199362  0.685586781859577  1.0000
  H   H80       1.0  0.8760821094784745  0.4841340613767144  0.1855857002574695  1.0000
  H   H81       1.0  0.569113173690276  0.7792476879623393  0.9100031991115572  1.0000
  H   H82       1.0  0.43088629721955124  0.22075178098061343  0.4100024648283025  1.0000
  H   H83       1.0  0.22075313771488678  0.4308925790515304  0.5899969163870792  1.0000
  H   H84       1.0  0.7792449179729957  0.5691084432399903  0.0899963951599858  1.0000
  H   H85       1.0  0.6266035581357485  0.9738953703387595  0.7885120093553653  1.0000
  H   H86       1.0  0.37339450013363523  0.02610338681245852  0.28851066050353324  1.0000
  H   H87       1.0  0.026105064523562798  0.3733987702523861  0.7114881876581266  1.0000
  H   H88       1.0  0.9738943904745767  0.6265970060923536  0.2114872060725759  1.0000
  H   H89       1.0  0.7892930708341694  0.06139399879532446  0.7558725857264151  1.0000
  H   H90       1.0  0.2107056927162958  0.9386062581436149  0.2558711932912132  1.0000
  H   H91       1.0  0.9386070503638706  0.21071058031735396  0.7441260603775817  1.0000
  H   H92       1.0  0.0613924060328017  0.7892852589564753  0.2441273123003285  1.0000
  H   H93       1.0  0.9250208009832762  0.026521350471213703  0.8023267439625669  1.0000
  H   H94       1.0  0.07497796751994909  0.9734803199755716  0.30232633397324793  1.0000
  H   H95       1.0  0.9734801003613356  0.07498284737342684  0.6976713448015773  1.0000
  H   H96       1.0  0.026520059243367197  0.925013803082841  0.19767455274836015  1.0000
  H   H97       1.0  0.8955915854013907  0.9032235592547692  0.8816697289550391  1.0000
  H   H98       1.0  0.1044085924551439  0.0967780797488018  0.38166897727478505  1.0000
  H   H99       1.0  0.09677785978082198  0.10441280169170847  0.6183284424007952  1.0000
  H   H100      1.0  0.9032244120196323  0.8955863980285272  0.11833091496110631  1.0000
  H   H101      1.0  0.7315268123280703  0.814822563070855  0.9151239361330782  1.0000
  H   H102      1.0  0.268474069198156  0.18517871723830126  0.4151227607411982  1.0000
  H   H103      1.0  0.1851771469065895  0.2684789214542178  0.5848747361399872  1.0000
  H   H104      1.0  0.8148223130343197  0.7315212445732939  0.084875718683378  1.0000
  C   C1        1.0  0.26945672402069926  0.5234765050673927  0.8041321576692866  1.0000
  C   C2        1.0  0.7305413319557132  0.47652095825771573  0.30413019931305024  1.0000
  C   C3        1.0  0.4765194317705904  0.7305383673940539  0.6958688958021354  1.0000
  C   C4        1.0  0.5234786225291828  0.2694602111378046  0.19586726675333924  1.0000
  C   C5        1.0  0.2890774567161642  0.43822423303141983  0.7821217151586454  1.0000
  C   C6        1.0  0.7109213079590546  0.5617760745175886  0.28212120704484533  1.0000
  C   C7        1.0  0.5617751643197763  0.7109197452276702  0.7178774521950188  1.0000
  C   C8        1.0  0.4382250065185431  0.2890815779788625  0.21787677729942356  1.0000
  C   C9        1.0  0.3378487677480493  0.440396259583288  0.7276405628797916  1.0000
  C   C10       1.0  0.6621513975840472  0.5596024345618815  0.22763824309231506  1.0000
  C   C11       1.0  0.5596036058302474  0.6621484686871921  0.772359032725916  1.0000
  C   C12       1.0  0.44039656882363687  0.3378536215325808  0.2723584011046682  1.0000
  C   C13       1.0  0.3518096406394875  0.3589426162117633  0.7076431303483232  1.0000
  C   C14       1.0  0.6481919342327698  0.6410578408722994  0.20764179980309896  1.0000
  C   C15       1.0  0.6410565286486615  0.648188911810223  0.792355496655972  1.0000
  C   C16       1.0  0.35894364389978506  0.351811893021761  0.2923549011006514  1.0000
  C   C17       1.0  0.31353679642853655  0.2759757183106402  0.7414456655836901  1.0000
  C   C18       1.0  0.6864633709761987  0.7240236644213452  0.24144257488735124  1.0000
  C   C19       1.0  0.7240249506658926  0.6864624052278002  0.7585538467524345  1.0000
  C   C20       1.0  0.2759752189531  0.31353767246346104  0.25855415257861847  1.0000
  C   C21       1.0  0.25486199533347786  0.35337894476463555  0.8139303912980153  1.0000
  C   C22       1.0  0.7451339499106951  0.6466178211244298  0.3139290377883058  1.0000
  C   C23       1.0  0.6466197410660827  0.7451353918770921  0.686070569754456  1.0000
  C   C24       1.0  0.3533790194935023  0.2548647304818558  0.18606988853959897  1.0000
  C   C25       1.0  0.3234248332734991  0.18540823394955905  0.7238091248022441  1.0000
  C   C26       1.0  0.6765788534435158  0.8145929706298745  0.22380657442909072  1.0000
  C   C27       1.0  0.8145925046403661  0.6765757971349656  0.7761916956730348  1.0000
  C   C28       1.0  0.1854076657343882  0.323424314563148  0.27619249247667454  1.0000
  C   C29       1.0  0.38300126029501763  0.17689662246176843  0.6769491257435051  1.0000
  C   C30       1.0  0.6170024244141104  0.8231044917695695  0.1769461442737565  1.0000
  C   C31       1.0  0.8231048476537238  0.6170016858301252  0.8230511983188009  1.0000
  C   C32       1.0  0.17689673216361967  0.3829989937667406  0.3230520512030139  1.0000
  C   C33       1.0  0.3904912899388364  0.08940359404382997  0.6646768070054137  1.0000
  C   C34       1.0  0.6095138031603256  0.9105986360498405  0.1646748183468745  1.0000
  C   C35       1.0  0.910598526518818  0.6095123829011512  0.8353243725007503  1.0000
  C   C36       1.0  0.08940235306928908  0.3904894055241143  0.33532480142357457  1.0000
  C   C37       1.0  0.3381897629886694  0.012013436794724408  0.699635629198241  1.0000
  C   C38       1.0  0.6618139226925805  0.987987721178854  0.19963460700515162  1.0000
  C   C39       1.0  0.9879890443746362  0.6618141355094663  0.8003655353971127  1.0000
  C   C40       1.0  0.0120125433574074  0.3381904721724425  0.3003650276769889  1.0000
  C   C41       1.0  0.2799336862256823  0.025766050259179007  0.7455563789296492  1.0000
  C   C42       1.0  0.7200692977058339  0.9742349574756018  0.24555578349652052  1.0000
  C   C43       1.0  0.9742357371437436  0.7200683511873078  0.7544443725143709  1.0000
  C   C44       1.0  0.0257644397048011  0.2799350284345934  0.25444426433663375  1.0000
  C   C45       1.0  0.3408522709301991  0.9147355827448678  0.6896640110880413  1.0000
  C   C46       1.0  0.6591528217585818  0.08526603355824137  0.18966628062072033  1.0000
  C   C47       1.0  0.08526613912130898  0.6591526736365905  0.8103372324906248  1.0000
  C   C48       1.0  0.9147347468018053  0.34085237646745975  0.31033829049902556  1.0000
  C   C49       1.0  0.3631529071504005  0.18304296416850008  0.9361857358018709  1.0000
  C   C50       1.0  0.6368472700798049  0.8169574560025765  0.4361854787570536  1.0000
  C   C51       1.0  0.8169570167665511  0.6368477420064805  0.5638136918143175  1.0000
  C   C52       1.0  0.1830431459893092  0.36315262219089556  0.06381498100807191  1.0000
  C   C53       1.0  0.4995035768649458  0.19937003263675024  0.006393311103309399  1.0000
  C   C54       1.0  0.5004965789871108  0.800628234937811  0.5063927165880173  1.0000
  C   C55       1.0  0.8006299114585644  0.500497794329128  0.4936077751352528  1.0000
  C   C56       1.0  0.1993716756668249  0.4995032141059569  0.9936079083431651  1.0000
  C   C57       1.0  0.45623609341405563  0.171739764038108  0.9500150556913739  1.0000
  C   C58       1.0  0.5437640844087142  0.8282606827964044  0.4500148356776067  1.0000
  C   C59       1.0  0.8282605584569537  0.5437647616131186  0.549985221779835  1.0000
  C   C60       1.0  0.17173960518749712  0.45623623789299467  0.049986142074779104  1.0000
  C   C61       1.0  0.5007262104521644  0.1313879370550808  0.907861788745585  1.0000
  C   C62       1.0  0.4992753744802982  0.8686135680302413  0.40786252978513454  1.0000
  C   C63       1.0  0.8686116222231418  0.4992740970412369  0.5921388942489186  1.0000
  C   C64       1.0  0.1313864291131281  0.5007249434672332  0.0921380424436435  1.0000
  C   C65       1.0  0.5854083477694516  0.11971669701454599  0.9231843371805368  1.0000
  C   C66       1.0  0.4145925296587905  0.8802826129242332  0.4231846572102996  1.0000
  C   C67       1.0  0.8802806284284229  0.4145914110281693  0.5768162885485992  1.0000
  C   C68       1.0  0.11971883116719076  0.5854087394620036  0.0768168841779229  1.0000
  C   C69       1.0  0.6253399498773787  0.15048978301050644  0.980361963988095  1.0000
  C   C70       1.0  0.3746595210849577  0.8495084976454095  0.48036181189166177  1.0000
  C   C71       1.0  0.8495071830448351  0.37465948057673154  0.5196386562977864  1.0000
  C   C72       1.0  0.15049368153552214  0.625341037224139  0.019638367097528003  1.0000
  C   C73       1.0  0.8324347911350712  0.18995299743104244  0.0756170059593302  1.0000
  C   C74       1.0  0.16756607436275317  0.8100469663278389  0.5756174278743914  1.0000
  C   C75       1.0  0.8100438790880347  0.16756683751874854  0.4243834208655387  1.0000
  C   C76       1.0  0.18995418648436407  0.8324328435688882  0.9243829445764008  1.0000
  C   C77       1.0  0.716657789655514  0.1446926523162588  0.0006692924123683  1.0000
  C   C78       1.0  0.28334236743241087  0.8553062661931534  0.5006688097682712  1.0000
  C   C79       1.0  0.855303830401972  0.28334273633871726  0.49933163226936733  1.0000
  C   C80       1.0  0.1446956458165687  0.7166575668039599  0.9993315207726851  1.0000
  C   C81       1.0  0.7665846939912129  0.09700336540639398  0.9684398088074103  1.0000
  C   C82       1.0  0.2334147794225458  0.9029962162054301  0.4684402015561133  1.0000
  C   C83       1.0  0.9029952114048996  0.23341498330047017  0.5315597838496373  1.0000
  C   C84       1.0  0.0970042462515224  0.7665850799324615  0.031559181273181  1.0000
  C   C85       1.0  0.8528897018094099  0.09818344754334149  0.9911395905589304  1.0000
  C   C86       1.0  0.14711117853059363  0.9018159934151481  0.4911395511988276  1.0000
  C   C87       1.0  0.9018155486430074  0.14711311444099098  0.5088599515074037  1.0000
  C   C88       1.0  0.09818320284227161  0.852886004279128  0.008859426273268398  1.0000
  C   C89       1.0  0.8876431784784415  0.14598760846607212  0.0454756681966586  1.0000
  C   C90       1.0  0.11235698052937691  0.8540113964320569  0.5454756896675975  1.0000
  C   C91       1.0  0.8540099337398245  0.11235795751542098  0.4545246996862105  1.0000
  C   C92       1.0  0.14598742940671627  0.887641542909698  0.9545242857775663  1.0000
  C   C93       1.0  0.9842886426475063  0.1544625207801076  0.06816815658234532  1.0000
  C   C94       1.0  0.0157115158515353  0.8455358658999613  0.5681691102036126  1.0000
  C   C95       1.0  0.8455362124215994  0.015711677765999348  0.43183124700315284  1.0000
  C   C96       1.0  0.1544632594235509  0.984287833263444  0.9318318295383321  1.0000
  C   C97       1.0  0.83742626818848  0.3044700771575606  0.8706136570588116  1.0000
  C   C98       1.0  0.16257390771320246  0.6955308785591824  0.3706134275528897  1.0000
  C   C99       1.0  0.6955298866449054  0.16257289696232383  0.6293869286925258  1.0000
  C   C100      1.0  0.30447168487425813  0.8374274092435597  0.12938815381374272  1.0000
  C   C101      1.0  0.7634711047815229  0.3390456738824311  0.8767087871694556  1.0000
  C   C102      1.0  0.2365283691450983  0.6609557167811745  0.3767089611507899  1.0000
  C   C103      1.0  0.6609538917693386  0.23652762839628852  0.6232918630845391  1.0000
  C   C104      1.0  0.339044869062576  0.7634736968666332  0.12329301166166572  1.0000
  C   C105      1.0  0.7613864950606554  0.3973334329858104  0.9258882043942976  1.0000
  C   C106      1.0  0.23861720179625934  0.6026688231811049  0.42588695746533745  1.0000
  C   C107      1.0  0.6026674887292386  0.23861280525961345  0.5741120257933758  1.0000
  C   C108      1.0  0.3973326700244897  0.7613855928806075  0.0741131556750645  1.0000
  C   C109      1.0  0.8352709863849769  0.4229407467279175  0.9679320202684423  1.0000
  C   C110      1.0  0.1647298944417699  0.5770593114574609  0.46793305134300306  1.0000
  C   C111      1.0  0.5770603067745413  0.16472843994071704  0.5320677252794965  1.0000
  C   C112      1.0  0.42293914942253247  0.835270962301543  0.032068002384427495  1.0000
  C   C113      1.0  0.9097566871455669  0.38914445475204207  0.9614402162566479  1.0000
  C   C114      1.0  0.090244898601469  0.6108564916616004  0.46143901950684113  1.0000
  C   C115      1.0  0.6108552836857937  0.09024279403890023  0.5385603768312067  1.0000
  C   C116      1.0  0.3891441713083593  0.9097559587506437  0.038560730733351506  1.0000
  C   C117      1.0  0.9114617282593895  0.32778106543469926  0.9134955030665068  1.0000
  C   C118      1.0  0.08853703760161119  0.6722175094960648  0.41349618583239334  1.0000
  C   C119      1.0  0.6722175542067459  0.08853650267456448  0.5865050525376604  1.0000
  C   C120      1.0  0.3277819058040095  0.9114636664956635  0.0865054256807767  1.0000
  C   C121      1.0  0.9880946351267497  0.289758279471279  0.9108281830298708  1.0000
  C   C122      1.0  0.0119041276576723  0.7102389663738436  0.4108275542890638  1.0000
  C   C123      1.0  0.7102408922289171  0.011905036325678922  0.5891732163265075  1.0000
  C   C124      1.0  0.28975927309465277  0.9880960387353356  0.08917321347160372  1.0000
  C   C125      1.0  0.9880941400589407  0.21442477921200978  0.8779411243049039  1.0000
  C   C126      1.0  0.0119039190801047  0.7855728264211024  0.37794101932158947  1.0000
  C   C127      1.0  0.7855743065314017  0.011905077598243084  0.6220593183841601  1.0000
  C   C128      1.0  0.21442515500277887  0.9880951601210483  0.1220588813170735  1.0000
  C   C129      1.0  0.0702333437001883  0.18326914824937285  0.8737638532760457  1.0000
  C   C130      1.0  0.9297654219394855  0.816730012047273  0.37376351151309717  1.0000
  C   C131      1.0  0.816730619632473  0.9297670405848348  0.6262371164065713  1.0000
  C   C132      1.0  0.183268139844472  0.07023362838390311  0.1262363180802311  1.0000
  C   C133      1.0  0.40057274387478264  0.7603491935400585  0.8732930717547873  1.0000
  C   C134      1.0  0.5994274291794497  0.23965044340091166  0.3732927618020909  1.0000
  C   C135      1.0  0.23965067415704766  0.5994318753526782  0.6267066767324466  1.0000
  C   C136      1.0  0.7603487846140098  0.40056704738540116  0.1267064651964347  1.0000
  C   C137      1.0  0.4896657346627435  0.8302948967629431  0.8514823940008895  1.0000
  C   C138      1.0  0.5103330300222169  0.16970422057472231  0.3514825027405948  1.0000
  C   C139      1.0  0.16970259724932651  0.5103377046623478  0.6485164312117463  1.0000
  C   C140      1.0  0.8302961617011062  0.48966234529012803  0.1485149118491407  1.0000
  C   C141      1.0  0.5728537290755752  0.8309346237458469  0.8742259469023637  1.0000
  C   C142      1.0  0.4271471447737055  0.1690639298266916  0.3742242552780439  1.0000
  C   C143      1.0  0.1690643255293764  0.42715182228421605  0.6257737411449752  1.0000
  C   C144      1.0  0.8309337272480946  0.5728472830736919  0.1257732083707594  1.0000
  C   C145      1.0  0.6671840418935702  0.8880012344709199  0.8547260036546903  1.0000
  C   C146      1.0  0.3328147244114916  0.1119985510909416  0.354725655722291  1.0000
  C   C147      1.0  0.11199880051615449  0.33282095806885786  0.645272750350749  1.0000
  C   C148      1.0  0.8879999568142055  0.6671784236607365  0.14527319791662313  1.0000
  C   C149      1.0  0.6851420989546783  0.9587887246184437  0.8098033664862926  1.0000
  C   C150      1.0  0.31485666246325655  0.04120965038885059  0.3098025040692178  1.0000
  C   C151      1.0  0.0412120666537348  0.3148609790677027  0.6901954189161543  1.0000
  C   C152      1.0  0.958786683714713  0.6851345174492421  0.19019586222297855  1.0000
  C   C153      1.0  0.7769095735577096  0.008082839370054388  0.7914423824172232  1.0000
  C   C154      1.0  0.22308919151689113  0.9919174861500294  0.29144240223814677  1.0000
  C   C155      1.0  0.9919170508453519  0.2230938203476853  0.7085576072043835  1.0000
  C   C156      1.0  0.0080831092257583  0.7769028510957908  0.20855886336205032  1.0000
  C   C157      1.0  0.8530810776463935  0.9882703391608059  0.8168171932741258  1.0000
  C   C158      1.0  0.1469183907516864  0.011729612086647011  0.3168158968273502  1.0000
  C   C159      1.0  0.011730857769052198  0.14692166375330373  0.6831810538917792  1.0000
  C   C160      1.0  0.9882700064132521  0.853075859511698  0.18318391959725494  1.0000
  C   C161      1.0  0.8364840479354285  0.9189044450614787  0.8616518330516953  1.0000
  C   C162      1.0  0.16351612906338175  0.08109715534731515  0.3616515061499896  1.0000
  C   C163      1.0  0.0810955245304683  0.16352135758061337  0.6383463827536106  1.0000
  C   C164      1.0  0.9189046399378641  0.8364784883477014  0.1383478856896758  1.0000
  C   C165      1.0  0.7446807816593689  0.8696082824422644  0.8803917152362787  1.0000
  C   C166      1.0  0.2553200968975062  0.13039226893108943  0.38039049432495625  1.0000
  C   C167      1.0  0.1303922497812096  0.2553233749045845  0.619606069884192  1.0000
  C   C168      1.0  0.8696072101667625  0.7446761961157122  0.11960750440963612  1.0000
  N   N1        1.0  0.2650367125711242  0.27434220953430344  0.7933060328245392  1.0000
  N   N2        1.0  0.7349620496210533  0.7256567956364534  0.29330520934183113  1.0000
  N   N3        1.0  0.7256558587653998  0.7349629241848915  0.7066935073662464  1.0000
  N   N4        1.0  0.2743436049140939  0.26503681474139273  0.206693314058775  1.0000
  N   N5        1.0  0.27282108526883064  0.1097212848892255  0.7572213741801833  1.0000
  N   N6        1.0  0.7271818947191022  0.8902777594225669  0.25721978922863536  1.0000
  N   N7        1.0  0.890278927867911  0.7271801362199284  0.7427785194931502  1.0000
  N   N8        1.0  0.10972124403740222  0.2728212349981121  0.24277929258411754  1.0000
  N   N9        1.0  0.5816394424074147  0.18956404263916232  0.0204993932740152  1.0000
  N   N10       1.0  0.4183607155302056  0.8104349141037303  0.5204992872311607  1.0000
  N   N11       1.0  0.8104334426033333  0.4183604965139907  0.47950118237337597  1.0000
  N   N12       1.0  0.1895667350017547  0.5816393452003439  0.9795013923438561  1.0000
  N   N13       1.0  0.7498761394495046  0.18931051110947544  0.05351679464560989  1.0000
  N   N14       1.0  0.2501233161855012  0.8106882705165931  0.5535171933185552  1.0000
  N   N15       1.0  0.8106856652998786  0.25012353249023533  0.44648322491617165  1.0000
  N   N16       1.0  0.18931380865419806  0.7498766687589223  0.9464831304477029  1.0000
  O   O1        1.0  0.264687905469799  0.5794940900351548  0.7625146793126163  1.0000
  O   O2        1.0  0.7353108568841689  0.4205055177402741  0.26251449294746726  1.0000
  O   O3        1.0  0.42050115953720274  0.7353002360947796  0.737485498388139  1.0000
  O   O4        1.0  0.5794975987820549  0.26469799948218753  0.23748567267950446  1.0000
  O   O5        1.0  0.2583140001821036  0.5309810697049286  0.861088646918482  1.0000
  O   O6        1.0  0.741683358960863  0.4690182505725531  0.36108850238246504  1.0000
  O   O7        1.0  0.46901890962995185  0.7416870523797953  0.6389119616902974  1.0000
  O   O8        1.0  0.5309805496640934  0.2583118938908626  0.13891214423141923  1.0000
  O   O9        1.0  0.3882613223516742  0.9023640575637586  0.6446081956242011  1.0000
  O   O10       1.0  0.6117402542630542  0.09763826390062748  0.1446082102356883  1.0000
  O   O11       1.0  0.09763734186877568  0.6117419306046942  0.8553934683718369  1.0000
  O   O12       1.0  0.9023635474660239  0.38826386833889603  0.3553932047838729  1.0000
  O   O13       1.0  0.292945688939092  0.8537104382011264  0.7273530526121307  1.0000
  O   O14       1.0  0.7070551800981305  0.14628849416928347  0.22735445135801774  1.0000
  O   O15       1.0  0.1462914851952988  0.7070585199381297  0.7726486391167812  1.0000
  O   O16       1.0  0.8537093917073051  0.29294314764807433  0.27265103945134683  1.0000
  O   O17       1.0  0.31651588866484553  0.19538672226142487  0.9813550820265036  1.0000
  O   O18       1.0  0.6834849942181691  0.8046140237740997  0.48135525636217835  1.0000
  O   O19       1.0  0.8046136150082503  0.6834840780660087  0.5186452925378687  1.0000
  O   O20       1.0  0.19538654433106473  0.31651553707337854  0.018645624296453903  1.0000
  O   O21       1.0  0.3415505312983526  0.17775106435507124  0.8800841535123495  1.0000
  O   O22       1.0  0.6584496435280087  0.8222492476506744  0.3800843509454168  1.0000
  O   O23       1.0  0.822248284094165  0.6584495029740225  0.6199157397447478  1.0000
  O   O24       1.0  0.177750473630816  0.3415504918371539  0.11991609912612232  1.0000
  O   O25       1.0  0.0046274974312084  0.183155872194817  0.1228286443443167  1.0000
  O   O26       1.0  0.9953719641359484  0.8168443670083647  0.6228288335361826  1.0000
  O   O27       1.0  0.8168443564872945  0.9953734383870055  0.3771713585338858  1.0000
  O   O28       1.0  0.18315651896935486  0.0046257828365767915  0.8771710509663323  1.0000
  O   O29       1.0  0.0360852462807344  0.1332530021127454  0.029800316176448405  1.0000
  O   O30       1.0  0.9639149135365485  0.8667466345338255  0.5298005593633662  1.0000
  O   O31       1.0  0.8667470900291008  0.9639168056946941  0.47019963834743816  1.0000
  O   O32       1.0  0.1332537908947842  0.036083256861481096  0.9701993734934646  1.0000
  O   O33       1.0  0.0721179578741484  0.12862238665714193  0.8294129199220777  1.0000
  O   O34       1.0  0.9278815095825479  0.8713769269063076  0.3294135397867636  1.0000
  O   O35       1.0  0.8713770932958055  0.9278828544919406  0.670587560215303  1.0000
  O   O36       1.0  0.1286209643641172  0.072117661210001  0.170586779351801  1.0000
  O   O37       1.0  0.1405329139561857  0.21449171342254664  0.9100577204414079  1.0000
  O   O38       1.0  0.8594651495212631  0.7855072780743626  0.4100578268044829  1.0000
  O   O39       1.0  0.7855073981961095  0.859466646535132  0.5899423141217427  1.0000
  O   O40       1.0  0.21449135824455107  0.1405332904860686  0.08994248196067639  1.0000
  O   O41       1.0  0.3229845002980056  0.7551310728768994  0.8443098768014747  1.0000
  O   O42       1.0  0.6770149707592381  0.244869593349172  0.3443095491603004  1.0000
  O   O43       1.0  0.244868908681326  0.6770193189344837  0.6556912825389104  1.0000
  O   O44       1.0  0.7551312565301628  0.3229805604336704  0.1556910026699327  1.0000
  O   O45       1.0  0.3980479330814005  0.7076929693134274  0.9180429108197145  1.0000
  O   O46       1.0  0.6019508359366836  0.29230693832568017  0.4180426475363817  1.0000
  O   O47       1.0  0.29230785991570934  0.6019560092079813  0.581959087609242  1.0000
  O   O48       1.0  0.7076915969379769  0.39804282725478396  0.08195843304665118  1.0000
