data_image0
_chemical_formula_structural       Zn8H12C42N6Cl6O26
_chemical_formula_sum              "Zn8 H12 C42 N6 Cl6 O26"
_cell_length_a       15.511285429275254
_cell_length_b       16.25219864657083
_cell_length_c       16.58303944855742
_cell_angle_alpha    90.35856116779046
_cell_angle_beta     117.454341073545
_cell_angle_gamma    119.26261885501658

_space_group_name_H-M_alt    "P 1"
_space_group_IT_number       1

loop_
  _space_group_symop_operation_xyz
  'x, y, z'

loop_
  _atom_site_type_symbol
  _atom_site_label
  _atom_site_symmetry_multiplicity
  _atom_site_fract_x
  _atom_site_fract_y
  _atom_site_fract_z
  _atom_site_occupancy
  Zn  Zn1       1.0  0.13743358456395777  0.15908122260244542  0.1106738652270423  1.0000
  Zn  Zn2       1.0  0.9320335364705697  0.9809147917295321  0.9146196200137522  1.0000
  Zn  Zn3       1.0  0.9196225177301116  0.9743730476256264  0.10277929205176407  1.0000
  Zn  Zn4       1.0  0.10292183188474274  0.9456507582981646  0.0856276866319661  1.0000
  Zn  Zn5       1.0  0.9392025430609862  0.3627602298374556  0.5184980288515533  1.0000
  Zn  Zn6       1.0  0.10499058949258708  0.5667281962726846  0.6839881574282884  1.0000
  Zn  Zn7       1.0  0.9065298476999928  0.5414248823375586  0.48019189591113326  1.0000
  Zn  Zn8       1.0  0.12959763906270183  0.5532393238411119  0.5012982979814139  1.0000
  H   H1        1.0  0.8416235545548502  0.3977459025835302  0.7571358280025676  1.0000
  H   H2        1.0  0.8848071402791005  0.24378830409916222  0.9692254771818795  1.0000
  H   H3        1.0  0.26089933206735333  0.3248632962556428  0.625426792356329  1.0000
  H   H4        1.0  0.2422068719611374  0.13448562273327982  0.4260672355179053  1.0000
  H   H5        1.0  0.74355896268289  0.2803920842987679  0.19403463758254702  1.0000
  H   H6        1.0  0.36885499981785597  0.09218433632818801  0.004805923495275997  1.0000
  H   H7        1.0  0.3204804096212897  0.8784666767068644  0.667443720559973  1.0000
  H   H8        1.0  0.6816269402306501  0.0745605660084792  0.8957915874038632  1.0000
  H   H9        1.0  0.7154509035630952  0.4832790155780985  0.6166629186565799  1.0000
  H   H10       1.0  0.7408766778410013  0.6599627060168914  0.8325644562047926  1.0000
  H   H11       1.0  0.8299954239494695  0.4629286585860442  0.19288069152582918  1.0000
  H   H12       1.0  0.7832497836531545  0.6502274188153978  0.016404030153729817  1.0000
  C   C1        1.0  0.850844284894009  0.3202766131152614  0.8635713618859526  1.0000
  C   C2        1.0  0.8720963074683326  0.353200232428371  0.7933330573706384  1.0000
  C   C3        1.0  0.9361500121720921  0.32882230234292825  0.7728090132819502  1.0000
  C   C4        1.0  0.954227053558803  0.24395047905185419  0.8815604735823398  1.0000
  C   C5        1.0  0.895118141203234  0.2666530681071464  0.9109992341111876  1.0000
  C   C6        1.0  0.9986528298495114  0.18268883388982005  0.929556305857737  1.0000
  C   C7        1.0  0.9715309759051819  0.37263471921275493  0.704787362138347  1.0000
  C   C8        1.0  0.2625939684488329  0.22891284605132262  0.5353929230411011  1.0000
  C   C9        1.0  0.23057105592712898  0.29023349212481975  0.5532349096458161  1.0000
  C   C10       1.0  0.15656948339106683  0.3043535984885891  0.4745560636045169  1.0000
  C   C11       1.0  0.14607116578957147  0.2035505615011814  0.36935295166515647  1.0000
  C   C12       1.0  0.21969307568684115  0.18369057813499273  0.4419054246294464  1.0000
  C   C13       1.0  0.09698692803727481  0.15517057672764883  0.2669451861983632  1.0000
  C   C14       1.0  0.1140551258628051  0.3656870134092287  0.48969193010633916  1.0000
  C   C15       1.0  0.5580030314546248  0.18743048339050725  0.08837558145975065  1.0000
  C   C16       1.0  0.6556096440839452  0.25114987265605043  0.17786150109031945  1.0000
  C   C17       1.0  0.6361968683670723  0.27509816160873163  0.24629992288186023  1.0000
  C   C18       1.0  0.4387405297105004  0.1756932224532264  0.14657618711920156  1.0000
  C   C19       1.0  0.44664336080730743  0.14583051531717936  0.07240400265295924  1.0000
  C   C20       1.0  0.31982838902859356  0.1310103634959177  0.13272174821414498  1.0000
  C   C21       1.0  0.7398617956337076  0.3414682049150883  0.34485381256347125  1.0000
  C   C22       1.0  0.5001906996646285  0.986997215121548  0.7795097191339266  1.0000
  C   C23       1.0  0.4037366329585838  0.8917527867302228  0.7225653996026012  1.0000
  C   C24       1.0  0.417810071574351  0.8137222867896056  0.7398109172151023  1.0000
  C   C25       1.0  0.6101925526468506  0.9175158981450481  0.8554822381849261  1.0000
  C   C26       1.0  0.6054070932856987  0.0010768699671146024  0.8493966682468397  1.0000
  C   C27       1.0  0.7264049903412584  0.9308942836706819  0.9199405994473793  1.0000
  C   C28       1.0  0.3115439007200111  0.7095351826122072  0.6855849876340301  1.0000
  C   C29       1.0  0.7153188199344455  0.5600050295696023  0.7243003915416111  1.0000
  C   C30       1.0  0.7639539083737998  0.5490496590306718  0.6755294682879905  1.0000
  C   C31       1.0  0.8778232515537212  0.6258564727320464  0.7049395844573566  1.0000
  C   C32       1.0  0.8897187522235939  0.7207032635833387  0.8161330291405803  1.0000
  C   C33       1.0  0.7781382956568876  0.647896679058192  0.7955347111357155  1.0000
  C   C34       1.0  0.9551557566775911  0.8194157210341189  0.8876442008159201  1.0000
  C   C35       1.0  0.9339802934454653  0.6123854777171689  0.6566438508174031  1.0000
  C   C36       1.0  0.7949458765316564  0.5455437152858735  0.09418914798688857  1.0000
  C   C37       1.0  0.8533744657355339  0.5354004806974116  0.18314298291042516  1.0000
  C   C38       1.0  0.9407561035159656  0.6217565660251765  0.2601227457302142  1.0000
  C   C39       1.0  0.9210750304552278  0.7205118747104252  0.16588516333627007  1.0000
  C   C40       1.0  0.8277996821140192  0.6396464548381857  0.08458023633473026  1.0000
  C   C41       1.0  0.9630398881525082  0.8224082212940401  0.15399276576174967  1.0000
  C   C42       1.0  0.992766826674483  0.610359783641165  0.3584112070169779  1.0000
  N   N1        1.0  0.9742772714694324  0.27289391760422893  0.8131019660810068  1.0000
  N   N2        1.0  0.11478489027602728  0.2631518305205276  0.38381778696630414  1.0000
  N   N3        1.0  0.5305859340531498  0.24130013955740284  0.2314909922035469  1.0000
  N   N4        1.0  0.5186829857838829  0.8247273620029391  0.8030431090843493  1.0000
  N   N5        1.0  0.94154607023534  0.710418901328957  0.7746025790715264  1.0000
  N   N6        1.0  0.9766944484517806  0.7133766262024821  0.252995932995212  1.0000
  Cl  Cl1       1.0  0.7742625917103467  0.34875081992832707  0.8939211166269272  1.0000
  Cl  Cl2       1.0  0.3534231742502456  0.20755308513115273  0.6287117042004127  1.0000
  Cl  Cl3       1.0  0.5745396485281018  0.15894837916753346  0.998442505578616  1.0000
  Cl  Cl4       1.0  0.4900197278964313  0.087193412616017  0.7626455342322629  1.0000
  Cl  Cl5       1.0  0.5784378277027286  0.4659539515450035  0.6959418162906769  1.0000
  Cl  Cl6       1.0  0.6808647323083861  0.4422520309247418  0.9970795630559548  1.0000
  O   O1        1.0  0.023973720734034008  0.015675304328944206  0.053564121609809896  1.0000
  O   O2        1.0  0.9602861799377106  0.10112056355389137  0.8763907576933575  1.0000
  O   O3        1.0  0.068026099856489  0.21817081765208712  0.019593727512969405  1.0000
  O   O4        1.0  0.06266812030283835  0.4600503786741897  0.7424889091054325  1.0000
  O   O5        1.0  0.9072903252465209  0.320606385129004  0.6181134449409385  1.0000
  O   O6        1.0  0.0013081752204442078  0.07071008118035141  0.2265684953239813  1.0000
  O   O7        1.0  0.158223343132093  0.2033289473511815  0.23268372725140543  1.0000
  O   O8        1.0  0.15851317250371014  0.4518453665758528  0.4805819188276885  1.0000
  O   O9        1.0  0.03722002361266869  0.3231485099079876  0.5112873682957826  1.0000
  O   O10       1.0  0.26182773466701537  0.0372690997289169  0.11578589512376418  1.0000
  O   O11       1.0  0.2894573027566593  0.1894185198503138  0.138100967095852  1.0000
  O   O12       1.0  0.7607819235374791  0.4259743498829708  0.37118764718087494  1.0000
  O   O13       1.0  0.797203300732896  0.3049364410614075  0.39085676963838967  1.0000
  O   O14       1.0  0.7759085017434872  0.9665222208519993  0.009334773774213514  1.0000
  O   O15       1.0  0.765776953593864  0.9076046571340444  0.8780247298820638  1.0000
  O   O16       1.0  0.2724377966387549  0.6794265319545829  0.5977912384171729  1.0000
  O   O17       1.0  0.2696335203088367  0.6637917369936163  0.7336224213950115  1.0000
  O   O18       1.0  0.016476431071744627  0.8283929235555761  0.9748007118617535  1.0000
  O   O19       1.0  0.9382610845960854  0.8833704727307248  0.8523784259140541  1.0000
  O   O20       1.0  0.8691217141462886  0.5779863787792365  0.5658061932670434  1.0000
  O   O21       1.0  0.036745716781219136  0.6329321132113606  0.7090576827024931  1.0000
  O   O22       1.0  0.8868824981553443  0.8438558728499644  0.12002903437683442  1.0000
  O   O23       1.0  0.06808865700893563  0.8758491516687031  0.1747752588364477  1.0000
  O   O24       1.0  0.05465326421857947  0.5748596714901169  0.37684232084176716  1.0000
  O   O25       1.0  0.9650550318224304  0.6327694375845924  0.41240478105907385  1.0000
  O   O26       1.0  0.0212446649181217  0.5071349036934336  0.5466238653329113  1.0000
