data_image0
_chemical_formula_structural       Cu6H16C20N26O16
_chemical_formula_sum              "Cu6 H16 C20 N26 O16"
_cell_length_a       9.319297406167452
_cell_length_b       9.319297902292591
_cell_length_c       16.715541397806717
_cell_angle_alpha    95.98260277609327
_cell_angle_beta     95.98213842869237
_cell_angle_gamma    105.62731055084504

_space_group_name_H-M_alt    "P 1"
_space_group_IT_number       1

loop_
  _space_group_symop_operation_xyz
  'x, y, z'

loop_
  _atom_site_type_symbol
  _atom_site_label
  _atom_site_symmetry_multiplicity
  _atom_site_fract_x
  _atom_site_fract_y
  _atom_site_fract_z
  _atom_site_occupancy
  Cu  Cu1       1.0  0.5461392965112353  0.45437139601253307  0.7499501287420997  1.0000
  Cu  Cu2       1.0  0.4543524496999751  0.5461594605751969  0.24995450682446574  1.0000
  Cu  Cu3       1.0  0.9799428055175524  0.06359000123721603  0.8497943680491389  1.0000
  Cu  Cu4       1.0  0.9356117000321404  0.020283269937451005  0.6498163250227336  1.0000
  Cu  Cu5       1.0  0.0202703618212823  0.9355759369827576  0.14977883712942489  1.0000
  Cu  Cu6       1.0  0.0636531552951638  0.9799795372344487  0.3498436870053538  1.0000
  H   H1        1.0  0.7147332285425493  0.7163062654689369  0.5441475572229137  1.0000
  H   H2        1.0  0.28406932612529096  0.2837354033057977  0.9551676813955723  1.0000
  H   H3        1.0  0.2837444011403035  0.28409409913516726  0.4551660555151855  1.0000
  H   H4        1.0  0.7162806185499094  0.7147282209383476  0.04415397625151481  1.0000
  H   H5        1.0  0.5965905562130658  0.5623470511105708  0.5796759193395857  1.0000
  H   H6        1.0  0.4363651345348742  0.4039513765512551  0.9199459415664323  1.0000
  H   H7        1.0  0.40397132404033437  0.43639500347448024  0.4199483543509928  1.0000
  H   H8        1.0  0.5623235981950855  0.5965759767057505  0.07967897895812108  1.0000
  H   H9        1.0  0.803417118828378  0.2522724181268429  0.9359833405990585  1.0000
  H   H10       1.0  0.747807330614613  0.19650475605380535  0.56505342059436  1.0000
  H   H11       1.0  0.19650648521826497  0.7477929883418213  0.06505200676296849  1.0000
  H   H12       1.0  0.252285634077495  0.803417082895784  0.43598648558644015  1.0000
  H   H13       1.0  0.7028378875956561  0.38283079453044155  0.9043054382217548  1.0000
  H   H14       1.0  0.6144976460713066  0.2938329425877554  0.5967247486597742  1.0000
  H   H15       1.0  0.2938362668736616  0.6144926104217703  0.0967240780578678  1.0000
  H   H16       1.0  0.38282954404733976  0.7028250885775905  0.4043111953437659  1.0000
  C   C1        1.0  0.7584677889689999  0.7286420237124247  0.8009826837299556  1.0000
  C   C2        1.0  0.2726908267757083  0.24099977169793624  0.6986248889057479  1.0000
  C   C3        1.0  0.24100784538055817  0.2726986211214069  0.1986246382259722  1.0000
  C   C4        1.0  0.728643476648344  0.7584628481626011  0.3009878332177038  1.0000
  C   C5        1.0  0.7324874535273196  0.7115013449583214  0.669897889099552  1.0000
  C   C6        1.0  0.28977366033272745  0.2657094975151749  0.8295912607181962  1.0000
  C   C7        1.0  0.2657242635421397  0.28978298475350067  0.3295902961850032  1.0000
  C   C8        1.0  0.7114967124884757  0.7324825232517255  0.1699026494884208  1.0000
  C   C9        1.0  0.7261292744611509  0.6752154552404759  0.8797077929940612  1.0000
  C   C10       1.0  0.32578168762877624  0.2737204218789486  0.6199312719834893  1.0000
  C   C11       1.0  0.2737344864544156  0.3257980614455391  0.119931952696156  1.0000
  C   C12       1.0  0.6752041480494668  0.7261201008634827  0.3797125551721479  1.0000
  C   C13       1.0  0.7656564707941628  0.2601699003823654  0.815039201250798  1.0000
  C   C14       1.0  0.7397818313851019  0.23379846013927616  0.6859728641785026  1.0000
  C   C15       1.0  0.23380337379030883  0.73978737123376  0.185976340341  1.0000
  C   C16       1.0  0.2601706988364825  0.7656558162072146  0.3150408530908635  1.0000
  C   C17       1.0  0.06123883052699601  0.9627696165538281  0.9900676105419495  1.0000
  C   C18       1.0  0.03662483374399981  0.939035014142803  0.5098369849039983  1.0000
  C   C19       1.0  0.9390343303985915  0.03662577920135847  0.009803177300454994  1.0000
  C   C20       1.0  0.9627717389656351  0.06124587287987265  0.49010673617300426  1.0000
  N   N1        1.0  0.8497290979425643  0.8548937189787154  0.7841947501289539  1.0000
  N   N2        1.0  0.14769109226966043  0.1474141682991714  0.7152466080466553  1.0000
  N   N3        1.0  0.1474283007107502  0.14768593720108208  0.2152512523640411  1.0000
  N   N4        1.0  0.8549023077251191  0.8497169895417895  0.2841974260654964  1.0000
  N   N5        1.0  0.834096257373872  0.8449568440753763  0.7011872919438744  1.0000
  N   N6        1.0  0.15766164415279596  0.16194995979201815  0.7982373015111578  1.0000
  N   N7        1.0  0.16197490668176326  0.1576630415877531  0.2982411964389087  1.0000
  N   N8        1.0  0.8449562767049913  0.8340808321510378  0.2011903934595765  1.0000
  N   N9        1.0  0.6843457148390969  0.6369658308831488  0.7318282684278402  1.0000
  N   N10       1.0  0.363470020847906  0.31609004362510257  0.7678440195355165  1.0000
  N   N11       1.0  0.31609616230481663  0.36347934350471434  0.267841385079258  1.0000
  N   N12       1.0  0.636955975584371  0.6843483261536036  0.2318356220841764  1.0000
  N   N13       1.0  0.6854911665861251  0.6564474851219726  0.5911568725583011  1.0000
  N   N14       1.0  0.34485932186998985  0.31238477960877015  0.9084522804432851  1.0000
  N   N15       1.0  0.31240001783707066  0.3448840993496133  0.4084534993584441  1.0000
  N   N16       1.0  0.656429578678619  0.6854844233079901  0.09116312704018982  1.0000
  N   N17       1.0  0.6952405479118512  0.301264188066078  0.750466681068346  1.0000
  N   N18       1.0  0.30126339634020377  0.6952393532380297  0.2504673548494836  1.0000
  N   N19       1.0  0.853500101304931  0.16849990036120488  0.7909787086010241  1.0000
  N   N20       1.0  0.8386421773070226  0.15368423167648607  0.7101680945982666  1.0000
  N   N21       1.0  0.15369441576877563  0.8386605881996942  0.21017427177874026  1.0000
  N   N22       1.0  0.1685049990258989  0.8535091384436766  0.2909786225788338  1.0000
  N   N23       1.0  0.7583745562331146  0.3035285773150135  0.892204390970825  1.0000
  N   N24       1.0  0.6955372279480018  0.24018556658887041  0.6088024471425157  1.0000
  N   N25       1.0  0.2401918082238481  0.6955429101718023  0.108805300762306  1.0000
  N   N26       1.0  0.30352522999334747  0.7583677023946861  0.3922064968402593  1.0000
  O   O1        1.0  0.7905432610405897  0.7470840851994894  0.9466714279421282  1.0000
  O   O2        1.0  0.253990767486286  0.20926280715021756  0.5529457946932296  1.0000
  O   O3        1.0  0.20928113535297396  0.25401874533022095  0.052942637352998596  1.0000
  O   O4        1.0  0.747065283394825  0.7905397558672576  0.44667785719146735  1.0000
  O   O5        1.0  0.6241623954393417  0.5443036675732102  0.8707331246338939  1.0000
  O   O6        1.0  0.4566777244879887  0.37602188377695717  0.6288079961170965  1.0000
  O   O7        1.0  0.3760350157703627  0.4566909534912114  0.1288114844930206  1.0000
  O   O8        1.0  0.5442926745943241  0.6241529548377827  0.3707355615927099  1.0000
  O   O9        1.0  0.10324323185009379  0.9689021307984974  0.9207249557069019  1.0000
  O   O10       1.0  0.029310585026181005  0.8961917120314095  0.5789717809250234  1.0000
  O   O11       1.0  0.8962117609979144  0.029322100035429295  0.078940554046028  1.0000
  O   O12       1.0  0.9688996409527848  0.10324090242658458  0.42076271356432937  1.0000
  O   O13       1.0  0.1136276224460744  0.8997855457601035  0.0453460974854636  1.0000
  O   O14       1.0  0.1004186090059278  0.8872081014058253  0.4547562981500306  1.0000
  O   O15       1.0  0.8871841811164458  0.10040613100186847  0.9547230944183269  1.0000
  O   O16       1.0  0.8998000316201809  0.11364924888501082  0.5453867015046825  1.0000
