data_image0
_chemical_formula_structural       Ag8H16C48Cl24O8
_chemical_formula_sum              "Ag8 H16 C48 Cl24 O8"
_cell_length_a       5.678708351
_cell_length_b       11.403468134
_cell_length_c       23.75
_cell_angle_alpha    90.0
_cell_angle_beta     90.0
_cell_angle_gamma    90.0

_space_group_name_H-M_alt    "P 1"
_space_group_IT_number       1

loop_
  _space_group_symop_operation_xyz
  'x, y, z'

loop_
  _atom_site_type_symbol
  _atom_site_label
  _atom_site_symmetry_multiplicity
  _atom_site_fract_x
  _atom_site_fract_y
  _atom_site_fract_z
  _atom_site_occupancy
  Ag  Ag1       1.0  0.1155069004176781  0.152922775730012  0.1932231578947352  1.0000
  Ag  Ag2       1.0  0.6155061651272291  0.3470759906979026  0.1932231578947352  1.0000
  Ag  Ag3       1.0  0.6155061651272291  0.152922775730012  0.3067768421052648  1.0000
  Ag  Ag4       1.0  0.1155051394538518  0.34707423684550054  0.3067759999999993  1.0000
  Ag  Ag5       1.0  0.8844933899652574  0.8470765109782192  0.8067759999999993  1.0000
  Ag  Ag6       1.0  0.38449412525570636  0.6529241729365296  0.8067768421052648  1.0000
  Ag  Ag7       1.0  0.3844923642918729  0.8470773879044201  0.6932231578947352  1.0000
  Ag  Ag8       1.0  0.8844951509290837  0.6529259267889315  0.6932240000000007  1.0000
  H   H1        1.0  0.6789713015145509  0.9948201605594136  0.028106947368421197  1.0000
  H   H2        1.0  0.1789720368049927  0.5051796464291343  0.028106947368421197  1.0000
  H   H3        1.0  0.1789720368049927  0.9948201605594136  0.4718930526315788  1.0000
  H   H4        1.0  0.6789713015145509  0.5051805233553351  0.4718930526315788  1.0000
  H   H5        1.0  0.3210272279045583  0.0051800030750186  0.9718930526315788  1.0000
  H   H6        1.0  0.8210282535779427  0.4948196402790969  0.9718930526315788  1.0000
  H   H7        1.0  0.8210264926141091  0.0051800030750186  0.5281069473684212  1.0000
  H   H8        1.0  0.3210272279045583  0.494820517205298  0.5281069473684212  1.0000
  H   H9        1.0  0.8490099688164108  0.9907801615469509  0.2327781052631579  1.0000
  H   H10       1.0  0.3490089431430262  0.5092205223677979  0.2327781052631579  1.0000
  H   H11       1.0  0.3490107041068597  0.9907801615469509  0.2672218947368421  1.0000
  H   H12       1.0  0.8490099688164108  0.5092196454415969  0.2672218947368421  1.0000
  H   H13       1.0  0.1509903215665247  0.0092200020874813  0.767221894736842  1.0000
  H   H14       1.0  0.6509895862760757  0.4907796412666342  0.767221894736842  1.0000
  H   H15       1.0  0.6509895862760757  0.0092200020874813  0.732778105263158  1.0000
  H   H16       1.0  0.1509903215665247  0.4907796412666342  0.732778105263158  1.0000
  C   C1        1.0  0.6434597049444405  0.0753954840665116  0.1675600000000017  1.0000
  C   C2        1.0  0.1434569183072298  0.42460679006620683  0.1675600000000017  1.0000
  C   C3        1.0  0.1434586792710633  0.0753954840665116  0.3324399999999983  1.0000
  C   C4        1.0  0.6434561830167879  0.42460679006620683  0.3324399999999983  1.0000
  C   C5        1.0  0.3565405854384949  0.9246046795679135  0.8324399999999984  1.0000
  C   C6        1.0  0.8565416111118721  0.5753942504944263  0.8324399999999984  1.0000
  C   C7        1.0  0.8565398501480458  0.9246046795679135  0.6675600000000017  1.0000
  C   C8        1.0  0.3565423464023212  0.5753942504944263  0.6675600000000017  1.0000
  C   C9        1.0  0.5930750078769123  0.0682529201514939  0.10898821052631288  1.0000
  C   C10       1.0  0.0930757431673541  0.4317484770550237  0.10898821052631288  1.0000
  C   C11       1.0  0.0930739822035278  0.0682520432252929  0.3910117894736871  1.0000
  C   C12       1.0  0.5930750078769123  0.4317484770550237  0.3910117894736871  1.0000
  C   C13       1.0  0.4069252825060232  0.9317481204091392  0.8910117894736871  1.0000
  C   C14       1.0  0.9069245472155811  0.5682516865794014  0.8910117894736871  1.0000
  C   C15       1.0  0.9069263081794074  0.9317481204091392  0.6089882105263129  1.0000
  C   C16       1.0  0.4069252825060232  0.5682516865794014  0.6089877894736873  1.0000
  C   C17       1.0  0.7194118358412567  0.9962434117852011  0.0728711578947383  1.0000
  C   C18       1.0  0.2194125711317056  0.5037563952033395  0.0728707368421055  1.0000
  C   C19       1.0  0.2194125711317056  0.9962434117852011  0.4271288421052617  1.0000
  C   C20       1.0  0.7194118358412567  0.5037572721295405  0.4271292631578945  1.0000
  C   C21       1.0  0.2805884545416788  0.0037567518492239  0.9271288421052617  1.0000
  C   C22       1.0  0.7805877192512297  0.49624289150488465  0.9271292631578945  1.0000
  C   C23       1.0  0.7805877192512297  0.0037567518492239  0.5728711578947383  1.0000
  C   C24       1.0  0.2805884545416788  0.49624289150488465  0.5728707368421055  1.0000
  C   C25       1.0  0.9040665029215517  0.9266540561019099  0.0930218947368431  1.0000
  C   C26       1.0  0.40406723821200063  0.5733448739604299  0.0930214736842103  1.0000
  C   C27       1.0  0.40406723821200063  0.9266540561019099  0.4069781052631569  1.0000
  C   C28       1.0  0.9040682638853852  0.5733457508866309  0.4069785263157897  1.0000
  C   C29       1.0  0.0959320264975503  0.0733461075325152  0.9069781052631568  1.0000
  C   C30       1.0  0.5959312912071083  0.42665528967400224  0.9069785263157897  1.0000
  C   C31       1.0  0.5959330521709346  0.0733461075325152  0.5930218947368431  1.0000
  C   C32       1.0  0.09593026553372398  0.4266544127478014  0.5930214736842103  1.0000
  C   C33       1.0  0.956571400438875  0.9284377239967155  0.1505722105263132  1.0000
  C   C34       1.0  0.45657213572932415  0.5715612060656311  0.1505722105263132  1.0000
  C   C35       1.0  0.4565703747654907  0.9284377239967155  0.3494277894736868  1.0000
  C   C36       1.0  0.9565731614027013  0.5715612060656311  0.3494277894736868  1.0000
  C   C37       1.0  0.043428889944060196  0.07156243963771658  0.8494277894736869  1.0000
  C   C38       1.0  0.543426393689785  0.4284380806426  0.8494277894736869  1.0000
  C   C39       1.0  0.5434299156174447  0.07156243963771658  0.6505722105263132  1.0000
  C   C40       1.0  0.043427128980233896  0.42843895756880096  0.6505722105263132  1.0000
  C   C41       1.0  0.8302433772936693  0.0024589010703124  0.1873402105263153  1.0000
  C   C42       1.0  0.33024411258411845  0.497541619209997  0.1873402105263153  1.0000
  C   C43       1.0  0.33024411258411845  0.0024589010703124  0.3126597894736847  1.0000
  C   C44       1.0  0.8302433772936693  0.497541619209997  0.3126597894736847  1.0000
  C   C45       1.0  0.16975691308926597  0.9975412625641127  0.8126597894736847  1.0000
  C   C46       1.0  0.669756177798817  0.502458544424428  0.8126597894736847  1.0000
  C   C47       1.0  0.669756177798817  0.9975412625641127  0.6873402105263153  1.0000
  C   C48       1.0  0.1697551521254397  0.502457667498227  0.6873402105263153  1.0000
  Cl  Cl1       1.0  0.36393311159148567  0.1523510198463285  0.0823301052631606  1.0000
  Cl  Cl2       1.0  0.8639306153372103  0.3476530081387992  0.0823296842105279  1.0000
  Cl  Cl3       1.0  0.8639341372648701  0.1523510198463285  0.4176698947368394  1.0000
  Cl  Cl4       1.0  0.3639295896638329  0.3476521312125911  0.4176703157894721  1.0000
  Cl  Cl5       1.0  0.6360671787914497  0.8476491437881035  0.9176698947368394  1.0000
  Cl  Cl6       1.0  0.1360714360095514  0.652347155495633  0.917670315789472  1.0000
  Cl  Cl7       1.0  0.1360661531180654  0.8476491437881035  0.5823301052631606  1.0000
  Cl  Cl8       1.0  0.6360707007191023  0.652347155495633  0.5823296842105279  1.0000
  Cl  Cl9       1.0  0.0640603421614259  0.8425638487428982  0.0465258947368454  1.0000
  Cl  Cl10      1.0  0.5640684116901226  0.6574306966884365  0.046525052631579904  1.0000
  Cl  Cl11      1.0  0.5640613678348103  0.8425647256690991  0.4534741052631546  1.0000
  Cl  Cl12      1.0  0.06406738601673818  0.6574315736146374  0.4534749473684201  1.0000
  Cl  Cl13      1.0  0.9359399482215094  0.15743631489153387  0.9534741052631546  1.0000
  Cl  Cl14      1.0  0.4359318786928128  0.3425694669459958  0.9534749473684201  1.0000
  Cl  Cl15      1.0  0.43593892254812516  0.15743631489153387  0.5465258947368454  1.0000
  Cl  Cl16      1.0  0.9359311434023637  0.3425685900197948  0.5465250526315799  1.0000
  Cl  Cl17      1.0  0.1735024831529657  0.839423576013651  0.1782147368421079  1.0000
  Cl  Cl18      1.0  0.6735070307540099  0.6605736001962866  0.1782151578947335  1.0000
  Cl  Cl19      1.0  0.6735017478625238  0.839423576013651  0.3217848421052665  1.0000
  Cl  Cl20      1.0  0.17350952700828506  0.6605736001962866  0.3217856842105249  1.0000
  Cl  Cl21      1.0  0.8264960462661364  0.16057746454698218  0.8217852631578921  1.0000
  Cl  Cl22      1.0  0.3264914986650993  0.3394265634381455  0.8217848421052664  1.0000
  Cl  Cl23      1.0  0.3264985425204117  0.1605765876207812  0.6782151578947336  1.0000
  Cl  Cl24      1.0  0.8264907633746502  0.3394265634381455  0.6782147368421079  1.0000
  O   O1        1.0  0.5238497588058308  0.1436834812660877  0.20236757894736707  1.0000
  O   O2        1.0  0.0238469721686201  0.35631879286663076  0.20236757894736707  1.0000
  O   O3        1.0  0.0238487331324464  0.1436834812660877  0.2976324210526329  1.0000
  O   O4        1.0  0.5238479978419974  0.35631879286663076  0.2976324210526329  1.0000
  O   O5        1.0  0.4761505315771046  0.8563166823683444  0.7976324210526328  1.0000
  O   O6        1.0  0.9761533182143154  0.6436804938415932  0.7976324210526328  1.0000
  O   O7        1.0  0.9761515572504891  0.8563166823683444  0.7023675789473672  1.0000
  O   O8        1.0  0.4761540535047643  0.6436813707677942  0.7023675789473672  1.0000
