data_image0
_chemical_formula_structural       MnH28C32O10
_chemical_formula_sum              "Mn1 H28 C32 O10"
_cell_length_a       4.554592140669045
_cell_length_b       11.623067179124696
_cell_length_c       13.421395962250555
_cell_angle_alpha    90.0729249674872
_cell_angle_beta     96.98958744543162
_cell_angle_gamma    98.69828212346887

_space_group_name_H-M_alt    "P 1"
_space_group_IT_number       1

loop_
  _space_group_symop_operation_xyz
  'x, y, z'

loop_
  _atom_site_type_symbol
  _atom_site_label
  _atom_site_symmetry_multiplicity
  _atom_site_fract_x
  _atom_site_fract_y
  _atom_site_fract_z
  _atom_site_occupancy
  Mn  Mn1       1.0  0.5000038814490679  0.5000003386678031  0.4999993634673315  1.0000
  H   H1        1.0  0.014224618556063716  0.39509019123238437  0.4044422541022783  1.0000
  H   H2        1.0  0.9857783109573434  0.6049095993296661  0.5955592385895159  1.0000
  H   H3        1.0  0.2564480794304346  0.3210578207812347  0.3694692348767603  1.0000
  H   H4        1.0  0.7435551752510107  0.6789428403008771  0.63053227290807  1.0000
  H   H5        1.0  0.7420619522404763  0.185070434008928  0.655412539824141  1.0000
  H   H6        1.0  0.2579366081187757  0.8149293464636074  0.3445865241201744  1.0000
  H   H7        1.0  0.9001949600481538  0.0432918980962995  0.782139286335898  1.0000
  H   H8        1.0  0.09980579482121499  0.9567078878612775  0.21786061986804126  1.0000
  H   H9        1.0  0.6540559260845386  0.29552055527891247  0.8989619049734541  1.0000
  H   H10       1.0  0.3459435899127642  0.7044818358732459  0.10103794847820778  1.0000
  H   H11       1.0  0.49864571145165115  0.4353641741136585  0.7685019286363257  1.0000
  H   H12       1.0  0.501350919967301  0.564636468752191  0.2314985408261094  1.0000
  H   H13       1.0  0.14631193672233417  0.8699580771217086  0.5996732206081319  1.0000
  H   H14       1.0  0.8536869488049632  0.1300425738708881  0.40032585842922686  1.0000
  H   H15       1.0  0.3784101851626858  0.8132266950897391  0.5192985682200941  1.0000
  H   H16       1.0  0.6215886606324617  0.1867739541417279  0.4807019992737267  1.0000
  H   H17       1.0  0.5120701987786661  0.9492872638663672  0.5873392388924756  1.0000
  H   H18       1.0  0.48792866688255293  0.050713386245668304  0.41266058437311404  1.0000
  H   H19       1.0  0.3353207717697089  0.9878263963676588  0.7366973475088441  1.0000
  H   H20       1.0  0.6646803082676982  0.012174260109979698  0.2633025737881312  1.0000
  H   H21       1.0  0.1976778853421308  0.2592026049004019  0.0068933590410722  1.0000
  H   H22       1.0  0.8023254090714715  0.7407980579428467  0.9931066602872889  1.0000
  H   H23       1.0  0.026307962559826623  0.541173491131275  0.822934009436963  1.0000
  H   H24       1.0  0.9736909031013923  0.45882715898076026  0.17706581382861936  1.0000
  H   H25       1.0  0.7992425856661141  0.5591923045138782  0.9209066183854233  1.0000
  H   H26       1.0  0.2007559548270663  0.4408074750780956  0.0790931897871232  1.0000
  H   H27       1.0  0.13405666926983173  0.6610457098977848  0.9106776809844631  1.0000
  H   H28       1.0  0.8659418910894203  0.3389540705747507  0.08932138295985231  1.0000
  C   C1        1.0  0.0113752072050772  0.4044831387308464  0.6301011762784086  1.0000
  C   C2        1.0  0.9886278017726369  0.5955166553534781  0.3698973395004472  1.0000
  C   C3        1.0  0.11196055404536757  0.3185925761930121  0.7040259514256917  1.0000
  C   C4        1.0  0.8880357720716247  0.6814071970333517  0.2959737587154763  1.0000
  C   C5        1.0  0.9456344875375746  0.20747352477629732  0.7077271247337363  1.0000
  C   C6        1.0  0.05436626733179394  0.7925262611812799  0.2922727814701958  1.0000
  C   C7        1.0  0.034075722664077504  0.128748821635071  0.7789542773518077  1.0000
  C   C8        1.0  0.9659231429971413  0.8712518284769643  0.22104554591378187  1.0000
  C   C9        1.0  0.28736760847361603  0.15913424746017307  0.8499125948527606  1.0000
  C   C10       1.0  0.7126372102479336  0.8408646789474189  0.15008898077737598  1.0000
  C   C11       1.0  0.45251398266172066  0.27135202980085177  0.8458826449765128  1.0000
  C   C12       1.0  0.5474819586889907  0.7286468702637378  0.15411928275631936  1.0000
  C   C13       1.0  0.3676525886431392  0.3495518251481258  0.7735590365973409  1.0000
  C   C14       1.0  0.6323459518500342  0.6504479544438411  0.2264407715752057  1.0000
  C   C15       1.0  0.3781160062497976  0.8621195023881613  0.5890378590805909  1.0000
  C   C16       1.0  0.6218806450352333  0.1378811413582568  0.41096186615360597  1.0000
  C   C17       1.0  0.5262698170695967  0.8329796916478072  0.7637804404952744  1.0000
  C   C18       1.0  0.4737290287255433  0.16702095758365942  0.2362201269985462  1.0000
  C   C19       1.0  0.43022052263170724  0.9325748452289349  0.7932068551202818  1.0000
  C   C20       1.0  0.5697783231634334  0.06742580400253222  0.2067937123735391  1.0000
  C   C21       1.0  0.4611394880094082  0.9684112723276995  0.8963220575764765  1.0000
  C   C22       1.0  0.5388571632756154  0.03158937141872539  0.10367766765772758  1.0000
  C   C23       1.0  0.38510211496810604  0.07589035590528678  0.9260536775991  1.0000
  C   C24       1.0  0.6149004893772556  0.9241085641367023  0.0739477999996581  1.0000
  C   C25       1.0  0.4151268466682367  0.10620985776115789  0.0293295093752661  1.0000
  C   C26       1.0  0.5848716938249368  0.8937899218308091  0.9706702987972873  1.0000
  C   C27       1.0  0.30761301386760914  0.2072027134817205  0.0627976733574442  1.0000
  C   C28       1.0  0.6923877410017525  0.7927970724758565  0.937202232846488  1.0000
  C   C29       1.0  0.6694147342758257  0.7630744450562261  0.8372452959461966  1.0000
  C   C30       1.0  0.3305815719750882  0.23692532728956914  0.16275515842320226  1.0000
  C   C31       1.0  0.9434428447233214  0.60469907895056  0.8684041803602013  1.0000
  C   C32       1.0  0.0565556957698519  0.3953007006414069  0.1315956278123522  1.0000
  O   O1        1.0  0.19569273501450368  0.4979990230975915  0.6182981451610274  1.0000
  O   O2        1.0  0.8043055001767102  0.5019998868548826  0.3817009036902519  1.0000
  O   O3        1.0  0.1872477193031301  0.35387310301195646  0.4282270119382545  1.0000
  O   O4        1.0  0.8127529759680031  0.6461266803039153  0.5717751269503779  1.0000
  O   O5        1.0  0.7467592214143508  0.3823406422686944  0.584986756684664  1.0000
  O   O6        1.0  0.2532431769594297  0.6176574125366444  0.41501024045165014  1.0000
  O   O7        1.0  0.5079933467062858  0.7944375820358119  0.6669324921499679  1.0000
  O   O8        1.0  0.49200519378688756  0.205562197556155  0.3330673160225786  1.0000
  O   O9        1.0  0.7770048791373511  0.6711473870119846  0.798929677467882  1.0000
  O   O10       1.0  0.2229939865238677  0.32885326310005075  0.2010701457977007  1.0000
