data_image0
_chemical_formula_structural       Zn8H124C204S8N12O40
_chemical_formula_sum              "Zn8 H124 C204 S8 N12 O40"
_cell_length_a       17.05098548764492
_cell_length_b       18.54425026200732
_cell_length_c       21.688795647821596
_cell_angle_alpha    90.0000668722213
_cell_angle_beta     102.86377948752131
_cell_angle_gamma    90.00006023731456

_space_group_name_H-M_alt    "P 1"
_space_group_IT_number       1

loop_
  _space_group_symop_operation_xyz
  'x, y, z'

loop_
  _atom_site_type_symbol
  _atom_site_label
  _atom_site_symmetry_multiplicity
  _atom_site_fract_x
  _atom_site_fract_y
  _atom_site_fract_z
  _atom_site_occupancy
  Zn  Zn1       1.0  0.6956147245993166  0.43964206370759484  0.4892693990834756  1.0000
  Zn  Zn2       1.0  0.8043842755323214  0.9396425916774401  0.010731043110297392  1.0000
  Zn  Zn3       1.0  0.30438657197436214  0.5603569331798184  0.5107319796939862  1.0000
  Zn  Zn4       1.0  0.19561521766596002  0.06035694445832008  0.9892681749832445  1.0000
  Zn  Zn5       1.0  0.8215530923873546  0.5440405364362276  0.510722487520887  1.0000
  Zn  Zn6       1.0  0.6784460660792463  0.04403999180917849  0.9892774844047519  1.0000
  Zn  Zn7       1.0  0.17844760328608802  0.45595899970088977  0.4892778636898142  1.0000
  Zn  Zn8       1.0  0.3215516213834918  0.9559579265743279  0.010722800063092605  1.0000
  H   H1        1.0  0.552499415653152  0.4134274361300425  0.542516417039522  1.0000
  H   H2        1.0  0.947500296450052  0.9134287129373674  0.9574821761070991  1.0000
  H   H3        1.0  0.44750248384397656  0.586573178508587  0.4574832232549752  1.0000
  H   H4        1.0  0.05249919708555952  0.08657136244878669  0.042516580978265495  1.0000
  H   H5        1.0  0.23066105976801052  0.18191994849370727  0.5511223412106715  1.0000
  H   H6        1.0  0.26933910656676113  0.6819205013320369  0.9488781109374639  1.0000
  H   H7        1.0  0.7693396359058299  0.8180801268941167  0.4488780100003708  1.0000
  H   H8        1.0  0.7306627919191657  0.3180795740568313  0.05112291238223321  1.0000
  H   H9        1.0  0.3874696659569424  0.0121967348219769  0.45938663575130056  1.0000
  H   H10       1.0  0.1125313005105824  0.5121960388217133  0.040615274295774384  1.0000
  H   H11       1.0  0.6125316316283432  0.9878033405658969  0.540613360001302  1.0000
  H   H12       1.0  0.8874724003395543  0.48780295806903934  0.9593892927330355  1.0000
  H   H13       1.0  0.04889759039164691  0.3777419001667964  0.7813999305781039  1.0000
  H   H14       1.0  0.45110286939898  0.8777417758548651  0.7185998461962055  1.0000
  H   H15       1.0  0.9511031062941985  0.6222597929722012  0.21859903760842053  1.0000
  H   H16       1.0  0.5488966234635768  0.12225937803332695  0.28139983290686377  1.0000
  H   H17       1.0  0.0733971412587735  0.016903773803868195  0.5649447049411476  1.0000
  H   H18       1.0  0.42660217812596823  0.516904460452821  0.935053589780139  1.0000
  H   H19       1.0  0.9266035550881285  0.9830952230819248  0.4350547242521968  1.0000
  H   H20       1.0  0.573398518558264  0.4830950756833588  0.06494537840503506  1.0000
  H   H21       1.0  0.4483126314023167  0.6274600965631406  0.23892994748585036  1.0000
  H   H22       1.0  0.0516867036866557  0.12745749957636573  0.261070408061947  1.0000
  H   H23       1.0  0.5516880632623328  0.3725421358284392  0.7610717867520903  1.0000
  H   H24       1.0  0.9483103835492986  0.8725404188055137  0.7389279268217875  1.0000
  H   H25       1.0  0.4586450573576358  0.8851987084341243  0.1779174296861399  1.0000
  H   H26       1.0  0.0413510536425008  0.3851978024585562  0.32208261719181747  1.0000
  H   H27       1.0  0.5413550367408888  0.11480028845192441  0.8220828159741557  1.0000
  H   H28       1.0  0.9586460322453122  0.6147995766738814  0.6779175617256213  1.0000
  H   H29       1.0  0.9355796765140527  0.7980676073208386  0.5541211078960656  1.0000
  H   H30       1.0  0.5644204643458083  0.29806743199331  0.9458779065090608  1.0000
  H   H31       1.0  0.06442162140857022  0.20193300731742161  0.4458784268483669  1.0000
  H   H32       1.0  0.43557902918980324  0.701932643392844  0.05412085057630379  1.0000
  H   H33       1.0  0.6326910690920117  0.7843762564533562  0.3084023320395559  1.0000
  H   H34       1.0  0.867310705756104  0.2843765673076533  0.19159982536801576  1.0000
  H   H35       1.0  0.3673114309676251  0.21562274043446902  0.691598796829531  1.0000
  H   H36       1.0  0.1326881848580754  0.7156245865808015  0.8084006702020046  1.0000
  H   H37       1.0  0.7041766226007341  0.6944336419645935  0.3877346773072857  1.0000
  H   H38       1.0  0.7958238152963163  0.19443593211533275  0.11226623369894638  1.0000
  H   H39       1.0  0.2958258784684915  0.305563737170182  0.6122650685352438  1.0000
  H   H40       1.0  0.20417447475454512  0.8055657610225211  0.8877327732958162  1.0000
  H   H41       1.0  0.45594472917625944  0.3141173645229926  0.546290080710129  1.0000
  H   H42       1.0  0.04405443334889011  0.8141182444863019  0.9537080218021285  1.0000
  H   H43       1.0  0.5440565687463562  0.6858832501152674  0.4537094540343033  1.0000
  H   H44       1.0  0.955945060860586  0.18588183089921978  0.046289813266213294  1.0000
  H   H45       1.0  0.5190246295272872  0.5387561420939447  0.32050244965247277  1.0000
  H   H46       1.0  0.9809737729049389  0.038755468278416985  0.17949518257012895  1.0000
  H   H47       1.0  0.4809754659197696  0.46124393329225916  0.6794959519744521  1.0000
  H   H48       1.0  0.019022111857061902  0.9612440678542238  0.8205020191974554  1.0000
  H   H49       1.0  0.8025800321673062  0.2955883958084866  0.6289769532435158  1.0000
  H   H50       1.0  0.6974225119584929  0.7955893117890437  0.8710215582229137  1.0000
  H   H51       1.0  0.19742367171522096  0.7044106010794378  0.3710234647086849  1.0000
  H   H52       1.0  0.3025781860726583  0.20440914584447256  0.1289755659275329  1.0000
  H   H53       1.0  0.8591074680553918  0.2849124767392723  0.8324959595913695  1.0000
  H   H54       1.0  0.6408920515604635  0.784911442248436  0.667502932693864  1.0000
  H   H55       1.0  0.1408854061414075  0.715090834148988  0.16750440249633405  1.0000
  H   H56       1.0  0.3591062378157304  0.21508917238863748  0.33249699631723917  1.0000
  H   H57       1.0  0.03831384718969131  0.11873389185512909  0.8421742430657133  1.0000
  H   H58       1.0  0.4616850218596156  0.6187331555999902  0.6578254573882203  1.0000
  H   H59       1.0  0.9616796292571054  0.881271576035672  0.15782530255638955  1.0000
  H   H60       1.0  0.5383138694276184  0.3812669197864267  0.3421741161640951  1.0000
  H   H61       1.0  0.8396501179601475  0.6964398342331958  0.5545833312755233  1.0000
  H   H62       1.0  0.66035047151469  0.19643921215993024  0.9454170437016953  1.0000
  H   H63       1.0  0.16035057670410421  0.30356185890768467  0.4454184029620689  1.0000
  H   H64       1.0  0.3396502255064746  0.8035603239759296  0.05458146347496748  1.0000
  H   H65       1.0  0.5914815267062185  0.18377560970330353  0.4403438979848744  1.0000
  H   H66       1.0  0.9085194975031002  0.6837768448155613  0.05965618312962557  1.0000
  H   H67       1.0  0.40851916964188467  0.8162250049345943  0.5596555312094864  1.0000
  H   H68       1.0  0.09148540784540421  0.31622430907747656  0.9403467509666326  1.0000
  H   H69       1.0  0.7108444213027099  0.7891555514402809  0.12976249387197206  1.0000
  H   H70       1.0  0.7891543524797697  0.2891533340362784  0.37023960281183566  1.0000
  H   H71       1.0  0.2891556721203372  0.21084128844358924  0.8702386738039817  1.0000
  H   H72       1.0  0.21084513970569674  0.7108435058469168  0.6297609983055422  1.0000
  H   H73       1.0  0.06402341174988628  0.6588174827360331  0.45034753596788574  1.0000
  H   H74       1.0  0.43597536966174033  0.158818205725602  0.04965137050196229  1.0000
  H   H75       1.0  0.9359736751503436  0.3411820533982776  0.5496512599253761  1.0000
  H   H76       1.0  0.5640253263498423  0.8411829481633216  0.9503485197012506  1.0000
  H   H77       1.0  0.635012837809569  0.7155672498498687  0.1930890692013704  1.0000
  H   H78       1.0  0.8649852233618989  0.21556448036664477  0.3069142122708755  1.0000
  H   H79       1.0  0.3649860514548635  0.2844312077863264  0.806913270400997  1.0000
  H   H80       1.0  0.13501366758639216  0.7844328987665674  0.6930858222882603  1.0000
  H   H81       1.0  0.5332495978571786  0.9567648178606375  0.11249578813879416  1.0000
  H   H82       1.0  0.9667446169641569  0.45676549269756345  0.38750152617857475  1.0000
  H   H83       1.0  0.4667498956760171  0.04323202202129289  0.8875029689445383  1.0000
  H   H84       1.0  0.0332518690350199  0.5432335041850462  0.6124962421472516  1.0000
  H   H85       1.0  0.9637048673695715  0.5633252518970052  0.4562182883510671  1.0000
  H   H86       1.0  0.5362959760746833  0.0633261180875238  0.0437825630693922  1.0000
  H   H87       1.0  0.03629462448098051  0.43667428424001276  0.5437827737765204  1.0000
  H   H88       1.0  0.4637047199368922  0.9366750358013929  0.9562173271338208  1.0000
  H   H89       1.0  0.868178999089885  0.21555721316772744  0.7182346587554773  1.0000
  H   H90       1.0  0.6318204164932769  0.7155568651063218  0.7817646071836604  1.0000
  H   H91       1.0  0.13182229714848154  0.7844439407228092  0.28176718103185283  1.0000
  H   H92       1.0  0.3681760691689675  0.2844421317766075  0.21823362215067724  1.0000
  H   H93       1.0  0.983987141519542  0.4565047101446567  0.6899077299631527  1.0000
  H   H94       1.0  0.5160138371278578  0.9565048275720681  0.8100925115655355  1.0000
  H   H95       1.0  0.0160147589879855  0.5434953652423216  0.31009052730547637  1.0000
  H   H96       1.0  0.4839880623692708  0.04349578706656129  0.18990712872896853  1.0000
  H   H97       1.0  0.7786325430095575  0.20251173095653024  0.885653225640304  1.0000
  H   H98       1.0  0.7213674536310962  0.7025096235276747  0.6143475124421583  1.0000
  H   H99       1.0  0.22136033219764076  0.7974910406800787  0.11434575342152438  1.0000
  H   H100      1.0  0.2786326397947719  0.2974909911111182  0.38565365523617595  1.0000
  H   H101      1.0  0.5096762862079346  0.09098994181159978  0.44747773719520717  1.0000
  H   H102      1.0  0.9903221936486876  0.590990707354038  0.052520882835366905  1.0000
  H   H103      1.0  0.4903244104775056  0.9090112120766917  0.5525212309909833  1.0000
  H   H104      1.0  0.009679103600071  0.40900990728485437  0.9474795739260882  1.0000
  H   H105      1.0  0.9590140315157143  0.03823179597453218  0.8974145308891931  1.0000
  H   H106      1.0  0.54098451702788  0.5382305758628901  0.6025848671611482  1.0000
  H   H107      1.0  0.0409812493156636  0.9617709756641654  0.10258579238993797  1.0000
  H   H108      1.0  0.45901377369564517  0.4617694995222194  0.39741321781556843  1.0000
  H   H109      1.0  0.6827561266405625  0.28913284006625867  0.4423274489365949  1.0000
  H   H110      1.0  0.8172450554297088  0.789133444604289  0.057672303869594474  1.0000
  H   H111      1.0  0.31724577251923586  0.7108672353219843  0.5576726523660722  1.0000
  H   H112      1.0  0.18275804687910835  0.21086663078467888  0.9423280085332233  1.0000
  H   H113      1.0  0.16734620975664435  0.7334606316619128  0.47435713216744085  1.0000
  H   H114      1.0  0.332652081008142  0.23346014306065396  0.025642684783889494  1.0000
  H   H115      1.0  0.8326532837789671  0.2665394437242411  0.5256416249179308  1.0000
  H   H116      1.0  0.6673480127534502  0.7665388538257145  0.9743580218849173  1.0000
  H   H117      1.0  0.2814042268503556  0.9688549537477652  0.4895462248566955  1.0000
  H   H118      1.0  0.2185974237370871  0.46885595143000103  0.010454416332130694  1.0000
  H   H119      1.0  0.7185982735470232  0.0311451216411527  0.5104544430045621  1.0000
  H   H120      1.0  0.7814044750857717  0.5311441239585547  0.9895461459790551  1.0000
  H   H121      1.0  0.24864019958495484  0.8538909988595405  0.4851525885411616  1.0000
  H   H122      1.0  0.25135947472715264  0.3538909558463458  0.014847130187732184  1.0000
  H   H123      1.0  0.7513592942871838  0.14610853727559459  0.5148457075353574  1.0000
  H   H124      1.0  0.7486418221838635  0.6461085802914609  0.985153787581552  1.0000
  C   C1        1.0  0.558801681709248  0.36114437261626614  0.5211073091713914  1.0000
  C   C2        1.0  0.9411979518857979  0.861145133281468  0.9788916791313297  1.0000
  C   C3        1.0  0.4411996162133676  0.6388562420219939  0.47889222557304106  1.0000
  C   C4        1.0  0.05880334536254851  0.13885494210672528  0.021108777629784494  1.0000
  C   C5        1.0  0.2164955872605603  0.12450106103376866  0.543909102968321  1.0000
  C   C6        1.0  0.28350509513642663  0.6245021767228207  0.9560909214009141  1.0000
  C   C7        1.0  0.7835063122349556  0.8754973966020496  0.45609053732481897  1.0000
  C   C8        1.0  0.71649680301217  0.37549735941566087  0.043910562926953396  1.0000
  C   C9        1.0  0.3955809470309078  0.06792615285470299  0.4753399245743565  1.0000
  C   C10       1.0  0.10441829803831132  0.5679275842023656  0.02466173901672159  1.0000
  C   C11       1.0  0.6044209517919513  0.9320739225338525  0.5246606377368294  1.0000
  C   C12       1.0  0.8955829975265887  0.4320741089395027  0.9753410227879652  1.0000
  C   C13       1.0  0.45923833169338485  0.17995013656574338  0.4924231874907789  1.0000
  C   C14       1.0  0.0407622867109012  0.6799493257846262  0.007575140228510698  1.0000
  C   C15       1.0  0.5407629658914956  0.8200493995714307  0.5075768082614899  1.0000
  C   C16       1.0  0.9592414168342887  0.3200491318529117  0.9924257387318673  1.0000
  C   C17       1.0  0.952300215056525  0.2057165464942584  0.833355768436604  1.0000
  C   C18       1.0  0.5476997873877281  0.7057159596031397  0.6666435906578412  1.0000
  C   C19       1.0  0.0476944621807647  0.7942889213994774  0.16664721534522184  1.0000
  C   C20       1.0  0.4523003080597264  0.2942846550337705  0.3333548109694319  1.0000
  C   C21       1.0  0.34172022872814983  0.10451915957283117  0.5037231028844855  1.0000
  C   C22       1.0  0.15827982019600742  0.6045191300461069  0.996279556817228  1.0000
  C   C23       1.0  0.6582804672830209  0.8954814550653789  0.49627678731838637  1.0000
  C   C24       1.0  0.8417226775051034  0.3954798668439209  0.0037247991114383963  1.0000
  C   C25       1.0  0.07011574600688421  0.7918873393455212  0.503156167107015  1.0000
  C   C26       1.0  0.42988157720938597  0.2918875884095371  0.9968434347892978  1.0000
  C   C27       1.0  0.9298831452807548  0.208113275291602  0.4968434064456486  1.0000
  C   C28       1.0  0.5701179153154287  0.7081124869775547  0.0031567053216008255  1.0000
  C   C29       1.0  0.26780628151502134  0.07847709997451348  0.519116071255162  1.0000
  C   C30       1.0  0.2321961354443971  0.5784771211952132  0.9808860558290887  1.0000
  C   C31       1.0  0.7321950160714722  0.9215245931654719  0.4808839244984639  1.0000
  C   C32       1.0  0.7678069655166908  0.4215229541950122  0.019116100607774897  1.0000
  C   C33       1.0  0.9950514859131021  0.360278702271195  0.7474744955151492  1.0000
  C   C34       1.0  0.5049493488626594  0.8602792696188997  0.7525256248142751  1.0000
  C   C35       1.0  0.0049492100988786  0.639722990868428  0.2525253946883979  1.0000
  C   C36       1.0  0.49505074591133547  0.13972188426934198  0.24747369883035464  1.0000
  C   C37       1.0  0.12873702765376288  0.0329572846007622  0.5510113607143337  1.0000
  C   C38       1.0  0.3712641197825732  0.5329573972944315  0.9489881928937006  1.0000
  C   C39       1.0  0.8712642699303146  0.9670411730349998  0.44898863503724573  1.0000
  C   C40       1.0  0.6287365762273964  0.46704159959166686  0.05101169730815507  1.0000
  C   C41       1.0  0.173952416214334  0.981689092908283  0.5255527990483626  1.0000
  C   C42       1.0  0.32604940247911435  0.48168974983848767  0.9744468587426806  1.0000
  C   C43       1.0  0.8260500841838478  0.018312060982040596  0.4744478688135699  1.0000
  C   C44       1.0  0.6739537005035743  0.5183103255498551  0.025552531643107584  1.0000
  C   C45       1.0  0.5039018718420253  0.641683422930498  0.2723712504737392  1.0000
  C   C46       1.0  0.9960972843706701  0.14168175100497385  0.22762892198086596  1.0000
  C   C47       1.0  0.49609882248449116  0.3583171917092896  0.7276309447716897  1.0000
  C   C48       1.0  0.0039004047767221997  0.858316167376955  0.7723690574444217  1.0000
  C   C49       1.0  0.5432055521039417  0.7969255745373687  0.18995676444168194  1.0000
  C   C50       1.0  0.956793233294306  0.2969212807103715  0.31004534202739353  1.0000
  C   C51       1.0  0.4567945409841839  0.20307396160033156  0.8100448642444886  1.0000
  C   C52       1.0  0.043206259566233016  0.7030771769243029  0.6899543370739776  1.0000
  C   C53       1.0  0.1485870153817217  0.9068340656748501  0.5152789568429199  1.0000
  C   C54       1.0  0.35141288767897555  0.4068336827534295  0.9847189069895703  1.0000
  C   C55       1.0  0.8514136816402527  0.09316654896242227  0.484719550334418  1.0000
  C   C56       1.0  0.6485878086683243  0.5931658533830626  0.0152805222041152  1.0000
  C   C57       1.0  0.5143462110112722  0.8647816183521186  0.1676848164301177  1.0000
  C   C58       1.0  0.9856514723586046  0.3647811577032414  0.3323176254164649  1.0000
  C   C59       1.0  0.4856532801646055  0.1352168392841264  0.8323171677138103  1.0000
  C   C60       1.0  0.014346215440653506  0.6352162214292462  0.6676821980425273  1.0000
  C   C61       1.0  0.943859501407431  0.7472566981303641  0.5311630659373349  1.0000
  C   C62       1.0  0.556141164046011  0.2472560068563111  0.968837373045204  1.0000
  C   C63       1.0  0.05614179584173231  0.25274445575922744  0.46883739082445425  1.0000
  C   C64       1.0  0.443860133876207  0.7527440685312498  0.031162161698887296  1.0000
  C   C65       1.0  0.6081402994741937  0.7305374562936321  0.31132840669906864  1.0000
  C   C66       1.0  0.8918607939759938  0.23053724773708947  0.18867265532949765  1.0000
  C   C67       1.0  0.39186159867440307  0.2694620798448496  0.6886730776287989  1.0000
  C   C68       1.0  0.10813749641059188  0.7694628276483328  0.8113258906557306  1.0000
  C   C69       1.0  0.6475812685164755  0.6808309933729646  0.3553253038510532  1.0000
  C   C70       1.0  0.8524185481412446  0.18083230421205332  0.14467456245452576  1.0000
  C   C71       1.0  0.35242002906800723  0.3191680035135036  0.6446746919008746  1.0000
  C   C72       1.0  0.14757853876019317  0.8191688496743692  0.8553242334397523  1.0000
  C   C73       1.0  0.5372010612129189  0.7100048831135339  0.26890626667334055  1.0000
  C   C74       1.0  0.962798797714058  0.21000318359062925  0.23109548040978473  1.0000
  C   C75       1.0  0.46279963311399547  0.28999627077695317  0.7310959285724292  1.0000
  C   C76       1.0  0.03719889109761  0.7899963525437314  0.7689029600250377  1.0000
  C   C77       1.0  0.5054014255071806  0.3052849852113439  0.5227813589154876  1.0000
  C   C78       1.0  0.9945987268183174  0.805285795435374  0.9772167425637402  1.0000
  C   C79       1.0  0.4945998727527723  0.6947161686773098  0.47721771482077446  1.0000
  C   C80       1.0  0.005403773579864402  0.19471535845495677  0.022783925298192297  1.0000
  C   C81       1.0  0.5433298810267786  0.5927184305869985  0.3176370375570982  1.0000
  C   C82       1.0  0.9566692019772135  0.09271827633880039  0.1823630732255878  1.0000
  C   C83       1.0  0.45667141655810173  0.40728110555016867  0.6823629581951706  1.0000
  C   C84       1.0  0.043327283349306404  0.9072823382965537  0.8176356171182845  1.0000
  C   C85       1.0  0.8568932073123678  0.3128611842515596  0.6623695696870014  1.0000
  C   C86       1.0  0.6431075582525096  0.8128625411640725  0.8376281858765748  1.0000
  C   C87       1.0  0.1431086925217002  0.6871394303867502  0.3376296095989843  1.0000
  C   C88       1.0  0.3568925382053437  0.18713753422118629  0.16236883272481603  1.0000
  C   C89       1.0  0.8799002653722284  0.23039640692751814  0.845999942429607  1.0000
  C   C90       1.0  0.6200985701491888  0.730395873065646  0.6540001586667827  1.0000
  C   C91       1.0  0.12009381062627972  0.7696074432134308  0.15400247479261958  1.0000
  C   C92       1.0  0.37989851607758135  0.2696042023199965  0.34599955924384307  1.0000
  C   C93       1.0  0.9810658240653254  0.13660782032202687  0.8513385562231404  1.0000
  C   C94       1.0  0.518935879774354  0.6366066417040982  0.6486610324766244  1.0000
  C   C95       1.0  0.0189330655404731  0.8633965690715969  0.14866332237445326  1.0000
  C   C96       1.0  0.4810660203962343  0.36339343368319976  0.35133768580050867  1.0000
  C   C97       1.0  0.8902867537937953  0.6912738214980506  0.5317639159307034  1.0000
  C   C98       1.0  0.609713827957485  0.19127372066635925  0.9682364525400967  1.0000
  C   C99       1.0  0.1097139412069907  0.3087273323918112  0.4682373572980436  1.0000
  C   C100      1.0  0.390286266815707  0.8087263547204698  0.0317628711038509  1.0000
  C   C101      1.0  0.5812932760219239  0.23287601584605264  0.4649284753507955  1.0000
  C   C102      1.0  0.9187078222739445  0.7328777665378394  0.035070745590452576  1.0000
  C   C103      1.0  0.4187074206631181  0.7671245987915327  0.5350704928350536  1.0000
  C   C104      1.0  0.08129768532253219  0.2671228481042291  0.9649313720385208  1.0000
  C   C105      1.0  0.6558369687540875  0.8099711486941601  0.1408231771995218  1.0000
  C   C106      1.0  0.8441618354773226  0.30996950884676266  0.3591798677195398  1.0000
  C   C107      1.0  0.3441637262430605  0.19002515193936625  0.8591780960261629  1.0000
  C   C108      1.0  0.1558370554709683  0.6900278702864496  0.6408201668395959  1.0000
  C   C109      1.0  0.9615511854912386  0.29295000549482336  0.7552746536468431  1.0000
  C   C110      1.0  0.5384489477176261  0.792950594717247  0.7447243543129927  1.0000
  C   C111      1.0  0.03844950883648581  0.7070522268970693  0.24472754159960883  1.0000
  C   C112      1.0  0.46154934266895975  0.20704948066818216  0.25527419167223536  1.0000
  C   C113      1.0  0.0155598838657411  0.6698030907384264  0.4740752401102667  1.0000
  C   C114      1.0  0.4844407186937189  0.16980274988705443  0.02592399684582597  1.0000
  C   C115      1.0  0.9844390077580203  0.3301964453969716  0.5259238724332035  1.0000
  C   C116      1.0  0.515560579565026  0.8301967862494875  0.9740750768894127  1.0000
  C   C117      1.0  0.6136720012646961  0.7689131430593789  0.17620151662582362  1.0000
  C   C118      1.0  0.8863267412416462  0.2689109566007559  0.3238019375876178  1.0000
  C   C119      1.0  0.38632869339633663  0.23108423607587264  0.8238002176090546  1.0000
  C   C120      1.0  0.11367154813293473  0.7310875010334996  0.6761979914221284  1.0000
  C   C121      1.0  0.5152806706662432  0.2390719940442877  0.4937301388324115  1.0000
  C   C122      1.0  0.9847192344179735  0.7390732302543979  0.0062679567953694455  1.0000
  C   C123      1.0  0.48472183141619507  0.7609286205937593  0.5062682239866304  1.0000
  C   C124      1.0  0.015282663732236303  0.2609284628868948  0.9937335275338555  1.0000
  C   C125      1.0  0.6276533962166368  0.8778999910138335  0.1175724561556706  1.0000
  C   C126      1.0  0.8723425037270118  0.3778978710157474  0.3824273805200845  1.0000
  C   C127      1.0  0.372346096643497  0.12209792737014165  0.8824272229453667  1.0000
  C   C128      1.0  0.1276551844091784  0.6220995081164278  0.6175719819303963  1.0000
  C   C129      1.0  0.616132160153839  0.6113738721035844  0.3587861543339058  1.0000
  C   C130      1.0  0.8838675523175893  0.11137413024972889  0.14121408549619469  1.0000
  C   C131      1.0  0.3838703405792572  0.38862458553290935  0.6412140525178173  1.0000
  C   C132      1.0  0.11613013649448332  0.8886259451353309  0.8587843549389618  1.0000
  C   C133      1.0  0.5564349334538721  0.9045923363560319  0.1312566186757778  1.0000
  C   C134      1.0  0.94356341337231  0.40459242382411975  0.36874275180444005  1.0000
  C   C135      1.0  0.44356636446632797  0.09540504277801178  0.8687429160666154  1.0000
  C   C136      1.0  0.05643487633920331  0.5954060338098299  0.6312567161967946  1.0000
  C   C137      1.0  0.9597725316186543  0.6164349873055598  0.47677159144241427  1.0000
  C   C138      1.0  0.5402271880829873  0.1164352900038139  0.023229115770853098  1.0000
  C   C139      1.0  0.040225756747148005  0.383566166583158  0.5232297205945641  1.0000
  C   C140      1.0  0.4597741101765678  0.8835653246341337  0.9767699579650682  1.0000
  C   C141      1.0  0.8486730376571787  0.4262795803575655  0.5988289128030714  1.0000
  C   C142      1.0  0.6513278961363511  0.9262799534944075  0.9011708296478101  1.0000
  C   C143      1.0  0.1513276583535941  0.5737204950299456  0.4011709773994596  1.0000
  C   C144      1.0  0.34867460459715016  0.07371904339278497  0.09882937720425387  1.0000
  C   C145      1.0  0.009467810581526202  0.736948987110132  0.5026124551684531  1.0000
  C   C146      1.0  0.4905330402775121  0.23694875654856415  0.9973872498229636  1.0000
  C   C147      1.0  0.9905316819436935  0.26305162752767325  0.4973876849427937  1.0000
  C   C148      1.0  0.5094670551715623  0.7630540150911568  0.0026111518056595086  1.0000
  C   C149      1.0  0.8929968112692778  0.2685111008891283  0.7121390301943433  1.0000
  C   C150      1.0  0.6070044888854867  0.7685112763057304  0.7878596970753262  1.0000
  C   C151      1.0  0.1070056887915669  0.7314895137508087  0.28786209867575957  1.0000
  C   C152      1.0  0.3929938018376262  0.2314882598286799  0.21213838790105644  1.0000
  C   C153      1.0  0.9588686340529903  0.40378162201854906  0.6966481950622379  1.0000
  C   C154      1.0  0.5411334692512357  0.9037812153804552  0.8033517301514406  1.0000
  C   C155      1.0  0.04113326578227831  0.5962206103718728  0.3033509842247709  1.0000
  C   C156      1.0  0.458869031820413  0.09621939925853698  0.19664801569312826  1.0000
  C   C157      1.0  0.8890583386216306  0.3808466872724451  0.6538892955823312  1.0000
  C   C158      1.0  0.6109431288182992  0.8808480245356095  0.846110495195134  1.0000
  C   C159      1.0  0.11094295896365482  0.6191533881154285  0.3461107001702714  1.0000
  C   C160      1.0  0.38905997450171986  0.11915259010311267  0.15388843418248394  1.0000
  C   C161      1.0  0.8353214832079204  0.18459568623586614  0.8755948491918557  1.0000
  C   C162      1.0  0.6646778850710788  0.6845935375005678  0.6244057607747138  1.0000
  C   C163      1.0  0.16467139065195374  0.8154076246526996  0.12440597390435928  1.0000
  C   C164      1.0  0.335319802392867  0.3154059986350504  0.375594523694147  1.0000
  C   C165      1.0  0.46170479391201985  0.11050865161337949  0.46890252391286663  1.0000
  C   C166      1.0  0.0382957196567091  0.6105084097988324  0.031097099368672294  1.0000
  C   C167      1.0  0.538297104573509  0.8894908845247826  0.5310984994064895  1.0000
  C   C168      1.0  0.9617073813039739  0.38949112634069377  0.9689050570678432  1.0000
  C   C169      1.0  0.6709905733067317  0.9191898709074593  0.07616892053932386  1.0000
  C   C170      1.0  0.8290053890468274  0.4191899223597346  0.4238300461266177  1.0000
  C   C171      1.0  0.3290077167413159  0.0808080474754718  0.9238300864530513  1.0000
  C   C172      1.0  0.17099350257652904  0.5808090745249642  0.5761690664165116  1.0000
  C   C173      1.0  0.6619205344895107  0.5591135231965223  0.40610018499558  1.0000
  C   C174      1.0  0.8380784979347311  0.0591152900486662  0.09390034447043394  1.0000
  C   C175      1.0  0.3380813646674667  0.44088277743679777  0.5938999163047141  1.0000
  C   C176      1.0  0.16191919054121942  0.9408858638381189  0.9060985569739157  1.0000
  C   C177      1.0  0.9363617036465757  0.09172544426203187  0.8820240282370971  1.0000
  C   C178      1.0  0.5636369242044239  0.5917248064048123  0.617976359207496  1.0000
  C   C179      1.0  0.0636317714500692  0.9082767881258175  0.1179773614170188  1.0000
  C   C180      1.0  0.43636196708361313  0.4082763474830101  0.38202321434550157  1.0000
  C   C181      1.0  0.8628648495190065  0.11488461670322177  0.8939713346327093  1.0000
  C   C182      1.0  0.6371350157696795  0.6148829553912802  0.6060297540895688  1.0000
  C   C183      1.0  0.13713103356115403  0.8851186941859124  0.10602817217981197  1.0000
  C   C184      1.0  0.3628644764194107  0.38511873774824296  0.3939708470308644  1.0000
  C   C185      1.0  0.6320213145955408  0.2912040930640174  0.4652900886329404  1.0000
  C   C186      1.0  0.8679798709081016  0.7912041762599387  0.03470920577321126  1.0000
  C   C187      1.0  0.36797998400054155  0.7087959823229183  0.5347085240941282  1.0000
  C   C188      1.0  0.1320226298266078  0.20879643837936604  0.9652910010798689  1.0000
  C   C189      1.0  0.8149461457952543  0.06776057611556749  0.9278906005175712  1.0000
  C   C190      1.0  0.6850530474623825  0.5677599935218111  0.5721103233011674  1.0000
  C   C191      1.0  0.18504973728289542  0.9322400385200493  0.07210890629325209  1.0000
  C   C192      1.0  0.31494704596469353  0.4322422388690938  0.4278908443781828  1.0000
  C   C193      1.0  0.14491485844173016  0.784538456972889  0.488366647684458  1.0000
  C   C194      1.0  0.3550853144262122  0.2845379710243917  0.011632167225599201  1.0000
  C   C195      1.0  0.8550846350942862  0.21546215766397125  0.5116321094012475  1.0000
  C   C196      1.0  0.6449159834956006  0.7154615651124699  0.9883673675181511  1.0000
  C   C197      1.0  0.24459358018793864  0.0062072422319019  0.509681924907852  1.0000
  C   C198      1.0  0.2554069239943431  0.5062078381177242  0.990319794500486  1.0000
  C   C199      1.0  0.7554083189714476  0.9937922939056346  0.4903181763944814  1.0000
  C   C200      1.0  0.7445943719062741  0.49379223727171934  0.009682506294673482  1.0000
  C   C201      1.0  0.1889371282479217  0.8493990182332352  0.4949914817366049  1.0000
  C   C202      1.0  0.31106193844538416  0.34939632349752253  0.005007203765742897  1.0000
  C   C203      1.0  0.8110629668626005  0.15060159640398743  0.5050073808991725  1.0000
  C   C204      1.0  0.6889387575645785  0.650602673388583  0.9949926864361129  1.0000
  S   S1        1.0  0.3741635658297682  0.19161842224468725  0.522096278918468  1.0000
  S   S2        1.0  0.12583841905483686  0.6916183361376297  0.9779054241120162  1.0000
  S   S3        1.0  0.6258389342306787  0.8083816531445434  0.47790484995130095  1.0000
  S   S4        1.0  0.8741652831434267  0.3083812000025644  0.02209729888308232  1.0000
  S   S5        1.0  0.055712644981547  0.8792950335217639  0.5256941145749465  1.0000
  S   S6        1.0  0.44428601375489063  0.3792941872991021  0.974303503470871  1.0000
  S   S7        1.0  0.9442868492283267  0.12070558111446417  0.47430372049373654  1.0000
  S   S8        1.0  0.5557134797799109  0.6207048095856463  0.02569525361381862  1.0000
  N   N1        1.0  0.6209394403702718  0.3545601322264176  0.4925926378406869  1.0000
  N   N2        1.0  0.8790618405349806  0.854561806660406  0.007405814348281655  1.0000
  N   N3        1.0  0.3790636629497472  0.6454404824123117  0.507406291536931  1.0000
  N   N4        1.0  0.12093945671337283  0.14543826872777993  0.9925946424128322  1.0000
  N   N5        1.0  0.8983180038485159  0.6265302895893184  0.5056256099155616  1.0000
  N   N6        1.0  0.6016830823388943  0.12652967739337834  0.9943752435670773  1.0000
  N   N7        1.0  0.10168329306250001  0.3734692465484812  0.4943753078537225  1.0000
  N   N8        1.0  0.3983170127708249  0.8734698587424389  0.005623619068025183  1.0000
  N   N9        1.0  0.148865225108473  0.10243921399169408  0.5593948301402063  1.0000
  N   N10       1.0  0.3511354239651183  0.6024392956990994  0.9406056274493365  1.0000
  N   N11       1.0  0.8511372746146364  0.8975603221471498  0.4406067597377329  1.0000
  N   N12       1.0  0.6488658732828299  0.39756024043838767  0.05939482931143657  1.0000
  O   O1        1.0  0.9999159293934456  0.2507574657339759  0.8056875177808676  1.0000
  O   O2        1.0  0.5000829369084272  0.7507579488871837  0.6943121479530132  1.0000
  O   O3        1.0  8.054953499940009e-05  0.749248002163682  0.1943199317277687  1.0000
  O   O4        1.0  0.49991475224057785  0.24924212649756325  0.30568583147363876  1.0000
  O   O5        1.0  0.4970761110009151  0.757348347903516  0.22312813283667762  1.0000
  O   O6        1.0  0.0029234162671941  0.25734410739599406  0.2768751523593025  1.0000
  O   O7        1.0  0.5029239817522965  0.24265388448801406  0.7768739568597025  1.0000
  O   O8        1.0  0.9970748731077922  0.7426548894889677  0.7231247766507777  1.0000
  O   O9        1.0  0.7471049861376359  0.09211634452302768  0.9338455215386854  1.0000
  O   O10       1.0  0.7528942438732287  0.5921168981656846  0.5661549719490819  1.0000
  O   O11       1.0  0.2528872881656952  0.9078821131069573  0.06615242995333397  1.0000
  O   O12       1.0  0.2471064507906249  0.4078842557244897  0.4338467622881765  1.0000
  O   O13       1.0  0.635426067556054  0.9743061094274239  0.04778892308284097  1.0000
  O   O14       1.0  0.8645723821543214  0.47430569490364144  0.45221237923769303  1.0000
  O   O15       1.0  0.3645734242932832  0.025691808957489595  0.9522121390437305  1.0000
  O   O16       1.0  0.13542771160807382  0.5256943804841396  0.5477883274317888  1.0000
  O   O17       1.0  0.8809589512432581  0.4862189232621716  0.5897220266868074  1.0000
  O   O18       1.0  0.6190426734039108  0.9862165812333642  0.910278357816345  1.0000
  O   O19       1.0  0.11903994105436772  0.5137806128726011  0.41027616383964016  1.0000
  O   O20       1.0  0.3809592247410549  0.0137781016487821  0.08972312650846698  1.0000
  O   O21       1.0  0.7848837523492095  0.4000514498412925  0.5639128905824647  1.0000
  O   O22       1.0  0.7151153385175635  0.9000530110745825  0.9360851191582993  1.0000
  O   O23       1.0  0.215114537698831  0.5999464685416313  0.4360861164099175  1.0000
  O   O24       1.0  0.28488596108971365  0.09994760356210719  0.06391211054356917  1.0000
  O   O25       1.0  0.6276506476742584  0.5002839575835196  0.4156566179535374  1.0000
  O   O26       1.0  0.8723464920664341  0.0002841269077435999  0.08434352076366028  1.0000
  O   O27       1.0  0.3723500486714287  0.49971342155016163  0.5843428112387911  1.0000
  O   O28       1.0  0.12765119742152112  0.9997186447302011  0.9156539976561786  1.0000
  O   O29       1.0  0.7325425826685928  0.5784079666038549  0.4338669649409112  1.0000
  O   O30       1.0  0.767455877703334  0.078410166234832  0.06613256126021837  1.0000
  O   O31       1.0  0.26745871457693243  0.42158833402941537  0.5661334918178296  1.0000
  O   O32       1.0  0.23254000470053884  0.9215899091507113  0.9338678675672863  1.0000
  O   O33       1.0  0.8456810553798562  0.007520370134748999  0.9490457246528192  1.0000
  O   O34       1.0  0.6543174465726267  0.5075202680711326  0.5509545567332877  1.0000
  O   O35       1.0  0.15431723399714065  0.9924813230037302  0.05095420435895898  1.0000
  O   O36       1.0  0.3456814440403377  0.49247926806521025  0.4490459388357166  1.0000
  O   O37       1.0  0.7395650762125925  0.8955281191392925  0.07113386164657948  1.0000
  O   O38       1.0  0.7604314533492484  0.3955291893893359  0.4288637977418545  1.0000
  O   O39       1.0  0.2604326132721368  0.10447033849303008  0.928863656770538  1.0000
  O   O40       1.0  0.23956803951209346  0.604470346746744  0.5711358813601989  1.0000
