data_image0
_chemical_formula_structural       Cu2H14C14I2N4
_chemical_formula_sum              "Cu2 H14 C14 I2 N4"
_cell_length_a       7.736668467648161
_cell_length_b       7.945866187368788
_cell_length_c       8.103460978666531
_cell_angle_alpha    117.15172561652744
_cell_angle_beta     90.65953040141326
_cell_angle_gamma    109.37445611497027

_space_group_name_H-M_alt    "P 1"
_space_group_IT_number       1

loop_
  _space_group_symop_operation_xyz
  'x, y, z'

loop_
  _atom_site_type_symbol
  _atom_site_label
  _atom_site_symmetry_multiplicity
  _atom_site_fract_x
  _atom_site_fract_y
  _atom_site_fract_z
  _atom_site_occupancy
  Cu  Cu1       1.0  0.839675872079759  0.6026293854205349  0.6284028219616857  1.0000
  Cu  Cu2       1.0  0.16031637164159915  0.39737715577978605  0.37161320554459826  1.0000
  H   H1        1.0  0.9047189352630768  0.15876007480546417  0.7449640481400693  1.0000
  H   H2        1.0  0.09528609621026608  0.8412419180709847  0.2550267129268846  1.0000
  H   H3        1.0  0.08016778079319657  0.18711092837701668  0.9702646903700584  1.0000
  H   H4        1.0  0.9198235030140722  0.8128926021317113  0.029736398493255968  1.0000
  H   H5        1.0  0.16277837126207828  0.981755159317281  0.8987980070269331  1.0000
  H   H6        1.0  0.8372278157077134  0.018265158673187898  0.10120961458787292  1.0000
  H   H7        1.0  0.7935413031516132  0.07171443131151281  0.3928776096185019  1.0000
  H   H8        1.0  0.2064573819593393  0.9282768551040593  0.6071131878545445  1.0000
  H   H9        1.0  0.5226362597190785  0.8533307598984128  0.11235375985187807  1.0000
  H   H10       1.0  0.47736621088721887  0.14665286182419382  0.8876349050700372  1.0000
  H   H11       1.0  0.5184461759672203  0.682489977431672  0.6229287846091652  1.0000
  H   H12       1.0  0.4815538913829585  0.31751657376534587  0.37707750742377755  1.0000
  H   H13       1.0  0.2649012775197263  0.5642238696379066  0.10685760749072415  1.0000
  H   H14       1.0  0.735099696801562  0.4357704402288078  0.8931432205904246  1.0000
  C   C1        1.0  0.8389116663300484  0.9913448747062931  0.6816433900324983  1.0000
  C   C2        1.0  0.1610863385525718  0.008655592707008  0.3183515054044008  1.0000
  C   C3        1.0  0.6838217521018278  0.8812910248976494  0.5204484448312672  1.0000
  C   C4        1.0  0.31617957528129625  0.11870789432780529  0.4795482820763867  1.0000
  C   C5        1.0  0.03968033846406629  0.023141824623763792  0.9232747625587905  1.0000
  C   C6        1.0  0.9603226454475263  0.976869319850728  0.07672993269086004  1.0000
  C   C7        1.0  0.6805572261517695  0.9380500932505388  0.3807224533191731  1.0000
  C   C8        1.0  0.31944634970626146  0.0619442171750535  0.619275950968188  1.0000
  C   C9        1.0  0.530781462863132  0.8194862461118434  0.22765549675755642  1.0000
  C   C10       1.0  0.4692181794636454  0.1805004353844666  0.7723369579460952  1.0000
  C   C11       1.0  0.5286432333340514  0.7194797984019558  0.5084338276332759  1.0000
  C   C12       1.0  0.4713560057518932  0.28052064017054323  0.49156848022867905  1.0000
  C   C13       1.0  0.3851677972688066  0.6569050472528846  0.2233539269874215  1.0000
  C   C14       1.0  0.6148326447943262  0.3430877343878366  0.7766462080251915  1.0000
  I   I1        1.0  0.14176616065856246  0.5488613411768881  0.7437405722813895  1.0000
  I   I2        1.0  0.8582334722246471  0.4511513390053495  0.256265987635473  1.0000
  N   N1        1.0  0.8995049912270188  0.8967371507818739  0.7485559912473007  1.0000
  N   N2        1.0  0.10049427638680437  0.10326330027072568  0.2514426204766735  1.0000
  N   N3        1.0  0.38016170436010555  0.6113451446524041  0.36556218686163094  1.0000
  N   N4        1.0  0.619838806966335  0.3886552817194301  0.6344426052414038  1.0000
