data_image0
_chemical_formula_structural       Cu4H24C24S16I4N8O8
_chemical_formula_sum              "Cu4 H24 C24 S16 I4 N8 O8"
_cell_length_a       4.160152113063338
_cell_length_b       16.826963461132348
_cell_length_c       17.37568187737965
_cell_angle_alpha    90.00075331177916
_cell_angle_beta     90.0000031606972
_cell_angle_gamma    95.2913748942137

_space_group_name_H-M_alt    "P 1"
_space_group_IT_number       1

loop_
  _space_group_symop_operation_xyz
  'x, y, z'

loop_
  _atom_site_type_symbol
  _atom_site_label
  _atom_site_symmetry_multiplicity
  _atom_site_fract_x
  _atom_site_fract_y
  _atom_site_fract_z
  _atom_site_occupancy
  Cu  Cu1       1.0  0.1340251440394269  0.8783532616744338  0.9169906085221268  1.0000
  Cu  Cu2       1.0  0.8659880752769313  0.6216479861142191  0.41699536363823597  1.0000
  Cu  Cu3       1.0  0.865985284510046  0.12164519834226438  0.08300874326334907  1.0000
  Cu  Cu4       1.0  0.13402211133775674  0.37834987710203194  0.5830051391774091  1.0000
  H   H1        1.0  0.7138311528905491  0.7318134974610546  0.9401904951417204  1.0000
  H   H2        1.0  0.2861869957930736  0.7681880588618527  0.44020228889183943  1.0000
  H   H3        1.0  0.2861735215984709  0.26818855776110695  0.059803677013761096  1.0000
  H   H4        1.0  0.7138188709288826  0.23181100760054826  0.559803393584275  1.0000
  H   H5        1.0  0.8998262678013444  0.9545897119399245  0.789558975795387  1.0000
  H   H6        1.0  0.10019707904032765  0.545412753496592  0.2895541210894024  1.0000
  H   H7        1.0  0.1002091474311371  0.04541108738760611  0.21044728220887515  1.0000
  H   H8        1.0  0.8998215229127524  0.4545880793072571  0.7104371734734511  1.0000
  H   H9        1.0  0.5610490951380527  0.5706334337339883  0.11821136769251687  1.0000
  H   H10       1.0  0.4389008012003829  0.9293716056664183  0.6182118686232129  1.0000
  H   H11       1.0  0.43891210338104963  0.42936811105318634  0.8817868330783865  1.0000
  H   H12       1.0  0.561078402776559  0.0706269167465905  0.38179266281535706  1.0000
  H   H13       1.0  0.8942281493866842  0.5439263254383704  0.06284934323564777  1.0000
  H   H14       1.0  0.10574906031882139  0.9560749133188153  0.5628496053061127  1.0000
  H   H15       1.0  0.10575658416623673  0.45607397775438596  0.9371477064935048  1.0000
  H   H16       1.0  0.8942471988349254  0.043924172323635005  0.4371549261361167  1.0000
  H   H17       1.0  0.9851074464712396  0.17912840989715315  0.7012070067605264  1.0000
  H   H18       1.0  0.014883793366813254  0.32087429258432815  0.20120795794676374  1.0000
  H   H19       1.0  0.014884734713653857  0.8208724757642756  0.2987975246931356  1.0000
  H   H20       1.0  0.9850992641038586  0.6791278058185882  0.7987873652428518  1.0000
  H   H21       1.0  0.309792514660316  0.1318196792937059  0.6589902299416863  1.0000
  H   H22       1.0  0.6902256258240768  0.36817820917620747  0.15899409135747786  1.0000
  H   H23       1.0  0.6902229596111553  0.8681793679413021  0.34100969736453374  1.0000
  H   H24       1.0  0.30976005799897166  0.6318185083853296  0.8410052604167928  1.0000
  C   C1        1.0  0.9802215126489173  0.7352102605803311  0.04134349083270189  1.0000
  C   C2        1.0  0.0197827272863051  0.7647924210037331  0.5413470736278894  1.0000
  C   C3        1.0  0.019757933244115112  0.26478885858578144  0.9586529833719126  1.0000
  C   C4        1.0  0.9802034404281129  0.23520549021393583  0.4586580333238074  1.0000
  C   C5        1.0  0.7520107281232741  0.5935007531563771  0.07839897576248939  1.0000
  C   C6        1.0  0.24796008588029395  0.9065025036043013  0.5783986084499586  1.0000
  C   C7        1.0  0.24795719218918316  0.4064995836113283  0.9215974984498131  1.0000
  C   C8        1.0  0.752040977043535  0.09349657241261872  0.4216013188563749  1.0000
  C   C9        1.0  0.6114254448373942  0.626353128413868  0.0060607280313505  1.0000
  C   C10       1.0  0.3885966270739161  0.8736520199171097  0.506068001307888  1.0000
  C   C11       1.0  0.38855593656192877  0.37365076522682034  0.9939368972376026  1.0000
  C   C12       1.0  0.6114200394102411  0.1263440385068506  0.49393595459819994  1.0000
  C   C13       1.0  0.21261925046172078  0.048606157130812705  0.8312189122732787  1.0000
  C   C14       1.0  0.787386844959002  0.451391729376546  0.33121692709385536  1.0000
  C   C15       1.0  0.7873880503905752  0.9513905172775879  0.16878331708573308  1.0000
  C   C16       1.0  0.2126060445378641  0.548604973794042  0.6687824246803585  1.0000
  C   C17       1.0  0.1445223582391364  0.13100329202611502  0.7085301503010013  1.0000
  C   C18       1.0  0.8554931820850056  0.36900005969745564  0.20853114609417386  1.0000
  C   C19       1.0  0.8555053849283212  0.8690023009481537  0.29147495669975126  1.0000
  C   C20       1.0  0.1445182316866251  0.6310067603895322  0.7914618750576847  1.0000
  C   C21       1.0  0.9504759206548669  0.0507686143447899  0.7108616384687423  1.0000
  C   C22       1.0  0.049545144396240894  0.4492305772941876  0.21086249649093958  1.0000
  C   C23       1.0  0.049542923268809685  0.9492328153502431  0.2891417419545448  1.0000
  C   C24       1.0  0.9504535341022163  0.5507744763448275  0.7891293736156582  1.0000
  S   S1        1.0  0.17927569922905212  0.8251355142032111  0.0339947072815008  1.0000
  S   S2        1.0  0.8207287253807322  0.6748616905501521  0.533997728932192  1.0000
  S   S3        1.0  0.8207280075177225  0.17486415380927411  0.9660029179606793  1.0000
  S   S4        1.0  0.17927449749959828  0.3251367838693326  0.46600334940428906  1.0000
  S   S5        1.0  0.010737648463802516  0.6742050480722741  0.12111320509164605  1.0000
  S   S6        1.0  0.9892367663731249  0.8258011767710659  0.6211152710326288  1.0000
  S   S7        1.0  0.9892300299154327  0.3257946918989348  0.8788849956678034  1.0000
  S   S8        1.0  0.010745323363089202  0.17419853444190642  0.3788863828285968  1.0000
  S   S9        1.0  0.2953392394248553  0.009906672679861101  0.9159894403916623  1.0000
  S   S10       1.0  0.7046874976842971  0.49009472492312517  0.41598737130929914  1.0000
  S   S11       1.0  0.7046827322053489  0.990096542647145  0.0840145155599785  1.0000
  S   S12       1.0  0.29535584902946976  0.5099078504226782  0.5840165846383625  1.0000
  S   S13       1.0  0.3613294459527907  0.14316599782026176  0.7988961786995856  1.0000
  S   S14       1.0  0.6386810363692705  0.3568308391225302  0.2988935645852776  1.0000
  S   S15       1.0  0.6386872205453855  0.8568300606392114  0.20111295685934036  1.0000
  S   S16       1.0  0.3613281824766971  0.6431646368169766  0.7011006075283674  1.0000
  I   I1        1.0  0.6265390894429714  0.8236790968293451  0.8305948046605847  1.0000
  I   I2        1.0  0.37345973479687444  0.6763221888327992  0.3305990997553039  1.0000
  I   I3        1.0  0.37346005545759914  0.17632117758150662  0.16940224506844703  1.0000
  I   I4        1.0  0.6265593335692117  0.32367386477050536  0.6694014030488658  1.0000
  N   N1        1.0  0.7717434303988142  0.7001641615218974  0.9884203437500855  1.0000
  N   N2        1.0  0.22824494692654435  0.7998351295493079  0.48842851099259815  1.0000
  N   N3        1.0  0.22825403842417558  0.2998379081109448  0.011576705990357499  1.0000
  N   N4        1.0  0.7717513122287585  0.20016395609708582  0.5115765959666092  1.0000
  N   N5        1.0  0.014403846971141799  0.010478147281965302  0.7775672491582525  1.0000
  N   N6        1.0  0.9856089392903865  0.4895243653155603  0.2775645999144912  1.0000
  N   N7        1.0  0.9856198007304116  0.9895232728072684  0.22243440471404335  1.0000
  N   N8        1.0  0.014390205613295898  0.5104759091031783  0.722433600848511  1.0000
  O   O1        1.0  0.3901631153414086  0.5942110072493281  0.9673799181244359  1.0000
  O   O2        1.0  0.609793215190905  0.9057922401586326  0.46738713489435896  1.0000
  O   O3        1.0  0.6098026450114417  0.4057899311079183  0.0326142540237555  1.0000
  O   O4        1.0  0.39019392027977057  0.0942080583042113  0.5326196986234704  1.0000
  O   O5        1.0  0.7644458044374288  0.0235282109871591  0.6606608444966469  1.0000
  O   O6        1.0  0.23557258701026737  0.47647029715403016  0.16065859771914145  1.0000
  O   O7        1.0  0.23557062011506255  0.9764672506442483  0.3393454134735733  1.0000
  O   O8        1.0  0.7644114206962627  0.5235282155308669  0.8393263661419892  1.0000
