data_image0
_chemical_formula_structural       Gd4H12C36O24
_chemical_formula_sum              "Gd4 H12 C36 O24"
_cell_length_a       10.395646715037374
_cell_length_b       10.395892665004094
_cell_length_c       13.985770614050853
_cell_angle_alpha    89.99992308844094
_cell_angle_beta     90.00029955585842
_cell_angle_gamma    90.00006692565462

_space_group_name_H-M_alt    "P 1"
_space_group_IT_number       1

loop_
  _space_group_symop_operation_xyz
  'x, y, z'

loop_
  _atom_site_type_symbol
  _atom_site_label
  _atom_site_symmetry_multiplicity
  _atom_site_fract_x
  _atom_site_fract_y
  _atom_site_fract_z
  _atom_site_occupancy
  Gd  Gd1       1.0  0.8779144197808936  0.8779168592373593  0.6249886422260715  1.0000
  Gd  Gd2       1.0  0.12208622901816571  0.12208567399561332  0.12498864179289629  1.0000
  Gd  Gd3       1.0  0.1220856248998032  0.8779166445499554  0.3750131020629296  1.0000
  Gd  Gd4       1.0  0.8779158185364508  0.12208254943569592  0.875013138360643  1.0000
  H   H1        1.0  0.9303198438265952  0.47212968843951597  0.6452052075195738  1.0000
  H   H2        1.0  0.0696780611794523  0.5278699223686658  0.1452046000658527  1.0000
  H   H3        1.0  0.5278690427988836  0.930303898895289  0.39520009668820677  1.0000
  H   H4        1.0  0.4721354282867765  0.06969525847718222  0.8952000362913707  1.0000
  H   H5        1.0  0.06967203129220678  0.4721313730454995  0.35479622486466406  1.0000
  H   H6        1.0  0.9303263842800222  0.5278659337717357  0.8547953469462825  1.0000
  H   H7        1.0  0.4721329869639277  0.9303036762589727  0.6048023105738094  1.0000
  H   H8        1.0  0.5278617483595694  0.0696940839937099  0.10480108088592029  1.0000
  H   H9        1.0  0.9999992528831995  0.11351034442358103  0.5000000794681512  1.0000
  H   H10       1.0  3.068655928499999e-06  0.8864886228645402  0.999997370731009  1.0000
  H   H11       1.0  0.8864931044745602  2.909731478e-07  0.2499972447221381  1.0000
  H   H12       1.0  0.11350591462857551  3.480301629000003e-07  0.7500010816460118  1.0000
  C   C1        1.0  0.9999937827881594  0.6297873177362163  0.4999998230128497  1.0000
  C   C2        1.0  5.025947082500001e-06  0.3702115945248395  1.2461434763999998e-06  1.0000
  C   C3        1.0  0.37020199271624676  0.9999999894674548  0.24999910041321977  1.0000
  C   C4        1.0  0.6297979883405703  6.495331775e-07  0.7500028010190078  1.0000
  C   C5        1.0  0.9281794595740677  0.21095921133585446  0.6700505854188847  1.0000
  C   C6        1.0  0.0718186199797302  0.7890432401652985  0.1700475817975402  1.0000
  C   C7        1.0  0.7890284462449983  0.9281714558716915  0.42005014819913805  1.0000
  C   C8        1.0  0.2109771613859053  0.07183246601676531  0.9200540746860779  1.0000
  C   C9        1.0  0.07181884403707528  0.21096190542863272  0.32995039142166854  1.0000
  C   C10       1.0  0.9281861305707866  0.7890421798857403  0.8299499607168386  1.0000
  C   C11       1.0  0.2109735810190543  0.9281709732861003  0.5799501161441326  1.0000
  C   C12       1.0  0.7890267513456592  0.0718326035584056  0.07994704038048889  1.0000
  C   C13       1.0  0.999993698761301  0.48592761773793586  0.49999989447055526  1.0000
  C   C14       1.0  3.8130778320999986e-06  0.5140723114644317  0.9999989857436515  1.0000
  C   C15       1.0  0.5140647184352359  0.9999978932914435  0.2500003135811042  1.0000
  C   C16       1.0  0.48593546885571465  0.999998385334294  0.750000594415404  1.0000
  C   C17       1.0  0.9608390961879181  0.41915595781708254  0.5818723511399994  1.0000
  C   C18       1.0  0.03915932580724759  0.5808428059452594  0.08187228733370938  1.0000
  C   C19       1.0  0.580842935395026  0.960831428270602  0.33186652750129036  1.0000
  C   C20       1.0  0.4191591668619878  0.039167843971405596  0.8318698663853608  1.0000
  C   C21       1.0  0.0391517550988496  0.419156529987994  0.4181269888316095  1.0000
  C   C22       1.0  0.9608480673539361  0.5808416238794437  0.9181261770325904  1.0000
  C   C23       1.0  0.41915816808676004  0.9608329527256814  0.6681351344183994  1.0000
  C   C24       1.0  0.5808398980051166  0.03916661649539321  0.16813128112274  1.0000
  C   C25       1.0  0.9627455864745686  0.2845104744579743  0.5823393248543738  1.0000
  C   C26       1.0  0.037251876857823205  0.7154892503759457  0.08233840485380742  1.0000
  C   C27       1.0  0.7154839122530987  0.9627399524932587  0.3323372666618454  1.0000
  C   C28       1.0  0.28451723136122814  0.037260280815147005  0.8323379385588083  1.0000
  C   C29       1.0  0.0372479933481955  0.2845110452499995  0.41766086389695545  1.0000
  C   C30       1.0  0.962753749710174  0.7154890333014948  0.9176592107332127  1.0000
  C   C31       1.0  0.2845171934530697  0.9627413205480124  0.6676629633370368  1.0000
  C   C32       1.0  0.7154818312725696  0.0372592114459778  0.16766178081937255  1.0000
  C   C33       1.0  0.9999973900769844  0.218076641423643  0.5000000275244432  1.0000
  C   C34       1.0  3.9695260553999995e-06  0.7819223258626168  0.9999988526977288  1.0000
  C   C35       1.0  0.7819301051939859  2.2990991509999995e-07  0.2499977563246176  1.0000
  C   C36       1.0  0.2180698758558535  1.3710110167000005e-06  0.7500020000698128  1.0000
  O   O1        1.0  0.9147525417969932  0.6859805690880236  0.5501641871963159  1.0000
  O   O2        1.0  0.08524373354929081  0.31402113793978265  0.050164567765691  1.0000
  O   O3        1.0  0.31400802713708487  0.914753488020125  0.30016452466492166  1.0000
  O   O4        1.0  0.6859938523602196  0.08523910830165699  0.8001595607807558  1.0000
  O   O5        1.0  0.08523381149338861  0.6859820994875748  0.44983774774204477  1.0000
  O   O6        1.0  0.9147633479250389  0.31401695877983127  0.949837021722125  1.0000
  O   O7        1.0  0.6859901366937109  0.9147543047070457  0.6998371830249965  1.0000
  O   O8        1.0  0.31400719021139883  0.08523847357603391  0.19984225597438146  1.0000
  O   O9        1.0  0.9183092953886955  0.2692687004142797  0.7496292770122039  1.0000
  O   O10       1.0  0.0816835716224702  0.7307345686595569  0.2496299447709447  1.0000
  O   O11       1.0  0.7306889152146638  0.9182847527549  0.4996252043154782  1.0000
  O   O12       1.0  0.26931436564422023  0.0817199867215521  0.9996250578807915  1.0000
  O   O13       1.0  0.0816890763408935  0.2692715503737659  0.2503723569139638  1.0000
  O   O14       1.0  0.9183230346943391  0.7307317173683857  0.7503676556740047  1.0000
  O   O15       1.0  0.2693121385609203  0.918283520720735  0.5003757848605375  1.0000
  O   O16       1.0  0.7306857108627012  0.0817192385349159  0.0003731873063444  1.0000
  O   O17       1.0  0.9119331432331137  0.08891196809484112  0.6639158076851857  1.0000
  O   O18       1.0  0.08806874097196271  0.9110866468649663  0.1639098859860155  1.0000
  O   O19       1.0  0.9110746943664125  0.9119401223151871  0.4139413273778416  1.0000
  O   O20       1.0  0.088927022574957  0.0880638106528764  0.9139433328659762  1.0000
  O   O21       1.0  0.08806790362736902  0.08891274620024352  0.33608529040805013  1.0000
  O   O22       1.0  0.9119332663135467  0.9110855564744825  0.8360846752306799  1.0000
  O   O23       1.0  0.08892635199422468  0.9119375622668643  0.5860589530893775  1.0000
  O   O24       1.0  0.9110720994077395  0.0880650415776074  0.08605633604100398  1.0000
