data_image0
_chemical_formula_structural       Zr6H10C60N18O32
_chemical_formula_sum              "Zr6 H10 C60 N18 O32"
_cell_length_a       16.433296593058103
_cell_length_b       16.444361372812054
_cell_length_c       16.525571343654267
_cell_angle_alpha    95.20536327369132
_cell_angle_beta     90.45478532826311
_cell_angle_gamma    89.70128650862222

_space_group_name_H-M_alt    "P 1"
_space_group_IT_number       1

loop_
  _space_group_symop_operation_xyz
  'x, y, z'

loop_
  _atom_site_type_symbol
  _atom_site_label
  _atom_site_symmetry_multiplicity
  _atom_site_fract_x
  _atom_site_fract_y
  _atom_site_fract_z
  _atom_site_occupancy
  Zr  Zr1       1.0  0.0340839881159596  0.2004666479191997  0.15965927322086054  1.0000
  Zr  Zr2       1.0  0.15306300247002008  0.24527265922206004  0.9917354702652688  1.0000
  Zr  Zr3       1.0  0.008439787142080499  0.997890468520197  0.0717590204781828  1.0000
  Zr  Zr4       1.0  0.20688879569995314  0.07931094439365441  0.103842789321078  1.0000
  Zr  Zr5       1.0  0.9557685553116072  0.16336427070296375  0.958872686340733  1.0000
  Zr  Zr6       1.0  0.12844986496554608  0.04152130350468752  0.9041331737744969  1.0000
  H   H1        1.0  0.19984836619417476  0.2476048945487507  0.1578334581040508  1.0000
  H   H2        1.0  0.8870672348177209  0.12042997581367845  0.10438856077746551  1.0000
  H   H3        1.0  0.15735578453586638  0.9270076633144556  0.020818386855673103  1.0000
  H   H4        1.0  0.07737723126248848  0.1867365116907821  0.8412313798921216  1.0000
  H   H5        1.0  0.06841744873082692  0.5253196882593871  0.517499384568751  1.0000
  H   H6        1.0  0.08245242905798017  0.7135130147150053  0.5456884093088021  1.0000
  H   H7        1.0  0.6735541562752304  0.6328080664600649  0.029191181404087288  1.0000
  H   H8        1.0  0.48696772890808393  0.6070753940875734  0.024812960730592703  1.0000
  H   H9        1.0  0.5932050630758496  0.11397143520787983  0.6228801236046094  1.0000
  H   H10       1.0  0.5674133255614534  0.12089459477341087  0.437783001452729  1.0000
  C   C1        1.0  0.7984354351291784  0.06509304981829443  0.4523300912043524  1.0000
  C   C2        1.0  0.6942606963933996  0.08981746409105541  0.5402045469387814  1.0000
  C   C3        1.0  0.8205304397235407  0.059855518482386606  0.5867267462237606  1.0000
  C   C4        1.0  0.3662663345788316  0.17059496320127476  0.6137416644463725  1.0000
  C   C5        1.0  0.3386394248974653  0.1706167294567607  0.47969513876384434  1.0000
  C   C6        1.0  0.4673303755010706  0.14469565249018498  0.5223793900360221  1.0000
  C   C7        1.0  0.5069769045990141  0.8308361532488752  0.9659031140265808  1.0000
  C   C8        1.0  0.5929403024319838  0.7303647276533811  0.9980593775370676  1.0000
  C   C9        1.0  0.6423803225022339  0.8534330889015183  0.9696234313229438  1.0000
  C   C10       1.0  0.6581485105849936  0.41285921665203784  0.0894485622143648  1.0000
  C   C11       1.0  0.569349320664237  0.5102792926465299  0.055545924485436216  1.0000
  C   C12       1.0  0.5238908212988918  0.38462405638897235  0.0804294256254821  1.0000
  C   C13       1.0  0.019638431115822603  0.521513516754418  0.7469667619628025  1.0000
  C   C14       1.0  0.0485389634898468  0.5890186576865448  0.6370202107309524  1.0000
  C   C15       1.0  0.026756480995480596  0.6591068489876621  0.7598318631976396  1.0000
  C   C16       1.0  0.1335214686248989  0.7240893523590656  0.3190907864969859  1.0000
  C   C17       1.0  0.10235742840551859  0.6523447012561621  0.4255906529613753  1.0000
  C   C18       1.0  0.1216558172949647  0.5869193766941269  0.3001879905069984  1.0000
  C   C19       1.0  0.9284692358026234  0.07054238622434642  0.24540514008516814  1.0000
  C   C20       1.0  0.10899114549288667  0.37768863690766363  0.14817444089114667  1.0000
  C   C21       1.0  0.1860082941628534  0.16331054422672517  0.2845589810656506  1.0000
  C   C22       1.0  0.8677841637853945  0.2850032385201545  0.09275500658315392  1.0000
  C   C23       1.0  0.2415167577776954  0.16927879690136655  0.8235542251317511  1.0000
  C   C24       1.0  0.04340521892596879  0.8685482831830033  0.9104941054793798  1.0000
  C   C25       1.0  0.3309624328827923  0.23002744987114462  0.068156786156166  1.0000
  C   C26       1.0  0.019276296911719695  0.3311068900440689  0.8863990557628867  1.0000
  C   C27       1.0  0.8350325994098426  0.007872973818180602  0.9854031872899751  1.0000
  C   C28       1.0  0.13910706695693156  0.9174998364507948  0.1847193068162412  1.0000
  C   C29       1.0  0.3000477853527599  0.9649202439295693  0.9676148307750905  1.0000
  C   C30       1.0  0.9722979330260128  0.06981813735677633  0.7820096622577069  1.0000
  C   C31       1.0  0.14469052742493457  0.7985900325076474  0.28258525211302304  1.0000
  C   C32       1.0  0.14757210870786958  0.8560804241577532  0.24131693456682507  1.0000
  C   C33       1.0  0.11909339119411298  0.4553805135640589  0.1955374688040337  1.0000
  C   C34       1.0  0.12153137380869337  0.5144614577204081  0.24534985245900023  1.0000
  C   C35       1.0  0.0254358473118685  0.733260303545194  0.8121159727225729  1.0000
  C   C36       1.0  0.028436602673593797  0.7929485512374158  0.8611003395942445  1.0000
  C   C37       1.0  0.010949105130002601  0.4488347686255666  0.7871046801783661  1.0000
  C   C38       1.0  0.0094368848522492  0.3935137821129047  0.8311498816475904  1.0000
  C   C39       1.0  0.06744380297936908  0.5859881869444552  0.5502184210224002  1.0000
  C   C40       1.0  0.08336368103499578  0.6532511796394689  0.5121262574860239  1.0000
  C   C41       1.0  0.7381897233648684  0.38147493333374893  0.1005794904588342  1.0000
  C   C42       1.0  0.8009910140353824  0.3422462746660528  0.1027353872058541  1.0000
  C   C43       1.0  0.40560882790538233  0.276091846551907  0.0797202937449057  1.0000
  C   C44       1.0  0.4593702361284642  0.3267934061691805  0.082227629920439  1.0000
  C   C45       1.0  0.7626618607348946  0.9593532464568215  0.9687982596435916  1.0000
  C   C46       1.0  0.708487615137521  0.9090950220694297  0.9660235699388906  1.0000
  C   C47       1.0  0.4280854285334072  0.8659955548223838  0.9575244837076085  1.0000
  C   C48       1.0  0.36732451599514343  0.9084147202007602  0.9565659725686401  1.0000
  C   C49       1.0  0.6094478019845866  0.647899582943801  0.02116785923244182  1.0000
  C   C50       1.0  0.5512319134476229  0.592646101269118  0.0328173724783127  1.0000
  C   C51       1.0  0.3342859359206756  0.17677649324316752  0.6941241100529679  1.0000
  C   C52       1.0  0.2962386585758452  0.17751563293351322  0.7569957209875255  1.0000
  C   C53       1.0  0.28050655950140413  0.17558627292942933  0.4154263661184316  1.0000
  C   C54       1.0  0.23055461859261328  0.17470229216436195  0.3606441697137939  1.0000
  C   C55       1.0  0.925787950626244  0.053649977444969514  0.7076738940446033  1.0000
  C   C56       1.0  0.8764404605244562  0.052707925329095025  0.6524011815154864  1.0000
  C   C57       1.0  0.8749363781864758  0.06131877326750162  0.3126063263631877  1.0000
  C   C58       1.0  0.8339700164294612  0.06106257586533561  0.37353153951264767  1.0000
  C   C59       1.0  0.6091374061725786  0.11039019616607963  0.5586496046363507  1.0000
  C   C60       1.0  0.5522757991263489  0.12464462522574146  0.5022014813365772  1.0000
  N   N1        1.0  0.7194996341878053  0.08453630122166801  0.4621974215155404  1.0000
  N   N2        1.0  0.7424483843609764  0.07862379388708972  0.6049680774092039  1.0000
  N   N3        1.0  0.8520324663080457  0.05054583072086423  0.5116884147822701  1.0000
  N   N4        1.0  0.3098967163681579  0.18168911553379988  0.5557872819514103  1.0000
  N   N5        1.0  0.41640169098858587  0.15278956725443757  0.458981502669765  1.0000
  N   N6        1.0  0.44510709632367434  0.15250123962620427  0.6013201294268953  1.0000
  N   N7        1.0  0.5150501169610351  0.7542715382291265  0.9868880434312854  1.0000
  N   N8        1.0  0.6589481941615104  0.7778325944306135  0.9909691659728208  1.0000
  N   N9        1.0  0.5680565843087989  0.8830603726473644  0.9545023669749284  1.0000
  N   N10       1.0  0.6476322199754563  0.48944145309472026  0.06941564967176819  1.0000
  N   N11       1.0  0.5050219204340252  0.4600201031286418  0.05976768042803119  1.0000
  N   N12       1.0  0.5988403476771467  0.3576716113073887  0.097408665882682  1.0000
  N   N13       1.0  0.0368114298328805  0.5162529328318899  0.6671771736467136  1.0000
  N   N14       1.0  0.0450583268599587  0.6623630978436666  0.6810334187272602  1.0000
  N   N15       1.0  0.012062187122040801  0.5908025643231057  0.7963378317335026  1.0000
  N   N16       1.0  0.11671429481074819  0.726212582971101  0.3987507113582325  1.0000
  N   N17       1.0  0.10337099091186988  0.5806506958457265  0.378618661470739  1.0000
  N   N18       1.0  0.1383642379170027  0.65654921765222  0.2667501895537825  1.0000
  O   O1        1.0  0.939973133669021  0.010300720949608402  0.19319995896099576  1.0000
  O   O2        1.0  0.1417435121742301  0.3642164498665041  0.0789956280644901  1.0000
  O   O3        1.0  0.1169510446121507  0.19602491773348166  0.2754488558832903  1.0000
  O   O4        1.0  0.9161189549942819  0.2759934521812825  0.151380033192865  1.0000
  O   O5        1.0  0.868859740773189  0.24634210054772868  0.021758207361884302  1.0000
  O   O6        1.0  0.22592319785889708  0.11869809432008083  0.23060095792948934  1.0000
  O   O7        1.0  0.06634332252696139  0.3274863706645592  0.18499532870846744  1.0000
  O   O8        1.0  0.9593928315380963  0.1420481751429534  0.2460021012741151  1.0000
  O   O9        1.0  0.0396374872534793  0.22269627387932908  0.037850606742459506  1.0000
  O   O10       1.0  0.08342218431782558  0.0855709548999286  0.1314108574480173  1.0000
  O   O11       1.0  0.16601014362680644  0.21190681864268882  0.12191948952280282  1.0000
  O   O12       1.0  0.9425556582861956  0.12098343146399773  0.0848318650871107  1.0000
  O   O13       1.0  0.22863410416099575  0.23009806713795916  0.8746725143711416  1.0000
  O   O14       1.0  0.0112137983553424  0.8818712840643458  0.9799652606814674  1.0000
  O   O15       1.0  0.3216105760590082  0.16257150887419416  0.09832391134161608  1.0000
  O   O16       1.0  0.9613885285690171  0.28219799913223653  0.8955229585903979  1.0000
  O   O17       1.0  0.8442568265418872  0.07571251471672721  0.9558871953207982  1.0000
  O   O18       1.0  0.19762675021833326  0.9652303162746708  0.17439318365662607  1.0000
  O   O19       1.0  0.25090342205867694  0.9731056008563643  0.9093967162045686  1.0000
  O   O20       1.0  0.04183038267088079  0.037994060034940005  0.7910375842681461  1.0000
  O   O21       1.0  0.2974667814774961  0.001762734834919401  0.0393701781720566  1.0000
  O   O22       1.0  0.9349781498448377  0.11957898158424742  0.8334929190407506  1.0000
  O   O23       1.0  0.2783337716349266  0.26689299745341794  0.02657433054238109  1.0000
  O   O24       1.0  0.06970109970147581  0.9153187737901975  0.1485162286222206  1.0000
  O   O25       1.0  0.8846610114233967  0.9742042502561576  0.032697984771545015  1.0000
  O   O26       1.0  0.08959226702289409  0.33155550993463845  0.9206170770179866  1.0000
  O   O27       1.0  0.20895840295093387  0.09843909044391101  0.8216972915022821  1.0000
  O   O28       1.0  0.0916402067129809  0.916007031241904  0.87649923834401  1.0000
  O   O29       1.0  0.018372074262430288  0.05421800495044952  0.9648870083924593  1.0000
  O   O30       1.0  0.1825645638393638  0.12196464478091683  0.992314314433166  1.0000
  O   O31       1.0  0.13699000255031277  0.9826700915421756  0.023766453717222188  1.0000
  O   O32       1.0  0.07858187076540449  0.16930636979400054  0.895767510692167  1.0000
