data_image0
_chemical_formula_structural       Zn8H64C92N4O26
_chemical_formula_sum              "Zn8 H64 C92 N4 O26"
_cell_length_a       13.636471107002262
_cell_length_b       13.636473739002012
_cell_length_c       24.28536796600198
_cell_angle_alpha    89.99997114140618
_cell_angle_beta     89.99996376952343
_cell_angle_gamma    90.00005514254161

_space_group_name_H-M_alt    "P 1"
_space_group_IT_number       1

loop_
  _space_group_symop_operation_xyz
  'x, y, z'

loop_
  _atom_site_type_symbol
  _atom_site_label
  _atom_site_symmetry_multiplicity
  _atom_site_fract_x
  _atom_site_fract_y
  _atom_site_fract_z
  _atom_site_occupancy
  Zn  Zn1       1.0  0.36773337912023873  0.26007072036467355  0.7960286023432844  1.0000
  Zn  Zn2       1.0  0.1322670251807168  0.2399290363498069  0.7960282352606995  1.0000
  Zn  Zn3       1.0  0.7399292195000771  0.8677333504882303  0.2960282024497545  1.0000
  Zn  Zn4       1.0  0.7600706807853967  0.632267061380894  0.296028232195539  1.0000
  Zn  Zn5       1.0  0.6322671916283794  0.7399290385174739  0.20397157397680843  1.0000
  Zn  Zn6       1.0  0.8677328122405754  0.76007072253217  0.2039715292889497  1.0000
  Zn  Zn7       1.0  0.2600706179215706  0.13226714172115817  0.7039715620997882  1.0000
  Zn  Zn8       1.0  0.23992915663590256  0.36773269750107573  0.7039715323541104  1.0000
  H   H1        1.0  0.4163855925432145  0.8685044609608001  0.729541147700573  1.0000
  H   H2        1.0  0.08361463445259432  0.6314958144805729  0.7295412403697628  1.0000
  H   H3        1.0  0.13149547549459584  0.9163864279960098  0.22954176732184103  1.0000
  H   H4        1.0  0.368504580781533  0.5836135622535467  0.22954218407674182  1.0000
  H   H5        1.0  0.5836142448782056  0.13149603124840337  0.2704590286195483  1.0000
  H   H6        1.0  0.9163852029684708  0.368503944401219  0.2704589359504652  1.0000
  H   H7        1.0  0.8685043619269451  0.0836147975404202  0.7704588207687523  1.0000
  H   H8        1.0  0.6314959899662681  0.4163854633008128  0.7704588157846145  1.0000
  H   H9        1.0  0.5185959683381043  0.7260549136080174  0.7593747516046039  1.0000
  H   H10       1.0  0.9814034105814501  0.7739450829760133  0.7593746625957536  1.0000
  H   H11       1.0  0.2739446373475687  0.01859646543820051  0.2593746474350951  1.0000
  H   H12       1.0  0.22605490415092086  0.4814037722640451  0.2593745904450415  1.0000
  H   H13       1.0  0.4814038690835432  0.2739455786013708  0.240625012944939  1.0000
  H   H14       1.0  0.0185964268398493  0.22605467590595651  0.24062510195388853  1.0000
  H   H15       1.0  0.7260552000738515  0.981404026771003  0.7406255288850261  1.0000
  H   H16       1.0  0.7739449332704993  0.5185967199451583  0.7406255858750797  1.0000
  H   H17       1.0  0.6726967135068949  0.9135161566176964  0.8729121991166694  1.0000
  H   H18       1.0  0.8273032709857517  0.5864837382060629  0.8729122179297734  1.0000
  H   H19       1.0  0.08648339170721903  0.17269628011695204  0.3729121603570533  1.0000
  H   H20       1.0  0.41351602203644694  0.3273031224972486  0.3729120803694031  1.0000
  H   H21       1.0  0.3273031239144046  0.08648360226428053  0.1270875654329728  1.0000
  H   H22       1.0  0.17269656643590287  0.41351675400332516  0.1270875466197694  1.0000
  H   H23       1.0  0.9135164457140732  0.8273034787650246  0.6270876041925959  1.0000
  H   H24       1.0  0.5864838153848525  0.6726966363847283  0.6270876841802462  1.0000
  H   H25       1.0  0.5709023868164564  0.055423316494405114  0.8421464881528351  1.0000
  H   H26       1.0  0.9290978844125491  0.4445768800951343  0.8421463694338414  1.0000
  H   H27       1.0  0.9445763305800341  0.07090206206952844  0.34214658357640104  1.0000
  H   H28       1.0  0.5554230366020861  0.429097116000989  0.3421466020270216  1.0000
  H   H29       1.0  0.4290981839327515  0.944577175715331  0.1578532763965796  1.0000
  H   H30       1.0  0.0709019530087502  0.5554228787868426  0.1578533951158008  1.0000
  H   H31       1.0  0.0554235068410307  0.9290976968122564  0.6578535927438196  1.0000
  H   H32       1.0  0.44457753414618406  0.5709019095537472  0.6578535742931778  1.0000
  H   H33       1.0  0.6187486298022691  0.6719404870564603  0.8598121737283861  1.0000
  H   H34       1.0  0.8812506361038434  0.8280601528357753  0.8598116932217933  1.0000
  H   H35       1.0  0.32805980254325123  0.11874843782273102  0.35981205590614007  1.0000
  H   H36       1.0  0.17193962594050305  0.381250243205301  0.35981204649470305  1.0000
  H   H37       1.0  0.381251207619151  0.328060005152743  0.140188002591735  1.0000
  H   H38       1.0  0.1187492013178115  0.17194033937360595  0.1401880713277492  1.0000
  H   H39       1.0  0.6719400348778138  0.8812513210590609  0.6401881204140878  1.0000
  H   H40       1.0  0.8280602114807966  0.6187495156766759  0.6401877180549391  1.0000
  H   H41       1.0  0.6878090578855948  0.6825987279007183  0.7995598301494624  1.0000
  H   H42       1.0  0.8121902758169455  0.8174012326664839  0.7995597889715285  1.0000
  H   H43       1.0  0.3174016870067859  0.1878095687489463  0.29956012999659987  1.0000
  H   H44       1.0  0.18259780927387942  0.3121898996086829  0.2995601363454271  1.0000
  H   H45       1.0  0.31219077953605284  0.31740176430867  0.20043993440008026  1.0000
  H   H46       1.0  0.18780956160434673  0.18259852621549305  0.20043997557811372  1.0000
  H   H47       1.0  0.6825981504146342  0.812190923460257  0.7004400463235214  1.0000
  H   H48       1.0  0.8174020281474199  0.6878098592732941  0.7004396282042222  1.0000
  H   H49       1.0  0.5913302363613155  0.7383439713307073  0.9335475148024273  1.0000
  H   H50       1.0  0.9086696799034045  0.7616558691472689  0.9335474551186422  1.0000
  H   H51       1.0  0.2616562045370259  0.09133072753389368  0.4335474171851317  1.0000
  H   H52       1.0  0.23834387430662932  0.40866935406229044  0.43354737641571717  1.0000
  H   H53       1.0  0.40866960105974937  0.2616557875510851  0.0664526615177934  1.0000
  H   H54       1.0  0.0913308908452137  0.23834388973487114  0.0664527212014505  1.0000
  H   H55       1.0  0.7383436328842737  0.908669031348076  0.5664523473645175  1.0000
  H   H56       1.0  0.7616559631144356  0.5913304048195017  0.5664527999045036  1.0000
  H   H57       1.0  0.5935600559158019  0.7344606732024419  0.0347713452655611  1.0000
  H   H58       1.0  0.9064394050127904  0.7655392394964977  0.0347712852750632  1.0000
  H   H59       1.0  0.265539118058271  0.09356073270109282  0.5347713302434869  1.0000
  H   H60       1.0  0.23446084688674776  0.4064399914982106  0.5347712914850362  1.0000
  H   H61       1.0  0.40643978150526294  0.26553908567934315  0.9652288310546595  1.0000
  H   H62       1.0  0.0935604324088573  0.23446125271288315  0.9652284792744795  1.0000
  H   H63       1.0  0.7344607193633766  0.9064397595082884  0.4652284343060559  1.0000
  H   H64       1.0  0.7655389905346722  0.593560500710993  0.465228884835085  1.0000
  C   C1        1.0  0.42692456429918485  0.05606054255348172  0.7666755550588037  1.0000
  C   C2        1.0  0.0730751397025884  0.44393924046882205  0.7666755630356761  1.0000
  C   C3        1.0  0.9439395233223564  0.9269239838982062  0.2666755039549003  1.0000
  C   C4        1.0  0.5560611433184519  0.5730757209518559  0.2666756229513112  1.0000
  C   C5        1.0  0.5730760064493127  0.9439384830014321  0.2333242094908101  1.0000
  C   C6        1.0  0.9269246977190592  0.556061251740566  0.23332420151386662  1.0000
  C   C7        1.0  0.056061047426261716  0.07307577498393411  0.7333246723651925  1.0000
  C   C8        1.0  0.4439394274301662  0.4269240379302844  0.7333245533687817  1.0000
  C   C9        1.0  0.488293511133044  0.9705997802757695  0.7837297167458532  1.0000
  C   C10       1.0  0.0117066548887621  0.5294004465978052  0.7837298638663128  1.0000
  C   C11       1.0  0.0294001509083088  0.9882935073239669  0.2837303715562527  1.0000
  C   C12       1.0  0.4705998443938313  0.511706434357798  0.2837307723841604  1.0000
  C   C13       1.0  0.5117070596158018  0.029399978606555507  0.21627004780366121  1.0000
  C   C14       1.0  0.9882931825326582  0.47060004561139135  0.21627031245380834  1.0000
  C   C15       1.0  0.9706004198400822  0.011706251557988902  0.7162702165344187  1.0000
  C   C16       1.0  0.5293999930267718  0.48829332452362467  0.7162702274772244  1.0000
  C   C17       1.0  0.473172265135311  0.8774884684613228  0.760678815663688  1.0000
  C   C18       1.0  0.026827193496252705  0.6225117790718219  0.7606789310555513  1.0000
  C   C19       1.0  0.12251148943978052  0.9731723512180468  0.2606798519764126  1.0000
  C   C20       1.0  0.3774885317990808  0.5268268777960402  0.26067986984163133  1.0000
  C   C21       1.0  0.5268275722859812  0.12251129042065402  0.239320948885954  1.0000
  C   C22       1.0  0.9731726439254021  0.3774887131375594  0.2393208334939914  1.0000
  C   C23       1.0  0.8774883479808224  0.02682740766336881  0.7393211478849723  1.0000
  C   C24       1.0  0.6225120389490757  0.4731728810857306  0.7393211300196184  1.0000
  C   C25       1.0  0.5300219693929336  0.7982971942503526  0.7777273540038794  1.0000
  C   C26       1.0  0.9699773888759327  0.70170278588472  0.7777272895036164  1.0000
  C   C27       1.0  0.20170233520813244  0.030022396860999803  0.27772768507811924  1.0000
  C   C28       1.0  0.29829718563884466  0.4699770910645072  0.2777276056504121  1.0000
  C   C29       1.0  0.4699778680281383  0.20170256463143946  0.2222728223163486  1.0000
  C   C30       1.0  0.0300224485454876  0.29829770632447616  0.22227288681650495  1.0000
  C   C31       1.0  0.7982975022130532  0.9699780953480188  0.7222729030125806  1.0000
  C   C32       1.0  0.701702651781993  0.5300226678171002  0.7222729824403943  1.0000
  C   C33       1.0  0.6024226486736524  0.8107241772876964  0.8181870928167783  1.0000
  C   C34       1.0  0.8975766640691561  0.6892757665843804  0.818187057562163  1.0000
  C   C35       1.0  0.18927611188530596  0.10242305483964742  0.3181870187045917  1.0000
  C   C36       1.0  0.3107233634364378  0.3975771301506442  0.3181869553541219  1.0000
  C   C37       1.0  0.3975771887479952  0.18927631492168473  0.18181267173276444  1.0000
  C   C38       1.0  0.1024231733521432  0.31072399229759645  0.18181270698748622  1.0000
  C   C39       1.0  0.8107237255363416  0.8975774373697406  0.681812745844951  1.0000
  C   C40       1.0  0.689276473985217  0.6024233620587438  0.6818128091954209  1.0000
  C   C41       1.0  0.6168604332713132  0.9036301570810186  0.841275465172025  1.0000
  C   C42       1.0  0.8831388534919002  0.5963690327703192  0.8412750495746625  1.0000
  C   C43       1.0  0.09636937139115533  0.11686074987877504  0.3412754212379738  1.0000
  C   C44       1.0  0.4036308112780844  0.38313868109076316  0.3412757407295146  1.0000
  C   C45       1.0  0.38313940414975894  0.09636960180076673  0.1587247111482029  1.0000
  C   C46       1.0  0.11686098392939932  0.4036307261116507  0.15872471497498714  1.0000
  C   C47       1.0  0.9036304660302649  0.8831397423304284  0.6587247550821475  1.0000
  C   C48       1.0  0.5963697594703063  0.6168610777911924  0.6587248473611638  1.0000
  C   C49       1.0  0.5603971927246789  0.9829937634255758  0.8242141618508684  1.0000
  C   C50       1.0  0.9396021132363402  0.5170061750445855  0.82421416042326  1.0000
  C   C51       1.0  0.017006445959324903  0.06039744189644842  0.3242141412085857  1.0000
  C   C52       1.0  0.4829937559081828  0.43960273769227604  0.3242140047451869  1.0000
  C   C53       1.0  0.4396026446969685  0.017006728783812305  0.1757856026986744  1.0000
  C   C54       1.0  0.060397724184724715  0.4829935838372067  0.17578601589696063  1.0000
  C   C55       1.0  0.9829941247892934  0.9396023169856921  0.6757860351115071  1.0000
  C   C56       1.0  0.5170060815132373  0.5603977545169273  0.6757861715749344  1.0000
  C   C57       1.0  0.6639341119849577  0.7239158330576959  0.8361967039353218  1.0000
  C   C58       1.0  0.836065913820896  0.7760840946733865  0.8361962541973896  1.0000
  C   C59       1.0  0.2760837805395156  0.16393459188579138  0.33619660433747367  1.0000
  C   C60       1.0  0.22391567451690264  0.3360648436353629  0.3361970010164015  1.0000
  C   C61       1.0  0.3360657254363417  0.27608392582428115  0.1638030606143275  1.0000
  C   C62       1.0  0.16393392360075862  0.22391639753600157  0.1638035103521531  1.0000
  C   C63       1.0  0.7239160568819045  0.8360659003234051  0.6638035719826476  1.0000
  C   C64       1.0  0.7760841629041693  0.6639349152464292  0.6638031753038192  1.0000
  C   C65       1.0  0.7499995963990785  0.7500002908296751  0.9247841835233217  1.0000
  C   C66       1.0  0.2500000443519141  0.2500000447250629  0.4247845071337721  1.0000
  C   C67       1.0  0.2500002410225761  0.25000020137971296  0.0752155810262209  1.0000
  C   C68       1.0  0.7499997930695059  0.7500004474841406  0.575215669186349  1.0000
  C   C69       1.0  0.6613791404932955  0.7416322355583134  0.9549636896433995  1.0000
  C   C70       1.0  0.8386207516735454  0.7583675857249049  0.9549636557828051  1.0000
  C   C71       1.0  0.25836798544460754  0.16137961743231705  0.45496400737881254  1.0000
  C   C72       1.0  0.24163206930070666  0.3386204449687399  0.4549639852683285  1.0000
  C   C73       1.0  0.3386206969280039  0.25836752332366336  0.0450360749062426  1.0000
  C   C74       1.0  0.16137981907530735  0.24163217315742713  0.045036108766709  1.0000
  C   C75       1.0  0.74163185197704  0.838620874777071  0.54503575717073  1.0000
  C   C76       1.0  0.7583677681203654  0.6613793139130524  0.5450361910518993  1.0000
  C   C77       1.0  0.6621071315075042  0.7407431323249797  0.0120197724606115  1.0000
  C   C78       1.0  0.8378930883491125  0.7592568007659325  0.012019738606980501  1.0000
  C   C79       1.0  0.25925674668984305  0.1621070530842488  0.5120197619222324  1.0000
  C   C80       1.0  0.24074324385529172  0.33789295817926057  0.5120197403334998  1.0000
  C   C81       1.0  0.33789270591379517  0.25925662655699716  0.9879799920890308  1.0000
  C   C82       1.0  0.16210674907218706  0.24074295811603721  0.9879800259426617  1.0000
  C   C83       1.0  0.7407430907314564  0.837892705797728  0.4879800026274098  1.0000
  C   C84       1.0  0.7592565935657732  0.6621068007025246  0.4879804359867279  1.0000
  C   C85       1.0  0.7500000932504491  0.7499999532609964  0.041663531201848514  1.0000
  C   C86       1.0  0.24999997859470824  0.24999999234729137  0.5416635267959151  1.0000
  C   C87       1.0  0.24999974417085008  0.24999980562098054  0.9583362333478008  1.0000
  C   C88       1.0  0.749999858826591  0.7499997665346858  0.4583362377537341  1.0000
  C   C89       1.0  0.7500000590366442  0.7499999260085702  0.10247628075819651  1.0000
  C   C90       1.0  0.24999994438090306  0.24999996509487235  0.6024762763522702  1.0000
  C   C91       1.0  0.2500005117122086  0.2499998328737547  0.8975234837913177  1.0000
  C   C92       1.0  0.7499998930403962  0.7499997937871046  0.39752348819737904  1.0000
  N   N1        1.0  0.7499996283408166  0.7499995829451863  0.8680092562532025  1.0000
  N   N2        1.0  0.24999934296644716  0.2500000701676371  0.36800957986368127  1.0000
  N   N3        1.0  0.2500002090804827  0.2500001759367905  0.1319905082964397  1.0000
  N   N4        1.0  0.7500004944549732  0.7500004220415666  0.6319905964564398  1.0000
  O   O1        1.0  0.44420178700497814  0.13732861721781123  0.7907950020834704  1.0000
  O   O2        1.0  0.0557978898571463  0.36267114418686236  0.7907950392029618  1.0000
  O   O3        1.0  0.8626706918943867  0.9442018611434054  0.2907949775453744  1.0000
  O   O4        1.0  0.6373299476077036  0.5557992887440408  0.29079466078200517  1.0000
  O   O5        1.0  0.5557995170712005  0.8626711416646843  0.2092051742364944  1.0000
  O   O6        1.0  0.9442019475639256  0.637328614694923  0.2092051371172587  1.0000
  O   O7        1.0  0.13732914552702616  0.05579863106579811  0.7092051987747467  1.0000
  O   O8        1.0  0.3626706231414971  0.4442012034657027  0.7092051037674096  1.0000
  O   O9        1.0  0.3620001562300672  0.04095471655463712  0.7296120990225391  1.0000
  O   O10       1.0  0.13799958947620183  0.45904509968666934  0.7296120796522628  1.0000
  O   O11       1.0  0.9590453272144046  0.8620003319830618  0.22961204074943714  1.0000
  O   O12       1.0  0.540954647803119  0.6379994060854629  0.22961255850780304  1.0000
  O   O13       1.0  0.6379996811912251  0.95904504232734  0.27038766552711024  1.0000
  O   O14       1.0  0.8620002479450974  0.5409546591953076  0.2703876848973792  1.0000
  O   O15       1.0  0.0409545102068947  0.13799942689891512  0.7703877238002121  1.0000
  O   O16       1.0  0.459045189617953  0.3620003527963219  0.7703876178124177  1.0000
  O   O17       1.0  0.6695246685120184  0.7267959304704308  0.12664846657087742  1.0000
  O   O18       1.0  0.8304754223623051  0.7732038998818426  0.12664843140539261  1.0000
  O   O19       1.0  0.2732045758422927  0.16952461520226342  0.6266484518485456  1.0000
  O   O20       1.0  0.22679601904845734  0.33047602665037357  0.6266484373156374  1.0000
  O   O21       1.0  0.3304751689096364  0.27320456173895746  0.8733512979786654  1.0000
  O   O22       1.0  0.16952441505898722  0.2267958590001272  0.8733513331442495  1.0000
  O   O23       1.0  0.7267959949065602  0.8304751436800618  0.37335131270096866  1.0000
  O   O24       1.0  0.7732045517007506  0.6695244655593628  0.3733513272337774  1.0000
  O   O25       1.0  0.24999986138266186  0.24999989898404354  0.7500000859571474  1.0000
  O   O26       1.0  0.749999976038403  0.7499998598977486  0.2500000903630806  1.0000
