data_image0
_chemical_formula_structural       ZnSiH12C20N8F10
_chemical_formula_sum              "Zn1 Si1 H12 C20 N8 F10"
_cell_length_a       7.73900108319168
_cell_length_b       13.48094578827498
_cell_length_c       13.485325326051315
_cell_angle_alpha    88.84389726088496
_cell_angle_beta     75.29674496036763
_cell_angle_gamma    75.28931845202786

_space_group_name_H-M_alt    "P 1"
_space_group_IT_number       1

loop_
  _space_group_symop_operation_xyz
  'x, y, z'

loop_
  _atom_site_type_symbol
  _atom_site_label
  _atom_site_symmetry_multiplicity
  _atom_site_fract_x
  _atom_site_fract_y
  _atom_site_fract_z
  _atom_site_occupancy
  Zn  Zn1       1.0  0.5000016113900401  0.499977952843814  0.4999762108616892  1.0000
  Si  Si1       1.0  3.448524729817419e-06  0.5000467077551178  0.49990010951889013  1.0000
  H   H1        1.0  0.26615086252174086  0.568948345521754  0.3549128442554235  1.0000
  H   H2        1.0  0.26122397289213245  0.5678119600143816  0.1721289934479202  1.0000
  H   H3        1.0  0.8523206822646903  0.4325657249936938  0.09565788155535418  1.0000
  H   H4        1.0  0.1476903046287532  0.5671913145804197  0.9043304643662538  1.0000
  H   H5        1.0  0.738995681508513  0.4326167294538621  0.827765812652828  1.0000
  H   H6        1.0  0.7339940609158406  0.4313722997968767  0.6450054695493391  1.0000
  H   H7        1.0  0.2660381678016678  0.3550472926859314  0.5690152799712749  1.0000
  H   H8        1.0  0.26115479901557836  0.1721813443202649  0.567962621027128  1.0000
  H   H9        1.0  0.8520872871842542  0.09571975153705377  0.4321869097939696  1.0000
  H   H10       1.0  0.1479138682213376  0.9041328765053008  0.5682723394473328  1.0000
  H   H11       1.0  0.7386178329656944  0.8278502876000856  0.4318833205051149  1.0000
  H   H12       1.0  0.7338449535923746  0.6449637165671617  0.43070208136769134  1.0000
  C   C1        1.0  0.3935307837410136  0.5392815105210217  0.2957931985676012  1.0000
  C   C2        1.0  0.39038571438234737  0.5386231372688853  0.19366167882645158  1.0000
  C   C3        1.0  0.5567033649323606  0.4984126766510358  0.11935144626603027  1.0000
  C   C4        1.0  0.7194766769758162  0.46278297260483464  0.1505618068683887  1.0000
  C   C5        1.0  0.7055415232836356  0.4658061324194377  0.2555193442759816  1.0000
  C   C6        1.0  0.2805489625153825  0.537107852379556  0.8494024671287619  1.0000
  C   C7        1.0  0.44339703220315835  0.5017178493553799  0.8805934468759844  1.0000
  C   C8        1.0  0.6097655629997549  0.4616558431243546  0.8062683036273627  1.0000
  C   C9        1.0  0.6065769034945988  0.4609275822692068  0.7041429178160499  1.0000
  C   C10       1.0  0.29441691886000865  0.5339814620401028  0.7444542865480558  1.0000
  C   C11       1.0  0.39343107486003265  0.2959109457137714  0.5392566910681111  1.0000
  C   C12       1.0  0.3902994039907456  0.1937292018616574  0.5386427320996248  1.0000
  C   C13       1.0  0.5565811067670766  0.11938728850670796  0.4982789081115939  1.0000
  C   C14       1.0  0.7192796948067157  0.15064005665642807  0.4625079356612432  1.0000
  C   C15       1.0  0.7053302982445758  0.25563995766304964  0.46547944078320563  1.0000
  C   C16       1.0  0.28069100184274737  0.8492608684962233  0.5377660448068156  1.0000
  C   C17       1.0  0.4433058029387383  0.8805582029535439  0.5018676989226734  1.0000
  C   C18       1.0  0.6095553199613096  0.8062511471586048  0.4613211127738239  1.0000
  C   C19       1.0  0.6064724701961455  0.7040643275091797  0.4606445374160515  1.0000
  C   C20       1.0  0.2947031837260568  0.7442575298062124  0.5347633818961981  1.0000
  N   N1        1.0  0.5492872103674389  0.5015201263390024  0.3280134422039822  1.0000
  N   N2        1.0  0.5760149517541963  0.49172091783108834  0.0120131973481676  1.0000
  N   N3        1.0  0.4241125356714762  0.5084021600214469  0.9879322084373853  1.0000
  N   N4        1.0  0.45071877910704927  0.4984401737487261  0.6719461340411855  1.0000
  N   N5        1.0  0.5491185088353847  0.3281625452734076  0.5013243241737655  1.0000
  N   N6        1.0  0.5758972641337365  0.012002319875783504  0.49165889002979674  1.0000
  N   N7        1.0  0.42395269701886235  0.9879453220549409  0.5085395658144307  1.0000
  N   N8        1.0  0.45087184983272277  0.6717695474884805  0.4987151572685208  1.0000
  F   F1        1.0  0.22077437045607717  0.5118003081538517  0.5115787323620964  1.0000
  F   F2        1.0  0.7792328852858722  0.4882729999286111  0.48824571340860956  1.0000
  F   F3        1.0  0.9999709032049041  0.5906192707998557  0.40925346062342527  1.0000
  F   F4        1.0  3.513024471858411e-05  0.40947887743735123  0.590558231316308  1.0000
  F   F5        1.0  0.1120395995859056  0.40786912868156827  0.40785610538487294  1.0000
  F   F6        1.0  0.887978461830003  0.5922343320530246  0.5919372876395244  1.0000
  F   F7        1.0  0.8603438850217344  0.43033871965852194  0.2860495401536625  1.0000
  F   F8        1.0  0.13948559023982904  0.5691444184476424  0.7139647072322576  1.0000
  F   F9        1.0  0.8600360825837186  0.2862021802027499  0.4297681127140578  1.0000
  F   F10       1.0  0.14010571202375402  0.7136406441601435  0.5706617039025161  1.0000
