data_image0
_chemical_formula_structural       V4H32C48I4N8O20
_chemical_formula_sum              "V4 H32 C48 I4 N8 O20"
_cell_length_a       11.553525503594896
_cell_length_b       11.553512432289406
_cell_length_c       12.046448481094826
_cell_angle_alpha    114.10494342412919
_cell_angle_beta     113.64039413137549
_cell_angle_gamma    98.97858217278619

_space_group_name_H-M_alt    "P 1"
_space_group_IT_number       1

loop_
  _space_group_symop_operation_xyz
  'x, y, z'

loop_
  _atom_site_type_symbol
  _atom_site_label
  _atom_site_symmetry_multiplicity
  _atom_site_fract_x
  _atom_site_fract_y
  _atom_site_fract_z
  _atom_site_occupancy
  V   V1        1.0  0.6342815241010414  0.6163897862462876  0.269483524166759  1.0000
  V   V2        1.0  0.34690456529843783  0.8647984246474538  0.23051261732933184  1.0000
  V   V3        1.0  0.365714786556886  0.3836095311934288  0.7305145093049814  1.0000
  V   V4        1.0  0.6530977985321728  0.13520188900887584  0.7694881313635232  1.0000
  H   H1        1.0  0.5547897129683291  0.43721851073591017  0.3939128808421656  1.0000
  H   H2        1.0  0.043305347535991155  0.6608770540011973  0.10608694486416663  1.0000
  H   H3        1.0  0.4452094252978328  0.5627807893106151  0.606085402639877  1.0000
  H   H4        1.0  0.9566989021098139  0.3391232496456311  0.8939145248211556  1.0000
  H   H5        1.0  0.6731072419581212  0.3749446602286853  0.572027774839192  1.0000
  H   H6        1.0  0.8029160853267998  0.6010785481010146  0.9279722152256156  1.0000
  H   H7        1.0  0.32689283698650945  0.6250546300552172  0.4279692061822825  1.0000
  H   H8        1.0  0.19708603645927522  0.39891868657309715  0.07202890018916719  1.0000
  H   H9        1.0  0.930383602574672  0.47264914678198283  0.7162713294082789  1.0000
  H   H10       1.0  0.7563766605196849  0.7141123321432661  0.7837292070889814  1.0000
  H   H11       1.0  0.06961538535263408  0.5273522131384712  0.2837285295433318  1.0000
  H   H12       1.0  0.24362625383513156  0.28588695740000963  0.2162738442916136  1.0000
  H   H13       1.0  0.15121448469592744  0.6296998818602759  0.7765565559361246  1.0000
  H   H14       1.0  0.8531431447772421  0.8746590121028177  0.7234454513334965  1.0000
  H   H15       1.0  0.8487854483681119  0.3703014778132997  0.2234453264685356  1.0000
  H   H16       1.0  0.14685773119439463  0.12534234256601454  0.27655679156739404  1.0000
  H   H17       1.0  0.27220762872630644  0.789923812205494  0.736624679062238  1.0000
  H   H18       1.0  0.053297116656487724  0.035581339195609  0.7633769249966843  1.0000
  H   H19       1.0  0.7277932450161942  0.21007753770545887  0.26337590088184726  1.0000
  H   H20       1.0  0.9467029689755364  0.9644179653619245  0.23662504489520564  1.0000
  H   H21       1.0  0.26243334576147254  0.9044570073327591  0.5898610750133242  1.0000
  H   H22       1.0  0.31459397540963613  0.17257291328837712  0.9101376319631809  1.0000
  H   H23       1.0  0.7375648507116497  0.09554230009745623  0.4101376794508838  1.0000
  H   H24       1.0  0.685404221063486  0.8274263941418384  0.08986112250102705  1.0000
  H   H25       1.0  0.11847672090324582  0.9312313752928034  0.39223671321212783  1.0000
  H   H26       1.0  0.5389944650652084  0.2262419841555073  0.10776339893154598  1.0000
  H   H27       1.0  0.881520930618507  0.06876896814515732  0.6077638959563529  1.0000
  H   H28       1.0  0.4610056149939866  0.773757308507328  0.8922344135683313  1.0000
  H   H29       1.0  0.860900360312833  0.8054581238386261  0.25545514847566125  1.0000
  H   H30       1.0  0.550002484246683  0.10544538411116385  0.2445443351255037  1.0000
  H   H31       1.0  0.13909877906789356  0.19454117858683878  0.7445439664847836  1.0000
  H   H32       1.0  0.44999799265416146  0.8945549371757268  0.7554548610964813  1.0000
  C   C1        1.0  0.6660697735934918  0.477030277681017  0.45606076763714737  1.0000
  C   C2        1.0  0.02096903679161244  0.7100094828286532  0.043937989864410575  1.0000
  C   C3        1.0  0.3339295127823902  0.5229669577337077  0.5439342774185146  1.0000
  C   C4        1.0  0.9790346667882518  0.28999185444698844  0.9560645030467894  1.0000
  C   C5        1.0  0.7335946409908872  0.44216799989823136  0.556551686829678  1.0000
  C   C6        1.0  0.8856155707485556  0.6770422583248392  0.9434477970311405  1.0000
  C   C7        1.0  0.2664046453849949  0.5578292355164933  0.4434433582259841  1.0000
  C   C8        1.0  0.11438640069866322  0.3229570362231869  0.056554893853217394  1.0000
  C   C9        1.0  0.8748483459792454  0.4963419855707372  0.6361945736372616  1.0000
  C   C10       1.0  0.8601458265431107  0.7386537376121467  0.8638058913616218  1.0000
  C   C11       1.0  0.12515212980703447  0.5036583333372137  0.3638037911063136  1.0000
  C   C12       1.0  0.13985614490410822  0.2613455569358861  0.1361967995227359  1.0000
  C   C13       1.0  0.9486465097882474  0.5859653730480546  0.6146350144242163  1.0000
  C   C14       1.0  0.9713292179770509  0.8340112901546707  0.8853659791114836  1.0000
  C   C15       1.0  0.05135342104665602  0.4140359818676488  0.38536520502363886  1.0000
  C   C16       1.0  0.0286718094479994  0.1659880070191662  0.11463551979823446  1.0000
  C   C17       1.0  0.09454402833710429  0.6514703758706092  0.6955745037470178  1.0000
  C   C18       1.0  0.9558961839056721  0.8989681324576678  0.8044272804612329  1.0000
  C   C19       1.0  0.9054573948150378  0.34852994754835015  0.30442754740640504  1.0000
  C   C20       1.0  0.04410350377013122  0.10103014109687083  0.19557247423014693  1.0000
  C   C21       1.0  0.16134709889884402  0.7394032402860236  0.6724459003865061  1.0000
  C   C22       1.0  0.06695636566124827  0.9889005675454355  0.8275558334133132  1.0000
  C   C23       1.0  0.8386520404818826  0.2605960621394417  0.327553214573939  1.0000
  C   C24       1.0  0.9330433231291196  0.011097708388042799  0.17244475275646914  1.0000
  C   C25       1.0  0.08836200012289915  0.7658850423240224  0.5634897433795272  1.0000
  C   C26       1.0  0.20239364659284587  0.024873872954493895  0.9365105549223214  1.0000
  C   C27       1.0  0.9116371381432558  0.23411425772250288  0.4365085401025154  1.0000
  C   C28       1.0  0.797606285356622  0.9751274843401493  0.06349049600393654  1.0000
  C   C29       1.0  0.15134620246958982  0.8516765468166344  0.5305249232879418  1.0000
  C   C30       1.0  0.3211510764375163  0.12082477189143503  0.9694764359476049  1.0000
  C   C31       1.0  0.8486519973472326  0.14832276775040035  0.46947632561147395  1.0000
  C   C32       1.0  0.6788492501244718  0.8791776092693836  0.030524335743954894  1.0000
  C   C33       1.0  0.07109376569094658  0.8672863377706436  0.4203197589745001  1.0000
  C   C34       1.0  0.4469660344310569  0.1507774396787269  0.07968126464417218  1.0000
  C   C35       1.0  0.9289037354919432  0.13271606554124557  0.579682425663556  1.0000
  C   C36       1.0  0.5530357811044766  0.8492239028485358  0.9203188443177477  1.0000
  C   C37       1.0  0.9284832316491464  0.7979971926696338  0.3442262795534318  1.0000
  C   C38       1.0  0.45376995095879386  0.08426056335387952  0.1557741297973648  1.0000
  C   C39       1.0  0.0715134769650092  0.20200315577308461  0.6557739691188116  1.0000
  C   C40       1.0  0.5462301313295299  0.9157387340668351  0.8442253456593104  1.0000
  C   C41       1.0  0.8726127330545739  0.6134597607390618  0.5091752386653282  1.0000
  C   C42       1.0  0.10428364265704472  0.8634393638251726  0.9908254845968396  1.0000
  C   C43       1.0  0.12738531196513492  0.38654160418614236  0.4908242597900523  1.0000
  C   C44       1.0  0.895718175107625  0.13656198345996273  0.009176287321885485  1.0000
  C   C45       1.0  0.9434842752127043  0.7012496013133855  0.48108230039299116  1.0000
  C   C46       1.0  0.22016737960368732  0.9624046696716421  0.018919146019790296  1.0000
  C   C47       1.0  0.05651431810208151  0.2987507347408851  0.5189178377933243  1.0000
  C   C48       1.0  0.7798325523457807  0.0375966876229938  0.9810819049064673  1.0000
  I   I1        1.0  0.5765314648329821  0.8434034010895034  0.505135621649053  1.0000
  I   I2        1.0  0.3382648283633074  0.5713968656920726  0.9948620028655735  1.0000
  I   I3        1.0  0.42346792105053777  0.15659898983394535  0.4948664525030677  1.0000
  I   I4        1.0  0.6617339130611981  0.4286014057303973  0.005134896894361333  1.0000
  N   N1        1.0  0.7338377531793939  0.5602927969559561  0.43268828846152724  1.0000
  N   N2        1.0  0.1276045439806311  0.80115083847857  0.06731255035741412  1.0000
  N   N3        1.0  0.2661617796992886  0.4397075269567452  0.5673097157858107  1.0000
  N   N4        1.0  0.8723982166916358  0.19885050380181477  0.9326895820575415  1.0000
  N   N5        1.0  0.8665324784085514  0.718160396305244  0.37414901746297585  1.0000
  N   N6        1.0  0.34401188472495653  0.9923859491819016  0.12585281522396485  1.0000
  N   N7        1.0  0.13346517311319422  0.281839947132724  0.6258515917055117  1.0000
  N   N8        1.0  0.6559904802202184  0.0076143668533675  0.8741487649472927  1.0000
  O   O1        1.0  0.48015411179017786  0.5533921883616628  0.24021116362557382  1.0000
  O   O2        1.0  0.31318146104333533  0.7399408782937158  0.25978489672210964  1.0000
  O   O3        1.0  0.5198424995454616  0.4466030093302039  0.7597837189070159  1.0000
  O   O4        1.0  0.686818076293612  0.2600594551347442  0.7402164334388386  1.0000
  O   O5        1.0  0.5818821317643315  0.7416793220632913  0.585468564964614  1.0000
  O   O6        1.0  0.15620783619387882  0.4964144750222559  0.9145296031206481  1.0000
  O   O7        1.0  0.418114574620688  0.2583210216215477  0.4145300207508311  1.0000
  O   O8        1.0  0.8437907571209067  0.5035858610320149  0.08547053506566024  1.0000
  O   O9        1.0  0.609668521459618  0.6494896916535213  0.13887398220654748  1.0000
  O   O10       1.0  0.5106163852391249  0.9707947641183666  0.3611246458689123  1.0000
  O   O11       1.0  0.3903315619432775  0.3505096081461262  0.8611263247285376  1.0000
  O   O12       1.0  0.4893850356838883  0.029205554542713206  0.6388757423277054  1.0000
  O   O13       1.0  0.6900019790833269  0.7986773871191346  0.43126810603294524  1.0000
  O   O14       1.0  0.36740429924008583  0.7587335579698975  0.06872796007824182  1.0000
  O   O15       1.0  0.30999716364109997  0.2013219224431424  0.5687335033627077  1.0000
  O   O16       1.0  0.6325938938893431  0.24126574232349904  0.9312682999507655  1.0000
  O   O17       1.0  0.7204141391597502  0.008418504173732798  0.6635155573829719  1.0000
  O   O18       1.0  0.34490112791312555  0.5568981643658476  0.8364814174889257  1.0000
  O   O19       1.0  0.2795876786049121  0.9915828431114023  0.33648621453575334  1.0000
  O   O20       1.0  0.6550981595773209  0.4430990734278169  0.16351445904513884  1.0000
