data_image0
_chemical_formula_structural       Al4H44C64O24
_chemical_formula_sum              "Al4 H44 C64 O24"
_cell_length_a       6.699009649466307
_cell_length_b       19.167045710758753
_cell_length_c       21.843696962012444
_cell_angle_alpha    99.4750916730003
_cell_angle_beta     89.99730720921606
_cell_angle_gamma    89.99998987746446

_space_group_name_H-M_alt    "P 1"
_space_group_IT_number       1

loop_
  _space_group_symop_operation_xyz
  'x, y, z'

loop_
  _atom_site_type_symbol
  _atom_site_label
  _atom_site_symmetry_multiplicity
  _atom_site_fract_x
  _atom_site_fract_y
  _atom_site_fract_z
  _atom_site_occupancy
  Al  Al1       1.0  0.1032559640661219  0.5022317858046463  0.5014630224596816  1.0000
  Al  Al2       1.0  0.6032599237717233  0.4977782011024774  0.4985289954262769  1.0000
  Al  Al3       1.0  0.6689119875284248  0.9988583116869025  0.997506909699702  1.0000
  Al  Al4       1.0  0.1689083824818809  0.001148506512628  0.0025016289511441006  1.0000
  H   H1        1.0  0.10438412310348609  0.7683779796969006  0.9534522648366632  1.0000
  H   H2        1.0  0.6043007421172177  0.23163235347047362  0.04653880720559301  1.0000
  H   H3        1.0  0.14869579228354007  0.6562640123688722  0.8788543774681586  1.0000
  H   H4        1.0  0.64864993950426  0.34373784623187487  0.1211359352939709  1.0000
  H   H5        1.0  0.7890957621741919  0.8594639900112997  0.8147643281646423  1.0000
  H   H6        1.0  0.28914969792395334  0.1405390871794623  0.18524913792492734  1.0000
  H   H7        1.0  0.6892632435483106  0.7317478134872742  0.5437093095254256  1.0000
  H   H8        1.0  0.18944824453106426  0.26824474954739225  0.45631232117514037  1.0000
  H   H9        1.0  0.6452607632602037  0.846541212466633  0.6153676204905949  1.0000
  H   H10       1.0  0.1453765121628336  0.15345973803459154  0.3846543004119739  1.0000
  H   H11       1.0  0.0107134140588769  0.5783627893483255  0.6660152353465705  1.0000
  H   H12       1.0  0.510716905982285  0.4216343988575772  0.3339866782315185  1.0000
  H   H13       1.0  0.842352634248442  0.3791064474207388  0.7873749352932932  1.0000
  H   H14       1.0  0.34234886066288783  0.6208876209424901  0.2126292684988584  1.0000
  H   H15       1.0  0.8711567373922193  0.30485244958702407  0.8600588118051181  1.0000
  H   H16       1.0  0.37122492528123974  0.6951368408430273  0.1399448990241652  1.0000
  H   H17       1.0  0.213366165808381  0.18698071634088362  0.7621994762153791  1.0000
  H   H18       1.0  0.7133792895866051  0.813009030955378  0.23779854495927577  1.0000
  H   H19       1.0  0.1846646730108503  0.33096747496087897  0.7388186575745979  1.0000
  H   H20       1.0  0.6846797604333118  0.6690216587100367  0.2611789188344602  1.0000
  H   H21       1.0  0.18288619154315455  0.25356546082669956  0.6821937238970579  1.0000
  H   H22       1.0  0.6828786082077369  0.7464249804287705  0.3178052765191454  1.0000
  H   H23       1.0  0.664313208084657  0.15033536603758793  0.7437778049542418  1.0000
  H   H24       1.0  0.1643132664349167  0.8496613940409928  0.25621873321410504  1.0000
  H   H25       1.0  0.6292317830539956  0.23107017625399354  0.6750817182948198  1.0000
  H   H26       1.0  0.1292320811729155  0.7689331090289713  0.3249219166551143  1.0000
  H   H27       1.0  0.6218684013989134  0.33661961659289125  0.7568360784187437  1.0000
  H   H28       1.0  0.12187985473457269  0.6633922117362945  0.24316862030697456  1.0000
  H   H29       1.0  0.8572663546106938  0.19824465262717444  0.6401747634065204  1.0000
  H   H30       1.0  0.3572723867310116  0.8017544240267115  0.359825483485352  1.0000
  H   H31       1.0  0.18580893848661617  0.2632675227596337  0.8193029250601499  1.0000
  H   H32       1.0  0.6858492697381777  0.7367233457888105  0.18069556222444313  1.0000
  H   H33       1.0  0.9392707729538329  0.06538963352624451  0.7386084413778918  1.0000
  H   H34       1.0  0.43926086617846477  0.9346055719405512  0.26138206498082894  1.0000
  H   H35       1.0  0.5000517275053794  0.22093928670697943  0.808116026986859  1.0000
  H   H36       1.0  7.992313197749997e-05  0.7790503056038175  0.19186749538671682  1.0000
  H   H37       1.0  0.11345723766257265  0.5879980396745664  0.7750623899835034  1.0000
  H   H38       1.0  0.6134661437489868  0.41200259863020966  0.22493825927338662  1.0000
  H   H39       1.0  0.7419857530807616  0.8572300794054327  0.72489605055533  1.0000
  H   H40       1.0  0.24200099829135976  0.142768959765057  0.27511542089401086  1.0000
  H   H41       1.0  0.3623281786947457  0.5479459178938911  0.5744672096831922  1.0000
  H   H42       1.0  0.8623807218434932  0.45201963794909983  0.4255463620791107  1.0000
  H   H43       1.0  0.40901269822564496  0.9518232888247269  0.9258618752004821  1.0000
  H   H44       1.0  0.908989097167371  0.04818476425868572  0.0741444715453454  1.0000
  C   C1        1.0  0.35318473366564257  0.5727868851655274  0.4193407124508042  1.0000
  C   C2        1.0  0.8532662456086441  0.4272095199334844  0.5806507827831384  1.0000
  C   C3        1.0  0.3478909831048895  0.3873866805603612  0.43136759674340663  1.0000
  C   C4        1.0  0.8478688636014269  0.6126222642654967  0.5686240057510263  1.0000
  C   C5        1.0  0.07339745747510308  0.7014265313818627  0.8645094832423298  1.0000
  C   C6        1.0  0.5733543724651042  0.2985815384638428  0.13548350006516333  1.0000
  C   C7        1.0  0.9422495266343347  0.8197978521693017  0.8873797010181123  1.0000
  C   C8        1.0  0.4422292596768783  0.18021394558155632  0.1126186660070019  1.0000
  C   C9        1.0  0.7386867784657268  0.7374135395690828  0.5918378888949932  1.0000
  C   C10       1.0  0.2387930403252554  0.2625872342476683  0.4081829200318695  1.0000
  C   C11       1.0  0.7116829799472696  0.801490695669763  0.6324369555502686  1.0000
  C   C12       1.0  0.2117634791582219  0.1985132937929137  0.3675787453123505  1.0000
  C   C13       1.0  0.7667467550039999  0.8072087489502665  0.6941397598841874  1.0000
  C   C14       1.0  0.26677418380947415  0.1927936105000398  0.305872690378088  1.0000
  C   C15       1.0  0.8540492746803208  0.7498750283121183  0.7175881109752568  1.0000
  C   C16       1.0  0.35405866515945655  0.2501277062090069  0.28241497920894437  1.0000
  C   C17       1.0  0.8914815686471441  0.685620537140501  0.6756505045673009  1.0000
  C   C18       1.0  0.3914837047530781  0.31438182898933326  0.3243533458367055  1.0000
  C   C19       1.0  0.9091501638336866  0.7542489414782737  0.7824476107601868  1.0000
  C   C20       1.0  0.4091516762771974  0.2457585977514256  0.21755316461302246  1.0000
  C   C21       1.0  0.0078739619272241  0.6957907903925147  0.8022783699029932  1.0000
  C   C22       1.0  0.5078510376998437  0.304217377583619  0.19771525454829236  1.0000
  C   C23       1.0  0.040728070315743985  0.6325004299484861  0.7587435959197465  1.0000
  C   C24       1.0  0.5407230620479524  0.3675016335787121  0.2412564260810585  1.0000
  C   C25       1.0  0.9837744402407009  0.6272576877701043  0.6981851632929122  1.0000
  C   C26       1.0  0.4837793121627171  0.3727398985820116  0.30181526781046136  1.0000
  C   C27       1.0  0.8707712814544448  0.8147026560284517  0.827234179876136  1.0000
  C   C28       1.0  0.3707833933626289  0.1853041200393478  0.17276816973154047  1.0000
  C   C29       1.0  0.04758332300808379  0.7631174518650711  0.9061534892039802  1.0000
  C   C30       1.0  0.547517588829116  0.23689730654135133  0.0938362267288682  1.0000
  C   C31       1.0  0.8295049034903383  0.6807417802815153  0.6128269222712676  1.0000
  C   C32       1.0  0.3295465311415882  0.31926267092521243  0.387179832056674  1.0000
  C   C33       1.0  0.7905714537403838  0.27799333113526364  0.8190413504195535  1.0000
  C   C34       1.0  0.29061474057498765  0.7219995887971893  0.1809567646317092  1.0000
  C   C35       1.0  0.12036630998587579  0.23406062185492257  0.7765536911236596  1.0000
  C   C36       1.0  0.6203889668950068  0.7659317376857545  0.22344451013519526  1.0000
  C   C37       1.0  0.1092933640679661  0.2799524174291221  0.724710135923303  1.0000
  C   C38       1.0  0.60930490641082  0.7200371914376832  0.27528732042407716  1.0000
  C   C39       1.0  0.8592747204483826  0.3798140874982323  0.6255896911519373  1.0000
  C   C40       1.0  0.3592884973283361  0.6201765685059898  0.37439612595306226  1.0000
  C   C41       1.0  0.9094909037312461  0.2097279334942073  0.7925668138262623  1.0000
  C   C42       1.0  0.40952596765730215  0.7902649968172425  0.2074311515285743  1.0000
  C   C43       1.0  0.7779623364884641  0.3272391444395382  0.7689762980440095  1.0000
  C   C44       1.0  0.27797833508707004  0.6727596377759184  0.23102250192096824  1.0000
  C   C45       1.0  0.8884125092097432  0.2935019695876875  0.7091614024946082  1.0000
  C   C46       1.0  0.3884190222173203  0.7064927624436808  0.2908350650417617  1.0000
  C   C47       1.0  0.7874396564459332  0.22179948208258787  0.6842816269846852  1.0000
  C   C48       1.0  0.2874470991297358  0.7781969229833621  0.3157184019919512  1.0000
  C   C49       1.0  0.8100056796120609  0.17075207781660134  0.7311999952022532  1.0000
  C   C50       1.0  0.3100101349327246  0.8292442679506353  0.2687968690243919  1.0000
  C   C51       1.0  0.873661002668669  0.3402471175611197  0.6634551337906843  1.0000
  C   C52       1.0  0.37366915301917186  0.6597442617814836  0.33654297001157124  1.0000
  C   C53       1.0  0.9176787219620902  0.16321213291376319  0.8387462785941581  1.0000
  C   C54       1.0  0.41772564626678127  0.8367825987425305  0.16125294304713836  1.0000
  C   C55       1.0  0.9223023289562133  0.1240902497444267  0.8771789687913201  1.0000
  C   C56       1.0  0.42235863097336324  0.875909851619717  0.12282667827009422  1.0000
  C   C57       1.0  0.4239519406440734  0.11203453707005197  0.0690590972019507  1.0000
  C   C58       1.0  0.9239781591782686  0.8879750394778302  0.9309469992189535  1.0000
  C   C59       1.0  0.42198675558279314  0.9245267967286497  0.07868284791306482  1.0000
  C   C60       1.0  0.9219367819037956  0.07547748056676801  0.9213228110607689  1.0000
  C   C61       1.0  0.9323732656881916  0.10523408304896978  0.7066956572562475  1.0000
  C   C62       1.0  0.4323712605434621  0.8947631345636043  0.2933000722499203  1.0000
  C   C63       1.0  0.5821527649687894  0.2633508781979544  0.8394767852184304  1.0000
  C   C64       1.0  0.0822151018017365  0.7366429040410339  0.1605151020204119  1.0000
  O   O1        1.0  0.5208841847583939  0.41199277581985433  0.4462531666699975  1.0000
  O   O2        1.0  0.0207879294736131  0.587958022239775  0.553807906461394  1.0000
  O   O3        1.0  0.181995512629463  0.5573064286457878  0.4385209308831081  1.0000
  O   O4        1.0  0.6820317130514865  0.44279795963733903  0.5615325289192726  1.0000
  O   O5        1.0  0.18317874994141894  0.4158707194438166  0.45060352421160843  1.0000
  O   O6        1.0  0.6830816515896031  0.5842067565057504  0.549299540242643  1.0000
  O   O7        1.0  0.022429476351547392  0.44934908278353464  0.5653069109123268  1.0000
  O   O8        1.0  0.5223505688730867  0.5505387679647172  0.4346204147894995  1.0000
  O   O9        1.0  0.3550803575993342  0.5123471492593694  0.537411939523615  1.0000
  O   O10       1.0  0.8550756471768252  0.4876543009083321  0.4625758192476823  1.0000
  O   O11       1.0  0.25059365922713533  0.9455572219128641  0.06444738679299891  1.0000
  O   O12       1.0  0.7505493588991924  0.0544640479702281  0.9355713944654767  1.0000
  O   O13       1.0  0.5887075879352962  0.0850827453993759  0.04788893714330561  1.0000
  O   O14       1.0  0.08874728601154658  0.9149153237122292  0.9521316143017275  1.0000
  O   O15       1.0  0.5914085369910325  0.941969655194413  0.05966076381460541  1.0000
  O   O16       1.0  0.0913724992285836  0.0580159238921709  0.9403318849754713  1.0000
  O   O17       1.0  0.7517921722791101  0.9150148182122564  0.9428398899759076  1.0000
  O   O18       1.0  0.25174970984865297  0.08500614534826671  0.05714917387880551  1.0000
  O   O19       1.0  0.4160366385639021  0.9881720710420441  0.9623938364586027  1.0000
  O   O20       1.0  0.9160388789173552  0.011837005957616501  0.0376123929917043  1.0000
  O   O21       1.0  0.019416228790291295  0.09521446557184989  0.6570153770947657  1.0000
  O   O22       1.0  0.5194166643944484  0.9047830643153106  0.34297432587683124  1.0000
  O   O23       1.0  0.4986687269555289  0.29643973716828503  0.8847818484995149  1.0000
  O   O24       1.0  0.9987625770826083  0.7035441735322011  0.11520392761919142  1.0000
