data_image0
_chemical_formula_structural       Ag2P6H68C60S4O4
_chemical_formula_sum              "Ag2 P6 H68 C60 S4 O4"
_cell_length_a       11.093277168452698
_cell_length_b       11.420600769168967
_cell_length_c       13.054597333781745
_cell_angle_alpha    101.15461973836656
_cell_angle_beta     91.38825858664235
_cell_angle_gamma    106.15709323341721

_space_group_name_H-M_alt    "P 1"
_space_group_IT_number       1

loop_
  _space_group_symop_operation_xyz
  'x, y, z'

loop_
  _atom_site_type_symbol
  _atom_site_label
  _atom_site_symmetry_multiplicity
  _atom_site_fract_x
  _atom_site_fract_y
  _atom_site_fract_z
  _atom_site_occupancy
  Ag  Ag1       1.0  0.3965091696801861  0.8767724004401952  0.23477293991331288  1.0000
  Ag  Ag2       1.0  0.6034943018198008  0.12321997339368097  0.7652188965159112  1.0000
  P   P1        1.0  0.11503984317198493  0.7481251246843498  0.15434562800690796  1.0000
  P   P2        1.0  0.8849522318755445  0.25187758564243257  0.8456522332114388  1.0000
  P   P3        1.0  0.4652439075204384  0.8157542383832347  0.3893289602160763  1.0000
  P   P4        1.0  0.5347529271723629  0.18424935248723526  0.6106660677913851  1.0000
  P   P5        1.0  0.536547493133355  0.048253999322199086  0.17334272629037878  1.0000
  P   P6        1.0  0.46346316627489864  0.9517505823048751  0.8266573199141121  1.0000
  H   H1        1.0  0.9978208731106405  0.5021011994578828  0.0761322594056537  1.0000
  H   H2        1.0  0.00218316830747507  0.4979023729943606  0.9238621371996629  1.0000
  H   H3        1.0  0.08431304426235185  0.4760104862325392  0.18157952493425714  1.0000
  H   H4        1.0  0.9156853360402338  0.523992206497894  0.8184176877998723  1.0000
  H   H5        1.0  0.8622755567010361  0.3431042065784808  0.1677019447520891  1.0000
  H   H6        1.0  0.13772202998462288  0.6568927510572138  0.8322851466776909  1.0000
  H   H7        1.0  0.8053255463021216  0.47420885274321006  0.1715259952266308  1.0000
  H   H8        1.0  0.19467357088304735  0.5257871712229232  0.8284609767536678  1.0000
  H   H9        1.0  0.8879933473435386  0.4593099699337131  0.2846399919638998  1.0000
  H   H10       1.0  0.11199829571205556  0.5406851522680327  0.7153482258636217  1.0000
  H   H11       1.0  0.09825720054446653  0.821124628712077  0.9540747326635073  1.0000
  H   H12       1.0  0.9017415514566237  0.1788762346744051  0.04592449410159109  1.0000
  H   H13       1.0  0.04549361009073031  0.9247045741629022  0.050699354178824804  1.0000
  H   H14       1.0  0.9544969042367485  0.07529899877440728  0.9492940181366973  1.0000
  H   H15       1.0  0.9058662266071805  0.8655632360300698  0.8819719189772924  1.0000
  H   H16       1.0  0.094130493865535  0.13443380532972776  0.118020531781454  1.0000
  H   H17       1.0  0.8194029879951045  0.8075360771987474  0.9837371561796572  1.0000
  H   H18       1.0  0.18058775862699863  0.1924590576680529  0.016251812624510403  1.0000
  H   H19       1.0  0.8730686283190536  0.7056562175178982  0.8870077330681311  1.0000
  H   H20       1.0  0.1269319654389491  0.29434174073698943  0.11298417157381381  1.0000
  H   H21       1.0  0.5192534554606637  0.661729722171934  0.5357697975213611  1.0000
  H   H22       1.0  0.4807441377394426  0.33827024554015134  0.4642315627241799  1.0000
  H   H23       1.0  0.3813839220552352  0.4824466137419279  0.5975961187162824  1.0000
  H   H24       1.0  0.6186040712661834  0.517551403392005  0.402398619011521  1.0000
  H   H25       1.0  0.15884436145535116  0.3906215533654062  0.5243880212442065  1.0000
  H   H26       1.0  0.8411432551307954  0.6093782812693076  0.47560393439392373  1.0000
  H   H27       1.0  0.07365124578146252  0.4795843572364473  0.38786874542471855  1.0000
  H   H28       1.0  0.9263461487559609  0.5204304085660496  0.6121273066414048  1.0000
  H   H29       1.0  0.21019715562479035  0.6621771223460087  0.3288224773680001  1.0000
  H   H30       1.0  0.7898083773287538  0.33783769527541807  0.6711775687303714  1.0000
  H   H31       1.0  0.6948254613380624  0.9322044632858634  0.5436899113963349  1.0000
  H   H32       1.0  0.3051672981430683  0.06779744446815528  0.45631626193635805  1.0000
  H   H33       1.0  0.9132895875197845  0.9276689862292216  0.5321102299775617  1.0000
  H   H34       1.0  0.0867037572851217  0.07232560497086378  0.467903982396912  1.0000
  H   H35       1.0  0.9750295858935445  0.798162533575656  0.37599977600505247  1.0000
  H   H36       1.0  0.024967810416931982  0.20183667975823738  0.6240129515076447  1.0000
  H   H37       1.0  0.8149974323598953  0.679513652145495  0.23019015213660052  1.0000
  H   H38       1.0  0.1850031930963496  0.32048737540164746  0.7698198616146996  1.0000
  H   H39       1.0  0.5936408607964765  0.6895133448937684  0.2377224124973694  1.0000
  H   H40       1.0  0.40636053665197375  0.3104903721422047  0.7622811495663626  1.0000
  H   H41       1.0  0.6799144675985217  0.261586882731727  0.3379560763076128  1.0000
  H   H42       1.0  0.3200920360099103  0.7384158262881114  0.6620428262826081  1.0000
  H   H43       1.0  0.8932780864925717  0.3164887932850959  0.4258801279686181  1.0000
  H   H44       1.0  0.10673033427647023  0.6835204636016669  0.57412138603447  1.0000
  H   H45       1.0  0.03647470736754599  0.18617502814556985  0.36921308686987686  1.0000
  H   H46       1.0  0.9635335603650147  0.8138305827183385  0.6307932061717806  1.0000
  H   H47       1.0  0.9584467433705725  0.9923949122456788  0.23229949707395997  1.0000
  H   H48       1.0  0.0415587762457506  0.007604317377619897  0.7677149202948215  1.0000
  H   H49       1.0  0.7424202602147288  0.9334735703360691  0.14669677740808854  1.0000
  H   H50       1.0  0.2575866016073078  0.0665209966926099  0.8533169231387491  1.0000
  H   H51       1.0  0.3461865921855464  0.1302009615913988  0.2911359484040901  1.0000
  H   H52       1.0  0.6538222494672821  0.8697850354481029  0.7088649341496306  1.0000
  H   H53       1.0  0.2783037894661717  0.3231993249212408  0.3156591081718716  1.0000
  H   H54       1.0  0.7217003766886093  0.6767829946752996  0.6843441638339058  1.0000
  H   H55       1.0  0.3780988015291769  0.49105540255353464  0.22214693286898068  1.0000
  H   H56       1.0  0.621898712855831  0.50892882319917  0.7778588138836326  1.0000
  H   H57       1.0  0.5514058045667268  0.4676951355639927  0.10805820572441147  1.0000
  H   H58       1.0  0.44859385394138934  0.5323057388437817  0.891941806181471  1.0000
  H   H59       1.0  0.6234545023048385  0.2794391188641612  0.08816335236744521  1.0000
  H   H60       1.0  0.3765499208853029  0.7205626479304782  0.9118345943862777  1.0000
  H   H61       1.0  0.36598212995045987  0.9248524224570642  0.5195588520064973  1.0000
  H   H62       1.0  0.6340150714040931  0.07514932722628488  0.4804374219732139  1.0000
  H   H63       1.0  0.5062275382387043  0.912626114726379  0.5760288523743924  1.0000
  H   H64       1.0  0.493764531772065  0.08737658375723359  0.42396824078523565  1.0000
  H   H65       1.0  0.6343928440795567  0.09230260272821059  0.012669360557758604  1.0000
  H   H66       1.0  0.36562503212752495  0.9077019841669836  0.9873315903620252  1.0000
  H   H67       1.0  0.5981760880360056  0.9328727273452059  0.01993625343592953  1.0000
  H   H68       1.0  0.4018458146405379  0.067127147117013  0.9800609596732527  1.0000
  C   C1        1.0  0.005882954824393509  0.5110780258938377  0.16145409930877017  1.0000
  C   C2        1.0  0.9941130575086136  0.48892275705607346  0.8385396997990782  1.0000
  C   C3        1.0  0.8834489452529866  0.4436299919845722  0.198838266196482  1.0000
  C   C4        1.0  0.11654629864688809  0.5563651150864715  0.8011492519006111  1.0000
  C   C5        1.0  0.019533012133713567  0.8298022595747483  0.001939871557397139  1.0000
  C   C6        1.0  0.9804632927873413  0.17019950277365573  0.9980571533989603  1.0000
  C   C7        1.0  0.89745729464164  0.8004269136990415  0.935009919724223  1.0000
  C   C8        1.0  0.10254033233809418  0.19957013868204135  0.0649833161753079  1.0000
  C   C9        1.0  0.37363063974515126  0.6741817523723623  0.4284682242563065  1.0000
  C   C10       1.0  0.6263680079616876  0.32582186054069234  0.5715283740327379  1.0000
  C   C11       1.0  0.42161996903920596  0.6222056688315617  0.5033916425313762  1.0000
  C   C12       1.0  0.5783753704114005  0.3777989386106881  0.49660888133661263  1.0000
  C   C13       1.0  0.34407350606846165  0.5210241997370416  0.5380196523947731  1.0000
  C   C14       1.0  0.6559208966545782  0.4789803256248816  0.4619754779801042  1.0000
  C   C15       1.0  0.21860912113199757  0.4697959807009581  0.4969384920720046  1.0000
  C   C16       1.0  0.781385162334196  0.5302019833071012  0.5030532929954389  1.0000
  C   C17       1.0  0.1711823352705935  0.519714788695147  0.4207230083116685  1.0000
  C   C18       1.0  0.8288135238782529  0.480291623582829  0.5792739824899868  1.0000
  C   C19       1.0  0.24815449661716824  0.621874023891408  0.3867361452970783  1.0000
  C   C20       1.0  0.7518437053174623  0.37813423895121895  0.613260418837271  1.0000
  C   C21       1.0  0.6272106622110413  0.8085354617278921  0.3920680707097901  1.0000
  C   C22       1.0  0.3727859655186164  0.19146735107803886  0.6079367884473825  1.0000
  C   C23       1.0  0.718582319963808  0.8752579350226314  0.47454024484932944  1.0000
  C   C24       1.0  0.2814131439280985  0.12474397026574019  0.5254659797295815  1.0000
  C   C25       1.0  0.8431432556286182  0.8721841055921045  0.4685133158100783  1.0000
  C   C26       1.0  0.15685349654233252  0.12781600505994814  0.5314972440580163  1.0000
  C   C27       1.0  0.8776480222025852  0.8001034757893135  0.38160533226959353  1.0000
  C   C28       1.0  0.12234484660955759  0.1998956942813023  0.618404237597865  1.0000
  C   C29       1.0  0.7871233603124067  0.7332377744927568  0.2990177410566872  1.0000
  C   C30       1.0  0.21287165795497032  0.2667595053742674  0.7009900367122839  1.0000
  C   C31       1.0  0.6633667618440029  0.7385789627130276  0.3036644584312711  1.0000
  C   C32       1.0  0.33663166882617185  0.26142384844914085  0.6963404348900467  1.0000
  C   C33       1.0  0.696680375924963  0.09534926664149879  0.2347249468351862  1.0000
  C   C34       1.0  0.30332736707260466  0.9046545275435063  0.7652841112140863  1.0000
  C   C35       1.0  0.7401164667962093  0.2018786016603045  0.3147107471274353  1.0000
  C   C36       1.0  0.25989898751463153  0.7981269434126756  0.6852918422772092  1.0000
  C   C37       1.0  0.8614348450880057  0.23334821046979926  0.3636554309615931  1.0000
  C   C38       1.0  0.13857293672595716  0.7666526802273806  0.6363462708003808  1.0000
  C   C39       1.0  0.9408918670441649  0.1599064029129096  0.3324193846741892  1.0000
  C   C40       1.0  0.05911620735784586  0.8400954671827631  0.667585542936294  1.0000
  C   C41       1.0  0.8973793114244087  0.051829960737137505  0.2542610717709479  1.0000
  C   C42       1.0  0.1026294222274017  0.9481710475698859  0.7457483276602871  1.0000
  C   C43       1.0  0.7757183055761062  0.0191987892215977  0.20625331469165786  1.0000
  C   C44       1.0  0.22427978880055816  0.9807966588358281  0.7937565283544927  1.0000
  C   C45       1.0  0.4904736198930095  0.19211458972416304  0.1897285311591261  1.0000
  C   C46       1.0  0.5095365737436809  0.8078853191088766  0.8102699960005566  1.0000
  C   C47       1.0  0.39302733044474536  0.20575795565819988  0.2531666216272512  1.0000
  C   C48       1.0  0.6069787327236043  0.7942308644325565  0.7468361895565181  1.0000
  C   C49       1.0  0.35372465544867276  0.3133762938209941  0.265690262032237  1.0000
  C   C50       1.0  0.6462788867136168  0.6866069704663929  0.7343139145638133  1.0000
  C   C51       1.0  0.41018923233671956  0.40786936123276246  0.2135055348299773  1.0000
  C   C52       1.0  0.5898094307757729  0.592115736507992  0.7864965423247482  1.0000
  C   C53       1.0  0.5069588882801738  0.394608290014574  0.1495370114922423  1.0000
  C   C54       1.0  0.4930407853382163  0.6053926199227249  0.8504653045898038  1.0000
  C   C55       1.0  0.5475228098066937  0.28792069326259906  0.1380651167937543  1.0000
  C   C56       1.0  0.4524800979942256  0.7120820427311186  0.8619352535856137  1.0000
  C   C57       1.0  0.46547842267686695  0.9344200273272848  0.5068240766640174  1.0000
  C   C58       1.0  0.5345154301273852  0.0655826221398712  0.4931699784248806  1.0000
  C   C59       1.0  0.5619065261435949  0.014416176742379595  0.033156508733782196  1.0000
  C   C60       1.0  0.43811348440843983  0.9855864844197053  0.9668403459113647  1.0000
  S   S1        1.0  0.2556597834488484  0.6989608997591501  0.0819718548806918  1.0000
  S   S2        1.0  0.7443320040473934  0.30104084301231626  0.9180235485478646  1.0000
  S   S3        1.0  0.16461229058044308  0.908425528550438  0.2584013396879996  1.0000
  S   S4        1.0  0.8353877295526644  0.09157349282703818  0.7415991501314138  1.0000
  O   O1        1.0  0.03802342097170445  0.6424198396374052  0.21340451156979162  1.0000
  O   O2        1.0  0.9619687180760151  0.3575800264174163  0.7865898336548512  1.0000
  O   O3        1.0  0.001832286132810114  0.7418466220459405  0.07081054623772333  1.0000
  O   O4        1.0  0.9981617902225466  0.25815983924849206  0.9291894826346621  1.0000
