data_image0
_chemical_formula_structural       Zn2H44C56N2O12
_chemical_formula_sum              "Zn2 H44 C56 N2 O12"
_cell_length_a       9.465861575728992
_cell_length_b       10.982079383544326
_cell_length_c       12.227
_cell_angle_alpha    110.09376095527858
_cell_angle_beta     96.67264832842085
_cell_angle_gamma    96.40012099682902

_space_group_name_H-M_alt    "P 1"
_space_group_IT_number       1

loop_
  _space_group_symop_operation_xyz
  'x, y, z'

loop_
  _atom_site_type_symbol
  _atom_site_label
  _atom_site_symmetry_multiplicity
  _atom_site_fract_x
  _atom_site_fract_y
  _atom_site_fract_z
  _atom_site_occupancy
  Zn  Zn1       1.0  0.9138612196119881  0.9739045287839403  0.581699869861865  1.0000
  Zn  Zn2       1.0  0.0861345936990006  0.026097414446113  0.4183016617333735  1.0000
  H   H1        1.0  0.40317548792325664  0.8026514852018424  0.4573997799723344  1.0000
  H   H2        1.0  0.5968263572832556  0.19734849278746217  0.5425984163553609  1.0000
  H   H3        1.0  0.6042614720812693  0.6994861724002632  0.5135635592308461  1.0000
  H   H4        1.0  0.39573772100914795  0.3005108577279216  0.48643267101592613  1.0000
  H   H5        1.0  0.372127110477642  0.6103919833182658  0.7685725586163203  1.0000
  H   H6        1.0  0.6278754345298836  0.3896119251525221  0.23142609565855574  1.0000
  H   H7        1.0  0.1709862800962654  0.7162123363635828  0.7103597955553698  1.0000
  H   H8        1.0  0.8290175034941855  0.283792554727583  0.2896392733527479  1.0000
  H   H9        1.0  0.7709923033882972  0.6904716131123152  0.6273114696958829  1.0000
  H   H10       1.0  0.2290083032352968  0.3095273822566114  0.3726863119985638  1.0000
  H   H11       1.0  0.7273310673106722  0.5161203674989494  0.5548165054249168  1.0000
  H   H12       1.0  0.2726684756802413  0.4838786278699843  0.4451811805886124  1.0000
  H   H13       1.0  0.9231986946268337  0.4129540720769995  0.6053956454987741  1.0000
  H   H14       1.0  0.0768028006791823  0.5870439406715562  0.3946010950621642  1.0000
  H   H15       1.0  0.1176156231314494  0.397389365392776  0.7525276586563123  1.0000
  H   H16       1.0  0.8823849834921377  0.6026096299761576  0.247470940900243  1.0000
  H   H17       1.0  0.01717293272977119  0.7369220433128731  0.016944219534700284  1.0000
  H   H18       1.0  0.9828232444128774  0.2630759694356897  0.9830536783458401  1.0000
  H   H19       1.0  0.8190262425869649  0.7498425185774451  0.8700690978798918  1.0000
  H   H20       1.0  0.18097064828785395  0.2501535289303689  0.1299282577769318  1.0000
  H   H21       1.0  0.5584303888123046  0.677745696681292  0.33513909487373184  1.0000
  H   H22       1.0  0.4415592315840584  0.3222513334468928  0.6648603635552776  1.0000
  H   H23       1.0  0.3494779420348381  0.5801567544878594  0.1764126988374812  1.0000
  H   H24       1.0  0.650519137721389  0.41983437991810035  0.8235798862902116  1.0000
  H   H25       1.0  0.5825847303478469  0.7105504777831158  0.9425537512397215  1.0000
  H   H26       1.0  0.41742349665470607  0.2894495002061817  0.05744992634615189  1.0000
  H   H27       1.0  0.7940013966567321  0.8100319468120177  0.10715328491921378  1.0000
  H   H28       1.0  0.2059965439195963  0.1899699964180286  0.8928549809347361  1.0000
  H   H29       1.0  0.1817502167198981  0.6190695038187997  0.07335004549694452  1.0000
  H   H30       1.0  0.8182532169700424  0.3809334220316174  0.9266475676444161  1.0000
  H   H31       1.0  0.2013032951009563  0.45831182842447044  0.9798472860419312  1.0000
  H   H32       1.0  0.7986965977904675  0.5416891321852049  0.02015267360045672  1.0000
  H   H33       1.0  0.9736632186989453  0.9578661990806551  0.8170809168550336  1.0000
  H   H34       1.0  0.026338262675906794  0.0421377093901327  0.1829184596010265  1.0000
  H   H35       1.0  0.8525263405012993  0.9876956056976453  0.9944945941237222  1.0000
  H   H36       1.0  0.14747763197055974  0.0123043722916591  0.0055054292900252  1.0000
  H   H37       1.0  0.4762731671470847  0.0472286655347673  0.7946058646572567  1.0000
  H   H38       1.0  0.5237292168413461  0.9527683645934246  0.20539719552915162  1.0000
  H   H39       1.0  0.6137305031676162  0.0187916319841648  0.62904172338677  1.0000
  H   H40       1.0  0.38626619882578694  0.9812093286255106  0.37095794921285125  1.0000
  H   H41       1.0  0.5782864975984765  0.1425212239200491  0.06075626987934871  1.0000
  H   H42       1.0  0.4217169500226277  0.8574758062081357  0.939246885987977  1.0000
  H   H43       1.0  0.6422047528116651  0.0050978344872306  0.0785176782446015  1.0000
  H   H44       1.0  0.3577985198591875  0.9948982130205833  0.9214827050840741  1.0000
  C   C1        1.0  0.160830692740312  0.8404587866148673  0.5504406502170626  1.0000
  C   C2        1.0  0.8391683253998536  0.1595372608929537  0.44956262183636403  1.0000
  C   C3        1.0  0.2753029968566025  0.7688542575248221  0.5813522477983427  1.0000
  C   C4        1.0  0.7247036277313585  0.231148668325595  0.4186448345236898  1.0000
  C   C5        1.0  0.3972808011702327  0.7608036488212946  0.5259697961396483  1.0000
  C   C6        1.0  0.6027238850337966  0.2391943639272682  0.4740280493261651  1.0000
  C   C7        1.0  0.5102735133282224  0.7019112794770734  0.5573169262507776  1.0000
  C   C8        1.0  0.4897293955109703  0.298088698512224  0.4426805478957264  1.0000
  C   C9        1.0  0.502414934843344  0.6504907554375805  0.6471744538518251  1.0000
  C   C10       1.0  0.4975849580480798  0.3495102051720949  0.3528255057905625  1.0000
  C   C11       1.0  0.3783863420339984  0.6534091379408764  0.7007821917242156  1.0000
  C   C12       1.0  0.6216151393408538  0.3465947705299115  0.2992163668697359  1.0000
  C   C13       1.0  0.266636542810879  0.7125019618408786  0.6682011850454546  1.0000
  C   C14       1.0  0.7333656383649867  0.2875058771113999  0.33179946721989506  1.0000
  C   C15       1.0  0.7426439542044181  0.5971678783589027  0.6407568744356383  1.0000
  C   C16       1.0  0.257355413836251  0.402830134389653  0.3592413104876684  1.0000
  C   C17       1.0  0.8591786193869738  0.5834151236396892  0.7279841415520423  1.0000
  C   C18       1.0  0.1408205737034436  0.41658190648850274  0.2720129065568386  1.0000
  C   C19       1.0  0.9438121739403513  0.48433259848160765  0.6954849709401572  1.0000
  C   C20       1.0  0.0561871941003105  0.5156654142669552  0.304511578258932  1.0000
  C   C21       1.0  0.053398252244562606  0.4757946100738266  0.7781282375059535  1.0000
  C   C22       1.0  0.9466014656966096  0.5242053679154779  0.2218697674598928  1.0000
  C   C23       1.0  0.08093626849196771  0.5666319676948248  0.8940541531826227  1.0000
  C   C24       1.0  0.919061860965769  0.43336506243336703  0.10594361710743529  1.0000
  C   C25       1.0  0.9964148564678865  0.6661782896682453  0.9263492049975426  1.0000
  C   C26       1.0  0.0035834479401089057  0.3338197230803175  0.0736480663827379  1.0000
  C   C27       1.0  0.8861507425492051  0.6737444665286318  0.8444139295396627  1.0000
  C   C28       1.0  0.11384614832560663  0.3262515809791893  0.15558260825504533  1.0000
  C   C29       1.0  0.807413314002801  0.8260692938949248  0.33375672737533085  1.0000
  C   C30       1.0  0.1925697078537993  0.1739444407795787  0.6662603779085999  1.0000
  C   C31       1.0  0.6872857987745318  0.7556792835840298  0.23339620367534047  1.0000
  C   C32       1.0  0.3127080622213612  0.2443236422663873  0.7666128162693512  1.0000
  C   C33       1.0  0.5625212348705801  0.6876750755350898  0.25004486275230425  1.0000
  C   C34       1.0  0.437469099257946  0.3123199893523605  0.7499548713150901  1.0000
  C   C35       1.0  0.44391395901711667  0.6334344310294497  0.16038714973830548  1.0000
  C   C36       1.0  0.5560845342722873  0.3665586686172517  0.8396061689749603  1.0000
  C   C37       1.0  0.4490877296325523  0.6484783489167967  0.05138174870490531  1.0000
  C   C38       1.0  0.5509166066709666  0.3515176985910244  0.9486146409941512  1.0000
  C   C39       1.0  0.5777580906244282  0.7072714736034911  0.030164741126611667  1.0000
  C   C40       1.0  0.4222480091127778  0.2927285043858063  0.9698379272353179  1.0000
  C   C41       1.0  0.694630990125745  0.7611141568586817  0.12094299555444372  1.0000
  C   C42       1.0  0.3053689027656787  0.23888680375099366  0.87906759629535  1.0000
  C   C43       1.0  0.19795574289888412  0.5595688924646325  0.9842039062416745  1.0000
  C   C44       1.0  0.8020459273573837  0.440430102904294  0.015793153271580755  1.0000
  C   C45       1.0  0.8637431834586594  0.9790141547156281  0.8174759075503035  1.0000
  C   C46       1.0  0.1362602502312811  0.0209887711347889  0.18252497703949902  1.0000
  C   C47       1.0  0.79512240760414  0.9948363079371845  0.9147426556134377  1.0000
  C   C48       1.0  0.20487767416869224  0.0051597395706366  0.08525825853458  1.0000
  C   C49       1.0  0.6525592902523982  0.0189459033824875  0.9101850851167441  1.0000
  C   C50       1.0  0.34743972788776745  0.9810501441253336  0.08981491548824036  1.0000
  C   C51       1.0  0.5863203513804721  0.0276371805682203  0.8050493769655773  1.0000
  C   C52       1.0  0.41368060514361826  0.972363780041455  0.19495231408195213  1.0000
  C   C53       1.0  0.6619755369148024  0.0116332425779362  0.7115277245803213  1.0000
  C   C54       1.0  0.3380263082917097  0.9883667354113613  0.2884704717473668  1.0000
  C   C55       1.0  0.577839791114144  0.0366566529580226  0.015465052693265603  1.0000
  C   C56       1.0  0.4221627678245383  0.9633413597905403  0.9845366907212495  1.0000
  N   N1        1.0  0.7982854599349807  0.9868898569930309  0.7168631499023662  1.0000
  N   N2        1.0  0.2017154965891166  0.0131111036166445  0.28313690542094616  1.0000
  O   O1        1.0  0.050444329394231616  0.8452952440832888  0.601924559735842  1.0000
  O   O2        1.0  0.9495674244756815  0.1547125948689896  0.39807204648516153  1.0000
  O   O3        1.0  0.6102993365199724  0.597615953248301  0.6894862927737508  1.0000
  O   O4        1.0  0.3896991428382677  0.40238304212063275  0.3105129332830643  1.0000
  O   O5        1.0  0.1834989731357197  0.8940400928512416  0.4751575712256796  1.0000
  O   O6        1.0  0.8164996951039356  0.1059539894158306  0.5248278878188231  1.0000
  O   O7        1.0  0.7880753977306159  0.8295998488896501  0.4365105428889962  1.0000
  O   O8        1.0  0.21191227035065202  0.1703981638589056  0.5634988574757926  1.0000
  O   O9        1.0  0.9196596174341495  0.8801998849189588  0.3095237338412958  1.0000
  O   O10       1.0  0.08033173853357312  0.1198128671351739  0.690493000075584  1.0000
  O   O11       1.0  0.3349388279329304  0.6113510208008321  0.9619302911170565  1.0000
  O   O12       1.0  0.6650637310057519  0.3886469919477307  0.0380632736763644  1.0000
