data_image0
_chemical_formula_structural       Cu2H16C26S2N6O2
_chemical_formula_sum              "Cu2 H16 C26 S2 N6 O2"
_cell_length_a       5.7676012528045755
_cell_length_b       7.020758636028614
_cell_length_c       14.466179879568308
_cell_angle_alpha    89.99982508856382
_cell_angle_beta     96.6803690483324
_cell_angle_gamma    90.0007174241844

_space_group_name_H-M_alt    "P 1"
_space_group_IT_number       1

loop_
  _space_group_symop_operation_xyz
  'x, y, z'

loop_
  _atom_site_type_symbol
  _atom_site_label
  _atom_site_symmetry_multiplicity
  _atom_site_fract_x
  _atom_site_fract_y
  _atom_site_fract_z
  _atom_site_occupancy
  Cu  Cu1       1.0  0.1551858393320984  0.9146215298875617  0.9292109830241486  1.0000
  Cu  Cu2       1.0  0.8448355499436245  0.41462562590946567  0.07078770666119279  1.0000
  H   H1        1.0  0.6059083795425481  0.9407416672271864  0.1315522467158701  1.0000
  H   H2        1.0  0.394081742453281  0.4407063997369817  0.8684512365516638  1.0000
  H   H3        1.0  0.18637551551324794  0.9538528136521548  0.580286180364439  1.0000
  H   H4        1.0  0.8136215284224375  0.4538488264705761  0.4197134200272146  1.0000
  H   H5        1.0  0.32371584708461393  0.9954706233887336  0.7494196330241464  1.0000
  H   H6        1.0  0.6762865042304681  0.4954713089378374  0.2505807761232006  1.0000
  H   H7        1.0  0.5462055106739213  0.7201920042306255  0.6611117218185852  1.0000
  H   H8        1.0  0.4537895309980867  0.22019831381846444  0.3388918819462319  1.0000
  H   H9        1.0  0.9304522434690127  0.0042846514018463995  0.2579030070488173  1.0000
  H   H10       1.0  0.06954765867503448  0.5042577486580271  0.7420972457164936  1.0000
  H   H11       1.0  0.17290272879063198  0.7075560717059447  0.3279764636182421  1.0000
  H   H12       1.0  0.8270922167826952  0.20754780520543648  0.6720230225511798  1.0000
  H   H13       1.0  0.2357364700067706  0.796621206575189  0.16520754186043257  1.0000
  H   H14       1.0  0.7642586114819351  0.2966001737061532  0.8347923999015875  1.0000
  H   H15       1.0  0.7126246605735247  0.7649080496536129  0.8266386397503708  1.0000
  H   H16       1.0  0.2873774383736957  0.26491562353901793  0.17336584032652516  1.0000
  C   C1        1.0  0.5836967786615617  0.9050130848231247  0.2031041778306033  1.0000
  C   C2        1.0  0.4163054610172664  0.4049939847811714  0.7968971631734049  1.0000
  C   C3        1.0  0.0749245570063337  0.9124658798615074  0.6327140867500204  1.0000
  C   C4        1.0  0.925074188597506  0.41246265410298827  0.3672863910630468  1.0000
  C   C5        1.0  0.33150021115604733  0.5279461030457072  0.023789292043765897  1.0000
  C   C6        1.0  0.6685239657332502  0.027943032445179504  0.9762015808734716  1.0000
  C   C7        1.0  0.726766215208208  0.8892411451362959  0.3622698570311371  1.0000
  C   C8        1.0  0.2732272614810327  0.3892209003378753  0.6377304551038137  1.0000
  C   C9        1.0  0.15287899154033363  0.9340782005685637  0.7266660453010585  1.0000
  C   C10       1.0  0.8471233013415684  0.434079280005264  0.2733359104255797  1.0000
  C   C11       1.0  0.719393397384408  0.7810417761172059  0.678151562327372  1.0000
  C   C12       1.0  0.280601688858745  0.28104336784858935  0.3218498044474032  1.0000
  C   C13       1.0  0.766706981507788  0.9414681233589944  0.2730176549560781  1.0000
  C   C14       1.0  0.23328839148133076  0.44143705114575477  0.7269867455482455  1.0000
  C   C15       1.0  0.8501283045941292  0.8385425472753456  0.6070484120950823  1.0000
  C   C16       1.0  0.1498668478262104  0.33854298936419264  0.3929521102816338  1.0000
  C   C17       1.0  0.3363292046052635  0.7706163544131072  0.3128452391063377  1.0000
  C   C18       1.0  0.6636658541384222  0.27059925000633456  0.6871554634946975  1.0000
  C   C19       1.0  0.5179351113944859  0.804820909905139  0.3838515219919003  1.0000
  C   C20       1.0  0.48205652948959  0.30481180221879367  0.6161503220273019  1.0000
  C   C21       1.0  0.746023252764921  0.8306834770729099  0.511072338378483  1.0000
  C   C22       1.0  0.2539718757040106  0.3306786875320001  0.488927512998373  1.0000
  C   C23       1.0  0.37276876142749416  0.8215172321899329  0.22254792149529828  1.0000
  C   C24       1.0  0.6272228762449075  0.3214893661695299  0.7774524945430201  1.0000
  C   C25       1.0  0.8116788733141718  0.8061082775491429  0.7701194216387249  1.0000
  C   C26       1.0  0.1883180193370393  0.3061039279441005  0.2298833381284737  1.0000
  S   S1        1.0  0.06796873827736499  0.6038536803281929  0.9863473737056693  1.0000
  S   S2        1.0  0.9320503981829658  0.1038552306182936  0.01364791350976448  1.0000
  N   N1        1.0  0.0241639647581167  0.8841777683164693  0.795197479674961  1.0000
  N   N2        1.0  0.9758365005802431  0.38418138041789973  0.20480384080166658  1.0000
  N   N3        1.0  0.5374445045490502  0.7694630442850396  0.4791482515417798  1.0000
  N   N4        1.0  0.462548820093481  0.2694522389076042  0.5208530701954359  1.0000
  N   N5        1.0  0.523063606109865  0.4746773249239738  0.04868148389195429  1.0000
  N   N6        1.0  0.4769507785861933  0.9746793579586209  0.9513112085410852  1.0000
  O   O1        1.0  0.8742404353138509  0.9055199554711636  0.4439730371623226  1.0000
  O   O2        1.0  0.12575482256621479  0.4055097955703887  0.556027999400527  1.0000
