data_image0
_chemical_formula_structural       Ag8H24C24N16
_chemical_formula_sum              "Ag8 H24 C24 N16"
_cell_length_a       5.391440794150561
_cell_length_b       6.66547260096733
_cell_length_c       22.48373310901852
_cell_angle_alpha    89.99780245850941
_cell_angle_beta     89.99788757467351
_cell_angle_gamma    89.99839713548538

_space_group_name_H-M_alt    "P 1"
_space_group_IT_number       1

loop_
  _space_group_symop_operation_xyz
  'x, y, z'

loop_
  _atom_site_type_symbol
  _atom_site_label
  _atom_site_symmetry_multiplicity
  _atom_site_fract_x
  _atom_site_fract_y
  _atom_site_fract_z
  _atom_site_occupancy
  Ag  Ag1       1.0  0.6329330651216908  0.4316946934783559  0.38042881573261417  1.0000
  Ag  Ag2       1.0  0.36706303276574903  0.9316927477595204  0.11957540409095913  1.0000
  Ag  Ag3       1.0  0.13292169415850452  0.068314236160731  0.6195643582019842  1.0000
  Ag  Ag4       1.0  0.8670851420801713  0.5682990893999147  0.8804330682154459  1.0000
  Ag  Ag5       1.0  0.417896672324531  0.3893166326058831  0.11897420972017163  1.0000
  Ag  Ag6       1.0  0.582110331185504  0.8893071266329498  0.381027810188357  1.0000
  Ag  Ag7       1.0  0.9179022102966529  0.1106985792685222  0.8810256018259324  1.0000
  Ag  Ag8       1.0  0.0820733174344426  0.610693431271713  0.6189726902064053  1.0000
  H   H1        1.0  0.8688443234932566  0.3429745673836848  0.5063772072659063  1.0000
  H   H2        1.0  0.131170486599359  0.8429726487173212  0.9936300796407096  1.0000
  H   H3        1.0  0.3688397851987375  0.1570296275616556  0.4936132081432946  1.0000
  H   H4        1.0  0.6311613230676515  0.6570194226723344  0.0063740349085677  1.0000
  H   H5        1.0  0.19273484713789907  0.6387167144501191  0.47036154431165766  1.0000
  H   H6        1.0  0.8072502717834948  0.13872127783906762  0.029636130872440002  1.0000
  H   H7        1.0  0.6927291694133686  0.8612846237646892  0.5296336318787171  1.0000
  H   H8        1.0  0.3072942104952006  0.3612826518200691  0.970365446705273  1.0000
  H   H9        1.0  0.9777370651107731  0.20257072040008953  0.16934855600941753  1.0000
  H   H10       1.0  0.0222752722162411  0.7025506404591938  0.330657308326451  1.0000
  H   H11       1.0  0.4777719351533136  0.2974132860051597  0.8306329908712655  1.0000
  H   H12       1.0  0.5222297907563132  0.7974376145690558  0.6693650149774087  1.0000
  H   H13       1.0  0.37512478200219596  0.48482113415798267  0.25493081095371656  1.0000
  H   H14       1.0  0.6248637065064742  0.9848213386090167  0.2450719318015189  1.0000
  H   H15       1.0  0.8751348133774499  0.0151964360368453  0.7450742318452087  1.0000
  H   H16       1.0  0.12486664805575033  0.5151873625748778  0.7549264506149528  1.0000
  H   H17       1.0  0.6136519109559729  0.4038824991609644  0.6123002381490111  1.0000
  H   H18       1.0  0.3863382966866027  0.9038940380109608  0.8877077094642518  1.0000
  H   H19       1.0  0.1136676942873862  0.09612981756357192  0.38769531224305365  1.0000
  H   H20       1.0  0.8863190647537424  0.596116916413429  0.11229749683111832  1.0000
  H   H21       1.0  0.067737935127397  0.21382684136489877  0.29013497682753814  1.0000
  H   H22       1.0  0.9322665495245558  0.7138180537750427  0.2098707629893398  1.0000
  H   H23       1.0  0.567736092836256  0.2861773964711318  0.7098449258537372  1.0000
  H   H24       1.0  0.4322530825858379  0.786175474624848  0.7901527596877146  1.0000
  C   C1        1.0  0.6907896942778394  0.41276530964502456  0.5145714506407515  1.0000
  C   C2        1.0  0.3092001720028108  0.9127609068914425  0.9854332854601253  1.0000
  C   C3        1.0  0.19078552359412984  0.08724545943788088  0.4854190410595508  1.0000
  C   C4        1.0  0.809225690036854  0.587224590420881  0.014572087154824904  1.0000
  C   C5        1.0  0.3427163549770924  0.5668087265691852  0.49449657474026765  1.0000
  C   C6        1.0  0.6572900799192922  0.0668030045918897  0.005503674750350701  1.0000
  C   C7        1.0  0.8427138600641798  0.9331971027153544  0.5054996370233411  1.0000
  C   C8        1.0  0.15730118762277104  0.43318743228450535  0.994496422486478  1.0000
  C   C9        1.0  0.8651228845149819  0.2644135642489688  0.2049085912259869  1.0000
  C   C10       1.0  0.13488150772002433  0.7643974507488736  0.29509747869730774  1.0000
  C   C11       1.0  0.3651364930992714  0.23557720287293196  0.7950805193704653  1.0000
  C   C12       1.0  0.6348564845854554  0.735590044745976  0.7049181704557199  1.0000
  C   C13       1.0  0.5521443935460653  0.41081454930387207  0.24820965997817274  1.0000
  C   C14       1.0  0.4478432345319873  0.9108039109324935  0.2517921222560561  1.0000
  C   C15       1.0  0.05215985729835641  0.08918849989582607  0.7517877120539397  1.0000
  C   C16       1.0  0.9478369013049318  0.5891908066401469  0.7482072596169118  1.0000
  C   C17       1.0  0.564413965955481  0.44386665854218416  0.5670919721804282  1.0000
  C   C18       1.0  0.43559325161044876  0.9438636997090342  0.9329053036207996  1.0000
  C   C19       1.0  0.064432889956592  0.0561496472962162  0.43289774153776517  1.0000
  C   C20       1.0  0.9355554083666748  0.5561312640932455  0.067093285893371  1.0000
  C   C21       1.0  0.9099590928968977  0.2700186020919872  0.26535430563799883  1.0000
  C   C22       1.0  0.0900358096103417  0.7700069216966412  0.23465081277717567  1.0000
  C   C23       1.0  0.4099683379989828  0.2299787666831818  0.7346326706631247  1.0000
  C   C24       1.0  0.5900192909238555  0.7299859745026608  0.7653660811315961  1.0000
  N   N1        1.0  0.5489951139178404  0.4899270911928113  0.4688420799752749  1.0000
  N   N2        1.0  0.4510080164182853  0.9899232097271239  0.031161051040960803  1.0000
  N   N3        1.0  0.048989861700810884  0.010074521387828403  0.5311517589688323  1.0000
  N   N4        1.0  0.9510266358323989  0.5100654427673703  0.9688418638219005  1.0000
  N   N5        1.0  0.345375247582858  0.5426924244618903  0.5540352979414821  1.0000
  N   N6        1.0  0.654625155054376  0.04269872649668831  0.9459659698765608  1.0000
  N   N7        1.0  0.8453726555641766  0.9573118512506583  0.44596000323419105  1.0000
  N   N8        1.0  0.1546317309429313  0.45729776474800593  0.054037706585432915  1.0000
  N   N9        1.0  0.7107596367160198  0.36336552118780224  0.2924288191438791  1.0000
  N   N10       1.0  0.2892390913881968  0.8633534410843993  0.20757882501128935  1.0000
  N   N11       1.0  0.2107659407594937  0.1366568490884674  0.7075624037721299  1.0000
  N   N12       1.0  0.7892401193857168  0.6366459589743414  0.7924347115522039  1.0000
  N   N13       1.0  0.6381585872824189  0.3542931305200483  0.19451303282090754  1.0000
  N   N14       1.0  0.36184605490154814  0.854274080789274  0.3054907087919645  1.0000
  N   N15       1.0  0.1381738906958958  0.1457021913510275  0.8054832130463866  1.0000
  N   N16       1.0  0.8618188370175942  0.6457178616869187  0.694516025976448  1.0000
