data_image0
_chemical_formula_structural       Cu4H64C78N8O20
_chemical_formula_sum              "Cu4 H64 C78 N8 O20"
_cell_length_a       12.821889069075745
_cell_length_b       13.697199175274838
_cell_length_c       18.80437252258795
_cell_angle_alpha    103.99598630613032
_cell_angle_beta     99.88834009117532
_cell_angle_gamma    113.63495734711208

_space_group_name_H-M_alt    "P 1"
_space_group_IT_number       1

loop_
  _space_group_symop_operation_xyz
  'x, y, z'

loop_
  _atom_site_type_symbol
  _atom_site_label
  _atom_site_symmetry_multiplicity
  _atom_site_fract_x
  _atom_site_fract_y
  _atom_site_fract_z
  _atom_site_occupancy
  Cu  Cu1       1.0  0.9471355883731858  0.8915759830058219  0.9687520348164826  1.0000
  Cu  Cu2       1.0  0.43601365973724154  0.5256815919545444  0.45427942204905497  1.0000
  Cu  Cu3       1.0  0.05286417392214561  0.10842213367772052  0.031247341036191808  1.0000
  Cu  Cu4       1.0  0.5639885838305502  0.4743216174343629  0.5457211657931823  1.0000
  H   H1        1.0  0.7754587098311844  0.7022009232039039  0.0057100360781915565  1.0000
  H   H2        1.0  0.7488954316948053  0.3861681289546936  0.5642630262476231  1.0000
  H   H3        1.0  0.7017079763642684  0.3398561415740388  0.8269182925486831  1.0000
  H   H4        1.0  0.8516655525917827  0.3969071315286143  0.8287824749514032  1.0000
  H   H5        1.0  0.988695089607283  0.7546680862621996  0.8348181008581579  1.0000
  H   H6        1.0  0.9893688921093685  0.6205369365292911  0.808203276326225  1.0000
  H   H7        1.0  0.8718285796036084  0.6364995338303883  0.7564245982414805  1.0000
  H   H8        1.0  0.5932778678087444  0.48219973518056486  0.9715479986186822  1.0000
  H   H9        1.0  0.6263279524912592  0.37421816674243763  0.9245228616369306  1.0000
  H   H10       1.0  0.7141024569502364  0.4662000600300758  0.019797191800179845  1.0000
  H   H11       1.0  0.4898397908871813  0.44852062845056656  0.6896581362845212  1.0000
  H   H12       1.0  0.5274944100500393  0.4044917154942168  0.7682852041220728  1.0000
  H   H13       1.0  0.6094959137331131  0.5468352841879919  0.774318300303442  1.0000
  H   H14       1.0  0.943342717904926  0.3859333364663867  0.6430732566876146  1.0000
  H   H15       1.0  0.9493976359881132  0.3823049061191026  0.7374544979896741  1.0000
  H   H16       1.0  0.854964365746369  0.25788689245213453  0.6568860903586043  1.0000
  H   H17       1.0  0.4338638918349884  0.8148558084398444  0.6147594938939562  1.0000
  H   H18       1.0  0.6982945083680576  0.7629261977270403  0.3995585239546243  1.0000
  H   H19       1.0  0.45899701717171826  0.9699223757269378  0.7304011382283379  1.0000
  H   H20       1.0  0.8728072527014844  0.9019584614213372  0.3741011528630196  1.0000
  H   H21       1.0  0.6841371778771757  0.8833365228074753  0.8732244460548702  1.0000
  H   H22       1.0  0.10778996515547573  0.8213598752799597  0.5134741556521761  1.0000
  H   H23       1.0  0.6577737231801989  0.7294285181509251  0.7583159407468473  1.0000
  H   H24       1.0  0.9313801442354618  0.682046690680089  0.5390707325738547  1.0000
  H   H25       1.0  0.20992123228825219  0.8330466360440668  0.8846585436634414  1.0000
  H   H26       1.0  0.161310957652816  0.1550935816703074  0.2738151434756021  1.0000
  H   H27       1.0  0.3794507688176907  0.8339561589135442  0.8362193057845604  1.0000
  H   H28       1.0  0.1814139042085685  0.1340348626442136  0.4035275384833171  1.0000
  H   H29       1.0  0.5869424773999654  0.1919961715569157  0.9630286422249413  1.0000
  H   H30       1.0  0.9819878851261803  0.7713445245246787  0.2950106798622016  1.0000
  H   H31       1.0  0.4144852880942338  0.1906178507047898  0.00995433885897508  1.0000
  H   H32       1.0  0.968807384791681  0.7926335188986469  0.16578235180507755  1.0000
  H   H33       1.0  0.22454099150726134  0.2977955216348107  0.9942868966851462  1.0000
  H   H34       1.0  0.2511007736144179  0.6138308500161074  0.43573505750275393  1.0000
  H   H35       1.0  0.29828610287769647  0.6601351851854246  0.1730792084701847  1.0000
  H   H36       1.0  0.1483301389470028  0.6030858991427763  0.17121498500270604  1.0000
  H   H37       1.0  0.01130890568109776  0.24532581786778704  0.16517829854454652  1.0000
  H   H38       1.0  0.010623461896031411  0.37944759972317843  0.19179278127170116  1.0000
  H   H39       1.0  0.12816743161291544  0.3634892396499936  0.2435731732567349  1.0000
  H   H40       1.0  0.40671916459130125  0.5178009413586934  0.028450489128225263  1.0000
  H   H41       1.0  0.37366430771587733  0.6257807998911814  0.07547585338828355  1.0000
  H   H42       1.0  0.28589015210474855  0.5337963535576334  0.9802016211392371  1.0000
  H   H43       1.0  0.5101548010012209  0.5514731801776307  0.3103451978850274  1.0000
  H   H44       1.0  0.47250570370982076  0.595502111698046  0.2317171399939397  1.0000
  H   H45       1.0  0.3905010820154826  0.4531602282355464  0.2256850790839238  1.0000
  H   H46       1.0  0.05665551324653244  0.6140681952005664  0.35692498799627265  1.0000
  H   H47       1.0  0.050599697017602675  0.6176915326093136  0.2625427072697875  1.0000
  H   H48       1.0  0.14503459601156257  0.742112967253412  0.34310979751851534  1.0000
  H   H49       1.0  0.5661443570805957  0.18514819723677078  0.3852461506753287  1.0000
  H   H50       1.0  0.30170300227496216  0.2370787294265853  0.6004402698745892  1.0000
  H   H51       1.0  0.5410052062000118  0.030077386611459596  0.2696030649367743  1.0000
  H   H52       1.0  0.1271891048156135  0.09804903181488808  0.625896394081721  1.0000
  H   H53       1.0  0.3158766448927111  0.11667091618345178  0.12677924985722913  1.0000
  H   H54       1.0  0.8922035813133818  0.1786450589166435  0.48652367542033664  1.0000
  H   H55       1.0  0.3422433178259823  0.2705823351239046  0.24168714169189806  1.0000
  H   H56       1.0  0.06861496890473258  0.3179565262181399  0.4609285473813857  1.0000
  H   H57       1.0  0.7900833631568813  0.166954862389936  0.11534304800025545  1.0000
  H   H58       1.0  0.8386935514059956  0.8449062707590899  0.7261818797233703  1.0000
  H   H59       1.0  0.6205538456995114  0.16604532014029869  0.16378387991067464  1.0000
  H   H60       1.0  0.8185873866139487  0.8659615755012736  0.5964700981890019  1.0000
  H   H61       1.0  0.4130577339682373  0.808004491595895  0.036971253339935034  1.0000
  H   H62       1.0  0.018004003420358534  0.22865528454970263  0.7049886822225488  1.0000
  H   H63       1.0  0.5855145553540523  0.8093853848740905  0.9900438647601605  1.0000
  H   H64       1.0  0.03118443269993777  0.20736289480564804  0.8342163748517779  1.0000
  C   C1        1.0  0.8642004494744311  0.6307153797074888  0.8686235080521955  1.0000
  C   C2        1.0  0.7946318022292829  0.5215111834605182  0.8716310713205859  1.0000
  C   C3        1.0  0.7473718559070264  0.5407918013979228  0.9320567911556525  1.0000
  C   C4        1.0  0.6474557352168517  0.4277686627973764  0.7002070793439403  1.0000
  C   C5        1.0  0.7369886080147124  0.40294441478872045  0.7346790794839536  1.0000
  C   C6        1.0  0.7913437114990671  0.38209141945233677  0.6786602207461743  1.0000
  C   C7        1.0  0.7717698670376693  0.40983040812150756  0.8168915481257815  1.0000
  C   C8        1.0  0.9325198158099823  0.6625765375299365  0.8141255171911156  1.0000
  C   C9        1.0  0.6664251701521026  0.46215948696440984  0.9637371416938338  1.0000
  C   C10       1.0  0.5635721129337624  0.45839013718978794  0.7347638556053796  1.0000
  C   C11       1.0  0.8896020434198135  0.3505132325351353  0.6787341655084449  1.0000
  C   C12       1.0  0.5427786929342345  0.7616471818214093  0.6797483555013529  1.0000
  C   C13       1.0  0.8039402324347195  0.7121219960903887  0.46917740492981624  1.0000
  C   C14       1.0  0.487551445794338  0.8301488444720916  0.6716949963969655  1.0000
  C   C15       1.0  0.7880710698899022  0.7751653946359552  0.4233360917334181  1.0000
  C   C16       1.0  0.5018552023180191  0.9163702783656191  0.7355706287839042  1.0000
  C   C17       1.0  0.8848281742765635  0.8525197147890039  0.40934648354043196  1.0000
  C   C18       1.0  0.5718560595108712  0.9337458509763792  0.8077254850752384  1.0000
  C   C19       1.0  0.9992410771371778  0.8667588333891416  0.4411196394485729  1.0000
  C   C20       1.0  0.6287810989059536  0.8678003568274943  0.8168109160895228  1.0000
  C   C21       1.0  0.017340830992665538  0.8070745712868116  0.48865625396888396  1.0000
  C   C22       1.0  0.6137978425214782  0.781761753960488  0.7524567564575904  1.0000
  C   C23       1.0  0.9194750000389929  0.7298699564029221  0.5025001562677859  1.0000
  C   C24       1.0  0.30053620917767887  0.011903873553855193  0.9491993837348435  1.0000
  C   C25       1.0  0.06419942911543314  0.9749206059469273  0.21182867414898957  1.0000
  C   C26       1.0  0.2921995474222426  0.91170303872336  0.9008928272411796  1.0000
  C   C27       1.0  0.1242123695765684  0.07117591403805787  0.278749475488624  1.0000
  C   C28       1.0  0.3865665363041585  0.9120966236055708  0.8737880678791756  1.0000
  C   C29       1.0  0.135376487548541  0.060100109205407586  0.3510388213789995  1.0000
  C   C30       1.0  0.4917909196103807  0.014198633343028193  0.8956492362612424  1.0000
  C   C31       1.0  0.08383578519546805  0.9519421616935232  0.3560684513162826  1.0000
  C   C32       1.0  0.5028557275714505  0.11453494847933848  0.9454417157499864  1.0000
  C   C33       1.0  0.022933689280008964  0.8549094823757811  0.28983159293735383  1.0000
  C   C34       1.0  0.4073883101271605  0.11303741866701236  0.971573565226493  1.0000
  C   C35       1.0  0.014439408036764578  0.8668478583920701  0.21815820115005383  1.0000
  C   C36       1.0  0.5261965696112867  0.6675199939220348  0.6117120842179845  1.0000
  C   C37       1.0  0.6972551464801668  0.6293962118631741  0.4825376631396524  1.0000
  C   C38       1.0  0.04888568772394538  0.9856143848359548  0.13410787532734486  1.0000
  C   C39       1.0  0.19568170102121482  0.010232052483061698  0.9740628009500231  1.0000
  C   C40       1.0  0.13579966166874147  0.36928018393013656  0.13137596571468177  1.0000
  C   C41       1.0  0.20536348847880953  0.4784809855065361  0.12836724932296306  1.0000
  C   C42       1.0  0.25262345125645413  0.45920208463433454  0.0679402531703062  1.0000
  C   C43       1.0  0.35254164229036167  0.572227730710665  0.2997938453224549  1.0000
  C   C44       1.0  0.2630111542806191  0.5970537018948151  0.2653202963687137  1.0000
  C   C45       1.0  0.20865163119187702  0.6179041642649635  0.32133714129373203  1.0000
  C   C46       1.0  0.22822433785874793  0.5901659923129186  0.18310850006647428  1.0000
  C   C47       1.0  0.06747825041888682  0.33741649279170355  0.1858722016107137  1.0000
  C   C48       1.0  0.3335678460909364  0.5378377818675872  0.0362613419000013  1.0000
  C   C49       1.0  0.4364240912514673  0.5416053753503361  0.2652394374994245  1.0000
  C   C50       1.0  0.11039334489662168  0.6494857723924667  0.3212617065839752  1.0000
  C   C51       1.0  0.4572351133802641  0.23835854010430774  0.3202566167283365  1.0000
  C   C52       1.0  0.19605646757286613  0.2878829505599824  0.5308197085852842  1.0000
  C   C53       1.0  0.5124567612364216  0.16985346997953596  0.3283097991145142  1.0000
  C   C54       1.0  0.21192676043085604  0.22483527532666867  0.5766630136399017  1.0000
  C   C55       1.0  0.4981554123136079  0.08363546986665679  0.26443187294011494  1.0000
  C   C56       1.0  0.11516496500424007  0.14748436416331853  0.5906516768776626  1.0000
  C   C57       1.0  0.4281509779385857  0.06625731249263819  0.19227933986935852  1.0000
  C   C58       1.0  0.0007552512098171954  0.1332469557019849  0.5588781211260638  1.0000
  C   C59       1.0  0.371231560639977  0.13220792472077386  0.18319334059953724  1.0000
  C   C60       1.0  0.9826550939069492  0.1929320925453482  0.5113394969460502  1.0000
  C   C61       1.0  0.38621681369658484  0.21824737613884074  0.2475478747948756  1.0000
  C   C62       1.0  0.08052212622872182  0.27013582611157005  0.49749822193327026  1.0000
  C   C63       1.0  0.6994639083228548  0.9880916836237218  0.05080062137588467  1.0000
  C   C64       1.0  0.9357947731643038  0.025077530932868793  0.788168503694138  1.0000
  C   C65       1.0  0.7078069736400961  0.08829591289162411  0.09910850355802131  1.0000
  C   C66       1.0  0.8757897902215959  0.9288239129008742  0.7212494142380166  1.0000
  C   C67       1.0  0.6134412736365816  0.0879065591270276  0.1262152493164521  1.0000
  C   C68       1.0  0.864621271717297  0.9398971653871298  0.6489596485664182  1.0000
  C   C69       1.0  0.5082181792087751  0.9858087805071916  0.1043560673308122  1.0000
  C   C70       1.0  0.9161600738825939  0.048057633877824885  0.6439324048690268  1.0000
  C   C71       1.0  0.49714612788036294  0.8854673862851283  0.054560795469377844  1.0000
  C   C72       1.0  0.977059307890954  0.1450878058363685  0.7101652966249362  1.0000
  C   C73       1.0  0.592611128749752  0.8869632252222175  0.02842783808736012  1.0000
  C   C74       1.0  0.9855548361277898  0.13315196971271354  0.7818398257508721  1.0000
  C   C75       1.0  0.47381567003188246  0.3324874453020569  0.3882914391289703  1.0000
  C   C76       1.0  0.3027407327939569  0.3706070307586839  0.5174595777227751  1.0000
  C   C77       1.0  0.9511136610259712  0.0143828830633552  0.8658912985270605  1.0000
  C   C78       1.0  0.8043209041091399  0.9897685909398316  0.025938947494111558  1.0000
  N   N1        1.0  0.8598132917832897  0.7105117077324578  0.9237151902897196  1.0000
  N   N2        1.0  0.7893091179323402  0.6550967523657503  0.9612095953586606  1.0000
  N   N3        1.0  0.6473533673520819  0.42239325391474125  0.6280243287534832  1.0000
  N   N4        1.0  0.7343986436014376  0.3947672040250297  0.6162168619955893  1.0000
  N   N5        1.0  0.140185187990987  0.28948217137340754  0.0762827305103713  1.0000
  N   N6        1.0  0.21068936819929718  0.34489712028005926  0.03878885678527407  1.0000
  N   N7        1.0  0.35264565797942277  0.5776065411902636  0.37197687256210804  1.0000
  N   N8        1.0  0.26560039182809436  0.6052343146052336  0.38378253165856074  1.0000
  O   O1        1.0  0.45836283752166196  0.6504954286165371  0.5469255535074566  1.0000
  O   O2        1.0  0.597252503430518  0.6207375662800132  0.4483562414236035  1.0000
  O   O3        1.0  0.7133785410464525  0.5755898909432844  0.5264812631388126  1.0000
  O   O4        1.0  0.5815290144577148  0.6111531865890426  0.6245544487788095  1.0000
  O   O5        1.0  0.10614515660424917  0.9132629881691441  0.9564198100151771  1.0000
  O   O6        1.0  0.9926933365671288  0.8932267798360057  0.076468495552156  1.0000
  O   O7        1.0  0.2023072716615104  0.10574477544131608  0.010155278010230992  1.0000
  O   O8        1.0  0.0910669308435885  0.08578919584054738  0.1312877554671559  1.0000
  O   O9        1.0  0.5896403718160458  0.021425197438347296  0.8721205961223506  1.0000
  O   O10       1.0  0.09830805510842552  0.9425945504963307  0.4286529094835388  1.0000
  O   O11       1.0  0.5416478317094972  0.3495119979206151  0.453078859962048  1.0000
  O   O12       1.0  0.40274334031614245  0.3792639786568017  0.5516406817248766  1.0000
  O   O13       1.0  0.2866210208682318  0.42441756306627815  0.4735198169992999  1.0000
  O   O14       1.0  0.41847441402278923  0.3888474244169943  0.37545004266713994  1.0000
  O   O15       1.0  0.8938590316528235  0.08673765502057762  0.043582110994101704  1.0000
  O   O16       1.0  0.007302881456808981  0.10677218621468397  0.9235306508859228  1.0000
  O   O17       1.0  0.7976876993688435  0.8942516507167467  0.9898427310892118  1.0000
  O   O18       1.0  0.9089348026944463  0.914209795234271  0.868709869573529  1.0000
  O   O19       1.0  0.4103666656334041  0.9785779660306775  0.12788422882224643  1.0000
  O   O20       1.0  0.9016902598126747  0.05741036362059761  0.5713470333159378  1.0000
