data_image0
_chemical_formula_structural       Cu12H24C39N24
_chemical_formula_sum              "Cu12 H24 C39 N24"
_cell_length_a       14.918705340217452
_cell_length_b       14.916957393786413
_cell_length_c       14.916082639780564
_cell_angle_alpha    89.99822991123987
_cell_angle_beta     89.99639198706276
_cell_angle_gamma    89.98869383193649

_space_group_name_H-M_alt    "P 1"
_space_group_IT_number       1

loop_
  _space_group_symop_operation_xyz
  'x, y, z'

loop_
  _atom_site_type_symbol
  _atom_site_label
  _atom_site_symmetry_multiplicity
  _atom_site_fract_x
  _atom_site_fract_y
  _atom_site_fract_z
  _atom_site_occupancy
  Cu  Cu1       1.0  0.7486778368766663  0.7488763335790621  0.898932601763768  1.0000
  Cu  Cu2       1.0  0.8988450078326194  0.7486695075734032  0.7475186330243845  1.0000
  Cu  Cu3       1.0  0.7506720666986765  0.9021858587984113  0.7510579354408691  1.0000
  Cu  Cu4       1.0  0.7493888690126481  0.25108911189856536  0.1003295708824794  1.0000
  Cu  Cu5       1.0  0.9020138221870723  0.2500316309151458  0.24916094493107727  1.0000
  Cu  Cu6       1.0  0.7486696102387497  0.10185603557275869  0.2525540323665112  1.0000
  Cu  Cu7       1.0  0.25071270625011266  0.7489630146293108  0.10052985869015882  1.0000
  Cu  Cu8       1.0  0.09778535290913479  0.7505925500513155  0.2490025454301303  1.0000
  Cu  Cu9       1.0  0.2519946747737833  0.8980449100885791  0.2528490460791346  1.0000
  Cu  Cu10      1.0  0.2509412494658321  0.2507095031112101  0.8999472299248197  1.0000
  Cu  Cu11      1.0  0.1018629231817698  0.25194813250352144  0.7474445004091521  1.0000
  Cu  Cu12      1.0  0.24992067963492556  0.09836331721584197  0.7509875898715208  1.0000
  H   H1        1.0  0.8188424591200202  0.590974020380294  0.0228319938192598  1.0000
  H   H2        1.0  0.0243460346318258  0.5922217774464542  0.8180797071347498  1.0000
  H   H3        1.0  0.5942915159129782  0.027187201671388602  0.8227311208838517  1.0000
  H   H4        1.0  0.5904413421997887  0.817855816968482  0.023587860834219  1.0000
  H   H5        1.0  0.0211867451953296  0.817003383797193  0.5874755000075425  1.0000
  H   H6        1.0  0.8232907823456512  0.02887916383018309  0.5966518798679274  1.0000
  H   H7        1.0  0.8188728566697633  0.4088515042177859  0.975419347269316  1.0000
  H   H8        1.0  0.026350464691198294  0.40707337034707075  0.1781700184197135  1.0000
  H   H9        1.0  0.5919268114821676  0.9763541529095078  0.18248619438212188  1.0000
  H   H10       1.0  0.5917783562978939  0.18050331077658643  0.9763090773445599  1.0000
  H   H11       1.0  0.028939387180280097  0.17733172017582885  0.4032746364808801  1.0000
  H   H12       1.0  0.8168673560020635  0.9797264074613562  0.41298449704549267  1.0000
  H   H13       1.0  0.1814510856080531  0.5907254070689731  0.9760148067820468  1.0000
  H   H14       1.0  0.9728519594108532  0.594126780366416  0.1775884535890313  1.0000
  H   H15       1.0  0.4091603130464065  0.023048413058035098  0.1830328993943482  1.0000
  H   H16       1.0  0.40789219527354686  0.8197973169199455  0.9759975527418874  1.0000
  H   H17       1.0  0.9711707142004042  0.8236268926705035  0.4031304813095957  1.0000
  H   H18       1.0  0.18404728734654438  0.020328448804775693  0.41324689793142255  1.0000
  H   H19       1.0  0.18010382557329757  0.40829466107678053  0.0240295047451937  1.0000
  H   H20       1.0  0.9766455860936673  0.4088416023952205  0.8172709952693324  1.0000
  H   H21       1.0  0.4068971623585327  0.9737502391162135  0.8218802557988951  1.0000
  H   H22       1.0  0.4086844359073538  0.18097160552919425  0.0248779279430877  1.0000
  H   H23       1.0  0.9795450541135579  0.18380434263141146  0.5874063397359778  1.0000
  H   H24       1.0  0.1773590429670051  0.9718129882140119  0.5964085099423073  1.0000
  C   C1        1.0  0.8607803783897267  0.6017644418545062  0.9644016087483039  1.0000
  C   C2        1.0  0.942175927440168  0.5613330384417239  0.9409880044996868  1.0000
  C   C3        1.0  0.9657154027612336  0.602365560763097  0.8599175668029916  1.0000
  C   C4        1.0  0.6039236344426938  0.967788148066873  0.863604234251561  1.0000
  C   C5        1.0  0.5619646379514193  0.9428222401371398  0.9437555882140956  1.0000
  C   C6        1.0  0.602013440217604  0.8609557117535331  0.9661531232185255  1.0000
  C   C7        1.0  0.9644200259879341  0.8606258950981738  0.6003587889710147  1.0000
  C   C8        1.0  0.9425675366075835  0.943270988245075  0.561654145587454  1.0000
  C   C9        1.0  0.8632917620921247  0.9687016200466444  0.6048831475833722  1.0000
  C   C10       1.0  0.8614429409504682  0.39770362341099036  0.0333294702446452  1.0000
  C   C11       1.0  0.942838186361385  0.4383524661721338  0.0562460314052089  1.0000
  C   C12       1.0  0.9673739856006235  0.3969032539333809  0.1368084894153299  1.0000
  C   C13       1.0  0.6023432023768932  0.034631571594125894  0.1402229279969447  1.0000
  C   C14       1.0  0.5614781414375045  0.05776469801954678  0.058945191973677404  1.0000
  C   C15       1.0  0.6022729027551321  0.1388390582750532  0.0350088723901081  1.0000
  C   C16       1.0  0.9686934892042416  0.13740241788735827  0.3951971889441097  1.0000
  C   C17       1.0  0.9432386224001731  0.05815133324585279  0.4384983915500129  1.0000
  C   C18       1.0  0.8604967379559197  0.0364447714949989  0.3999796428886171  1.0000
  C   C19       1.0  0.1385715149119022  0.6022669220271268  0.0336248071446263  1.0000
  C   C20       1.0  0.056915959806694595  0.5620281183998654  0.056279301941259505  1.0000
  C   C21       1.0  0.032084836589845595  0.60389651451365  0.1365226829615409  1.0000
  C   C22       1.0  0.39842785075951065  0.9649725873210712  0.140570445528553  1.0000
  C   C23       1.0  0.43885613955194464  0.9420686637121206  0.059001289324775996  1.0000
  C   C24       1.0  0.3977451850109617  0.8612027866222504  0.0349232977458485  1.0000
  C   C25       1.0  0.0315887481525152  0.863316948242179  0.3951571362474411  1.0000
  C   C26       1.0  0.05734334329295619  0.9424114857114747  0.4385640135866709  1.0000
  C   C27       1.0  0.1401928269613251  0.9638137709822203  0.4001219056731813  1.0000
  C   C28       1.0  0.13866140533934157  0.3978732572466299  0.9651915496346533  1.0000
  C   C29       1.0  0.05773404891592549  0.4388287294962865  0.9411528886623444  1.0000
  C   C30       1.0  0.0347629165934009  0.39822430749035215  0.8597033411063464  1.0000
  C   C31       1.0  0.396716420153531  0.03266289165119219  0.8633277900456734  1.0000
  C   C32       1.0  0.4382488411809644  0.05709437766555679  0.9438763964547547  1.0000
  C   C33       1.0  0.39756910631454895  0.1384672682719525  0.9669225044935814  1.0000
  C   C34       1.0  0.0363328423147067  0.14016355332383768  0.6001732707707319  1.0000
  C   C35       1.0  0.0581242970424753  0.0574935925728184  0.5615076889566167  1.0000
  C   C36       1.0  0.13740470875461597  0.0320282876937412  0.6046982993686923  1.0000
  C   C37       1.0  0.00033435008099759987  0.00036260102325510015  0.5000441538031382  1.0000
  C   C38       1.0  0.9999299637585608  0.5001378613767214  0.9986172465385863  1.0000
  C   C39       1.0  0.5001431102632522  0.9999197938060718  0.0014727395728684  1.0000
  N   N1        1.0  0.902469994769781  0.6629414008618894  0.8365474061587008  1.0000
  N   N2        1.0  0.8373266230396297  0.6626162378171684  0.9014435161420025  1.0000
  N   N3        1.0  0.6635629695280088  0.838585529965762  0.9034454304224155  1.0000
  N   N4        1.0  0.6647336918939002  0.9049582478813816  0.8398291189960007  1.0000
  N   N5        1.0  0.8394150185663563  0.9053494208182683  0.6651200786054475  1.0000
  N   N6        1.0  0.9021989833470555  0.8382369477590214  0.6623541380953739  1.0000
  N   N7        1.0  0.9047230614698946  0.3358213609888878  0.16029118166844109  1.0000
  N   N8        1.0  0.8389276949581016  0.33631099195498126  0.096083686195243  1.0000
  N   N9        1.0  0.6631316154696664  0.16247594920152858  0.0978830414032217  1.0000
  N   N10       1.0  0.6631385356635703  0.09779799353952968  0.16324603764802254  1.0000
  N   N11       1.0  0.8380529038447835  0.09869506282609558  0.3380151123397184  1.0000
  N   N12       1.0  0.9052440759926413  0.16137510108088546  0.3351308415898586  1.0000
  N   N13       1.0  0.0948448052963045  0.6648460418730548  0.16009548608245444  1.0000
  N   N14       1.0  0.16099888432312778  0.66386010398908  0.09624650604683178  1.0000
  N   N15       1.0  0.3371288105445132  0.8374512945660298  0.09800408553568471  1.0000
  N   N16       1.0  0.3375838387366342  0.90186660598836  0.1636277566708273  1.0000
  N   N17       1.0  0.1624345800173543  0.9015307880943906  0.3381033951885186  1.0000
  N   N18       1.0  0.0949706865736459  0.8391550277197551  0.33509289747450316  1.0000
  N   N19       1.0  0.0979192154326896  0.3374137975134985  0.8367010285586715  1.0000
  N   N20       1.0  0.16241106366247487  0.33714018292088344  0.9022308999047297  1.0000
  N   N21       1.0  0.3360880365525105  0.16105991197819947  0.9042744470066211  1.0000
  N   N22       1.0  0.3355738915966526  0.09533248012441219  0.8399814585183876  1.0000
  N   N23       1.0  0.16137932385683482  0.09540119840503539  0.6648503125196755  1.0000
  N   N24       1.0  0.09863268351165287  0.16255476709468297  0.6620953020444276  1.0000
