data_image0
_chemical_formula_structural       ZnSiH16C24N4F10
_chemical_formula_sum              "Zn1 Si1 H16 C24 N4 F10"
_cell_length_a       7.763567668391569
_cell_length_b       13.824516903660577
_cell_length_c       13.824431154623744
_cell_angle_alpha    89.64733369145294
_cell_angle_beta     86.05351657189796
_cell_angle_gamma    86.05301131998249

_space_group_name_H-M_alt    "P 1"
_space_group_IT_number       1

loop_
  _space_group_symop_operation_xyz
  'x, y, z'

loop_
  _atom_site_type_symbol
  _atom_site_label
  _atom_site_symmetry_multiplicity
  _atom_site_fract_x
  _atom_site_fract_y
  _atom_site_fract_z
  _atom_site_occupancy
  Zn  Zn1       1.0  0.49998043518660756  0.5000009006037799  0.49999883311607357  1.0000
  Si  Si1       1.0  0.9999916008184965  0.49999757719789517  0.49999808681854313  1.0000
  H   H1        1.0  0.2528586443207388  0.5000762443377198  0.33687320509699953  1.0000
  H   H2        1.0  0.25824235402706813  0.5000163937878099  0.159172669534648  1.0000
  H   H3        1.0  0.8174581501475657  0.4999886103207982  0.15436256527689093  1.0000
  H   H4        1.0  0.7884009300261711  0.5000159605279391  0.3337192554942661  1.0000
  H   H5        1.0  0.18250796348401363  0.500012461772144  0.8456370793360009  1.0000
  H   H6        1.0  0.7417260092733499  0.49997670080009726  0.8408283795755196  1.0000
  H   H7        1.0  0.7471204720534459  0.4999240973088348  0.6631252351381602  1.0000
  H   H8        1.0  0.2115790267821892  0.4999880036621819  0.6662820279229463  1.0000
  H   H9        1.0  0.2528632589044123  0.3368723745628229  0.5000761395583027  1.0000
  H   H10       1.0  0.25825376991198823  0.1591752286289747  0.5000183056186813  1.0000
  H   H11       1.0  0.8174648180668669  0.1543614666755317  0.4999872908711538  1.0000
  H   H12       1.0  0.7884065024166559  0.33371528011384294  0.5000133279658527  1.0000
  H   H13       1.0  0.1825055383773416  0.8456367066875359  0.5000078705218697  1.0000
  H   H14       1.0  0.7417241156879727  0.8408352634775653  0.4999808508579235  1.0000
  H   H15       1.0  0.7471223734767706  0.6631272340363665  0.49992857177774397  1.0000
  H   H16       1.0  0.2115820938788957  0.6662814325749763  0.4999840543841429  1.0000
  C   C1        1.0  0.3757887039215361  0.5000384855975213  0.2939487686894394  1.0000
  C   C2        1.0  0.379796803920847  0.5000111434140634  0.193398620029221  1.0000
  C   C3        1.0  0.5401655944374681  0.49999145862184236  0.13907332782608958  1.0000
  C   C4        1.0  0.6894447927816215  0.4999941089067618  0.1915697579132782  1.0000
  C   C5        1.0  0.6740512304196642  0.5000240084677401  0.2922485687154861  1.0000
  C   C6        1.0  0.5602078609751827  0.49998402907512923  0.0335814361849316  1.0000
  C   C7        1.0  0.4397875297798706  0.5000097781315702  0.9664186014315064  1.0000
  C   C8        1.0  0.31052674564358546  0.5000047850395645  0.8084304191600395  1.0000
  C   C9        1.0  0.4598076828737374  0.5000038110382192  0.860924633258648  1.0000
  C   C10       1.0  0.6201749221892284  0.4999863026134932  0.8065986641698187  1.0000
  C   C11       1.0  0.6241905939878978  0.4999604070170349  0.706048225625409  1.0000
  C   C12       1.0  0.3259287202390694  0.49997995460914507  0.7077541616556928  1.0000
  C   C13       1.0  0.3757954516706191  0.2939493921113294  0.5000378799100318  1.0000
  C   C14       1.0  0.37980688334447177  0.19340182316201288  0.5000141117162684  1.0000
  C   C15       1.0  0.5401726598609005  0.13907179621720187  0.49999232115536774  1.0000
  C   C16       1.0  0.6894511871989124  0.19156792322915805  0.49999170022712036  1.0000
  C   C17       1.0  0.6740562552053077  0.2922450241788964  0.5000204231887011  1.0000
  C   C18       1.0  0.560209784159376  0.03357966622515819  0.4999870870917817  1.0000
  C   C19       1.0  0.43978766898340627  0.9664184913443845  0.5000114041862318  1.0000
  C   C20       1.0  0.31052535600470316  0.8084324212733235  0.5000046658606081  1.0000
  C   C21       1.0  0.4598080923324088  0.8609256434326226  0.500007519959297  1.0000
  C   C22       1.0  0.6201729642473878  0.8066028622043999  0.49999223552300254  1.0000
  C   C23       1.0  0.6241938942914802  0.7060516676370624  0.49996306858217565  1.0000
  C   C24       1.0  0.3259332845912936  0.7077545887639616  0.4999761854752619  1.0000
  N   N1        1.0  0.5197005058213195  0.5000469399347123  0.3432570869191096  1.0000
  N   N2        1.0  0.4802718791876829  0.4999555776684089  0.6567444863822942  1.0000
  N   N3        1.0  0.5197084311625702  0.34325800247011523  0.5000449196917671  1.0000
  N   N4        1.0  0.48027677197897123  0.6567452331620062  0.4999576186292032  1.0000
  F   F1        1.0  0.22657233723334969  0.5004001139402091  0.5004020873237494  1.0000
  F   F2        1.0  0.7734090441837296  0.4995922529843923  0.49959414002377395  1.0000
  F   F3        1.0  0.999995083727221  0.5872736177243921  0.41272095088257993  1.0000
  F   F4        1.0  0.9999943077440107  0.4127237083674372  0.5872757039722174  1.0000
  F   F5        1.0  0.02182653519834329  0.4128513460107398  0.41285324207481716  1.0000
  F   F6        1.0  0.9781700682858269  0.5871431873453901  0.58714457645209  1.0000
  F   F7        1.0  0.7287896930372425  0.4999302393910127  0.9975848252523817  1.0000
  F   F8        1.0  0.2712096405542468  0.5000628376242559  0.0024194093174969996  1.0000
  F   F9        1.0  0.7287934218627469  0.997583541939818  0.49993807791346256  1.0000
  F   F10       1.0  0.2712110892217439  0.0024204148788768997  0.5000572264714762  1.0000
