data_image0
_chemical_formula_structural       Al4H12C36N3ClO26
_chemical_formula_sum              "Al4 H12 C36 N3 Cl1 O26"
_cell_length_a       6.778421092630354
_cell_length_b       16.645756487792404
_cell_length_c       18.40765546402331
_cell_angle_alpha    106.56509311019124
_cell_angle_beta     89.77725357433414
_cell_angle_gamma    89.87444614655608

_space_group_name_H-M_alt    "P 1"
_space_group_IT_number       1

loop_
  _space_group_symop_operation_xyz
  'x, y, z'

loop_
  _atom_site_type_symbol
  _atom_site_label
  _atom_site_symmetry_multiplicity
  _atom_site_fract_x
  _atom_site_fract_y
  _atom_site_fract_z
  _atom_site_occupancy
  Al  Al1       1.0  0.1250427767588747  0.49973114942711316  0.4983896630349136  1.0000
  Al  Al2       1.0  0.6240015607975238  0.49842116768417827  0.49800980936259265  1.0000
  Al  Al3       1.0  0.6546401463436738  0.9996677175694871  0.9998147954310285  1.0000
  Al  Al4       1.0  0.15509836057836418  0.999074302273932  0.001225915814707408  1.0000
  H   H1        1.0  0.99107154248901  0.7945295058475565  0.6392528838562371  1.0000
  H   H2        1.0  0.6672380862255662  0.8631073584207839  0.7396585841434558  1.0000
  H   H3        1.0  0.2247879289377437  0.8043698031828301  0.7688012324200387  1.0000
  H   H4        1.0  0.5841944010337342  0.2163694782026155  0.3488752958326486  1.0000
  H   H5        1.0  0.7347480226356494  0.2241172438959609  0.20632849474228718  1.0000
  H   H6        1.0  0.5203580773650031  0.3773828614375958  0.22483808216463075  1.0000
  H   H7        1.0  0.19252360868144794  0.2810938522971398  0.14961537198659872  1.0000
  H   H8        1.0  0.0455959742063143  0.2747582870632784  0.2938710791135861  1.0000
  H   H9        1.0  0.3755165394632129  0.6028089321647772  0.5503512769123375  1.0000
  H   H10       1.0  0.8766669456795597  0.39888031492505144  0.5094509837500212  1.0000
  H   H11       1.0  0.40717051603093074  0.8953412684992872  0.002434251783178484  1.0000
  H   H12       1.0  0.9060204762350211  0.10463359245263601  0.9999782675205893  1.0000
  C   C1        1.0  0.37739429816942754  0.38599319901044987  0.3841858626786561  1.0000
  C   C2        1.0  0.3713145839866314  0.4126833716650113  0.584659156423669  1.0000
  C   C3        1.0  0.8687936145171875  0.6138674437694648  0.612934932028935  1.0000
  C   C4        1.0  0.876769297511835  0.5824896823965772  0.4116179976528542  1.0000
  C   C5        1.0  0.876069351224359  0.6318874814508887  0.35897810015432446  1.0000
  C   C6        1.0  0.88016879687801  0.6758950909114887  0.31567717616064084  1.0000
  C   C7        1.0  0.8853349757515971  0.7244843462770875  0.2687796066496731  1.0000
  C   C8        1.0  0.8907346914790679  0.7695985032628341  0.22600781834557884  1.0000
  C   C9        1.0  0.8958273340231456  0.8183419834563496  0.17928491700071456  1.0000
  C   C10       1.0  0.8997587905497679  0.8625896030302086  0.13627439208777764  1.0000
  C   C11       1.0  0.7701510568867249  0.8138732354197628  0.7434228815177307  1.0000
  C   C12       1.0  0.9451929051311154  0.7757125604835551  0.688934123011741  1.0000
  C   C13       1.0  0.8717190814488376  0.6846014340469182  0.6842125739512711  1.0000
  C   C14       1.0  0.7015545807267857  0.7230314770407701  0.7407634618389382  1.0000
  C   C15       1.0  0.8314314699992239  0.7266408087723021  0.8102553658939087  1.0000
  C   C16       1.0  0.005438013747792102  0.6861244176070542  0.7545228740007773  1.0000
  C   C17       1.0  0.07776110101055173  0.7781739423667489  0.7587602200955886  1.0000
  C   C18       1.0  0.9035393472056085  0.8163351734020878  0.8134482627075387  1.0000
  C   C19       1.0  0.5006444876035658  0.2321648020625133  0.30409405464759237  1.0000
  C   C20       1.0  0.31635542046637244  0.18193109938390967  0.263247690617284  1.0000
  C   C21       1.0  0.4021893728945686  0.18529376559135358  0.1849229393270662  1.0000
  C   C22       1.0  0.5823065601457387  0.23679473496767403  0.22585133384510675  1.0000
  C   C23       1.0  0.4634589527916475  0.3200789085458879  0.23489133856529074  1.0000
  C   C24       1.0  0.28068033456532493  0.26882246196248627  0.19496193498314085  1.0000
  C   C25       1.0  0.19764955712602023  0.2643583470538288  0.2733767349530325  1.0000
  C   C26       1.0  0.3792355109703891  0.31523548407334095  0.3137363537920095  1.0000
  C   C27       1.0  0.37252977478578936  0.3639290166710154  0.637925818310393  1.0000
  C   C28       1.0  0.37659995542237107  0.32040810926129376  0.6815938072132397  1.0000
  C   C29       1.0  0.38200700941141724  0.2723859926884415  0.7289254407797401  1.0000
  C   C30       1.0  0.38803164259860523  0.2278752478753674  0.7721945215937538  1.0000
  C   C31       1.0  0.39449311331067355  0.17969937476405556  0.819375284960266  1.0000
  C   C32       1.0  0.40028639660525295  0.13576965364466534  0.8626875271092302  1.0000
  C   C33       1.0  0.40355022203098667  0.08527731980242237  0.9144360336909331  1.0000
  C   C34       1.0  0.40387718195193395  0.11403219615291961  0.11449596902217961  1.0000
  C   C35       1.0  0.9026061420916565  0.9131865384839559  0.0847815219542484  1.0000
  C   C36       1.0  0.907282240854329  0.8868803573732507  0.8849797496118582  1.0000
  N   N1        1.0  0.4927738386187314  0.7062103464100813  0.7414634045994504  1.0000
  N   N2        1.0  0.7813165582114578  0.6944995643304496  0.8743965532494542  1.0000
  N   N3        1.0  0.24619790801430944  0.10609275792924684  0.2808624280100958  1.0000
  Cl  Cl1       1.0  0.11744426921837461  0.5956535055144913  0.7621060303189964  1.0000
  O   O1        1.0  0.5400787124531446  0.42808880082576906  0.5609728299573504  1.0000
  O   O2        1.0  0.2104144321914205  0.41168853608918  0.413429079423004  1.0000
  O   O3        1.0  0.0455722893020436  0.5609621761822228  0.42985840782785106  1.0000
  O   O4        1.0  0.2022319303790496  0.4340618152127149  0.5663129542104031  1.0000
  O   O5        1.0  0.0373241083515339  0.5918031063726019  0.5832888169166993  1.0000
  O   O6        1.0  0.5456282768713836  0.41442524384041224  0.40965988376962065  1.0000
  O   O7        1.0  0.37455999422759595  0.5501109343329417  0.5101881415992295  1.0000
  O   O8        1.0  0.7019410510295073  0.5839462821475507  0.5885315207252974  1.0000
  O   O9        1.0  0.7093824388045464  0.5662217318673157  0.43562284622435493  1.0000
  O   O10       1.0  0.8754623081397171  0.44938589366056897  0.49311151886587373  1.0000
  O   O11       1.0  0.23494052350794453  0.08744490010496263  0.08823370605222182  1.0000
  O   O12       1.0  0.572917903153126  0.0660178174172898  0.9341463323966152  1.0000
  O   O13       1.0  0.7380781890710892  0.9141591840000558  0.9105856642720482  1.0000
  O   O14       1.0  0.5717583390561957  0.08861916040252991  0.08597681458360282  1.0000
  O   O15       1.0  0.7353202480157394  0.9333602480294517  0.06385835401266611  1.0000
  O   O16       1.0  0.2359530654249156  0.06563755954353918  0.9356723179656186  1.0000
  O   O17       1.0  0.40547938134612593  0.9495810308224434  0.9925637125507407  1.0000
  O   O18       1.0  0.07184990212134322  0.9325502329500709  0.06469659864875157  1.0000
  O   O19       1.0  0.0752843388499258  0.9115173992944462  0.9123568601824346  1.0000
  O   O20       1.0  0.9049721540439534  0.04921501367750379  0.0071947896587048026  1.0000
  O   O21       1.0  0.4211300130398143  0.7174024526921059  0.8057448303667343  1.0000
  O   O22       1.0  0.4005143241162585  0.6898449228159367  0.6809551723331283  1.0000
  O   O23       1.0  0.7149113499374167  0.6224735752267136  0.8574653464809359  1.0000
  O   O24       1.0  0.8192725556528374  0.7395211423795801  0.9388530560549668  1.0000
  O   O25       1.0  0.11459733251941628  0.11564429293913041  0.3297033847021922  1.0000
  O   O26       1.0  0.3284546723086592  0.0391589211982151  0.24757889153098492  1.0000
