data_image0
_chemical_formula_structural       Zn2H32C42N12O10F4
_chemical_formula_sum              "Zn2 H32 C42 N12 O10 F4"
_cell_length_a       5.718384655137301
_cell_length_b       11.688339694350935
_cell_length_c       17.083449514363036
_cell_angle_alpha    100.08393157405206
_cell_angle_beta     98.07416900063016
_cell_angle_gamma    102.16666355367464

_space_group_name_H-M_alt    "P 1"
_space_group_IT_number       1

loop_
  _space_group_symop_operation_xyz
  'x, y, z'

loop_
  _atom_site_type_symbol
  _atom_site_label
  _atom_site_symmetry_multiplicity
  _atom_site_fract_x
  _atom_site_fract_y
  _atom_site_fract_z
  _atom_site_occupancy
  Zn  Zn1       1.0  0.48754841564199586  0.7329016423236681  0.3008701172100955  1.0000
  Zn  Zn2       1.0  0.5124664507553051  0.26709970566531643  0.6991316919869135  1.0000
  H   H1        1.0  0.7156627411385801  0.24539441057429193  0.4206202346895722  1.0000
  H   H2        1.0  0.28434922857312733  0.7546015170214346  0.5793779009758708  1.0000
  H   H3        1.0  0.4600644330237316  0.6007102702171636  0.45386646918871776  1.0000
  H   H4        1.0  0.5399412852621027  0.39928744365820995  0.54613045539989  1.0000
  H   H5        1.0  0.8676951657035731  0.5635846900445002  0.26709446953814353  1.0000
  H   H6        1.0  0.1322869778659239  0.43640855234845327  0.732898657439513  1.0000
  H   H7        1.0  0.058217319838888705  0.3909641886188311  0.4236377057680514  1.0000
  H   H8        1.0  0.9417934614514325  0.6090398278111379  0.5763624954138962  1.0000
  H   H9        1.0  0.1264526485856337  0.4260038156240782  0.3307620117503233  1.0000
  H   H10       1.0  0.8735673781610062  0.5739974926223396  0.6692382408574173  1.0000
  H   H11       1.0  0.162394924079166  0.21174650156255123  0.28219365559388615  1.0000
  H   H12       1.0  0.8376410688470701  0.7882476319226369  0.7178081516717751  1.0000
  H   H13       1.0  0.13285420885791416  0.20261877582603927  0.3827270608279107  1.0000
  H   H14       1.0  0.8671779184321837  0.7973780740402532  0.6172760804051122  1.0000
  H   H15       1.0  0.632550806855413  0.017878026795393995  0.35732289755075897  1.0000
  H   H16       1.0  0.36748084387649976  0.9821207038403299  0.6426857135669335  1.0000
  H   H17       1.0  0.9525486944151002  0.8013757249336422  0.20260337143966464  1.0000
  H   H18       1.0  0.04746582312458259  0.1986183853493273  0.7973934826498803  1.0000
  H   H19       1.0  0.8471679435782421  0.325156235543922  0.05186638170533799  1.0000
  H   H20       1.0  0.15282355342558424  0.6748613723796097  0.9481410777098913  1.0000
  H   H21       1.0  0.20992979528472946  0.0863296489952532  0.09314814838884897  1.0000
  H   H22       1.0  0.7900859354574834  0.9136691049879173  0.9068592485318091  1.0000
  H   H23       1.0  0.3991493015161965  0.12061748690658898  0.23669749946322574  1.0000
  H   H24       1.0  0.6009003364932752  0.8793721365988458  0.7633043239786871  1.0000
  H   H25       1.0  0.8108658778537503  0.7864922389086643  0.4940398156240916  1.0000
  H   H26       1.0  0.1890999457134868  0.2134929800090859  0.5059523156925607  1.0000
  H   H27       1.0  0.381965903151553  0.05414288140190139  0.4470456824733374  1.0000
  H   H28       1.0  0.6180078547150885  0.9458647971724188  0.5529534766733732  1.0000
  H   H29       1.0  0.8506433868003143  0.6438883840216789  0.0943182512564036  1.0000
  H   H30       1.0  0.14929187735275917  0.3561202417063355  0.9056777348910428  1.0000
  H   H31       1.0  0.3930514583288485  0.4503931643913077  0.04345446594824407  1.0000
  H   H32       1.0  0.6068982387067552  0.5496182849432286  0.9565523754477567  1.0000
  C   C1        1.0  0.5821954338840385  0.5691360251179134  0.41624859776619155  1.0000
  C   C2        1.0  0.4178214024562764  0.43086258138539085  0.583750042740611  1.0000
  C   C3        1.0  0.7846530493326327  0.5517224415642303  0.3196064104556058  1.0000
  C   C4        1.0  0.21534907623858146  0.4482716847471905  0.6803893685036967  1.0000
  C   C5        1.0  0.9794674963393464  0.39176247123563696  0.3613515345373059  1.0000
  C   C6        1.0  0.02054808688619396  0.6082406292189616  0.6386481649234808  1.0000
  C   C7        1.0  0.8390226599013249  0.26211080237133894  0.3181013158580654  1.0000
  C   C8        1.0  0.16100132026978295  0.737887808670024  0.6818987795752846  1.0000
  C   C9        1.0  0.03152791177900132  0.18650409094128412  0.3208223516321738  1.0000
  C   C10       1.0  0.9685003059807971  0.8134954657180913  0.6791815351717218  1.0000
  C   C11       1.0  0.7467606368129368  0.9871512757985669  0.3171468494763302  1.0000
  C   C12       1.0  0.25326826971511457  0.012845648502896299  0.6828602714652874  1.0000
  C   C13       1.0  0.91076299789993  0.8795390960533639  0.23686590389169024  1.0000
  C   C14       1.0  0.089252807092187  0.1204568913395434  0.763136489615924  1.0000
  C   C15       1.0  0.7234980165697139  0.24786839711092062  0.22960463842739637  1.0000
  C   C16       1.0  0.2765270850336562  0.7521256912150701  0.7703926328625099  1.0000
  C   C17       1.0  0.8445727238064082  0.2995616955712422  0.1738964059063619  1.0000
  C   C18       1.0  0.1554478577302447  0.7004441125550045  0.826105563585237  1.0000
  C   C19       1.0  0.7458673798919978  0.2819027984665041  0.09240922398248588  1.0000
  C   C20       1.0  0.25413245662478795  0.7181075246894506  0.9075918628028032  1.0000
  C   C21       1.0  0.5153745935307867  0.20594914728656016  0.06517993038905699  1.0000
  C   C22       1.0  0.48462697893661744  0.7940567873863741  0.9348265698035618  1.0000
  C   C23       1.0  0.3879216767365747  0.1478091180588237  0.1161385029347599  1.0000
  C   C24       1.0  0.6120947038447684  0.852194954508832  0.8838660256227582  1.0000
  C   C25       1.0  0.4951491872002904  0.1694033672657298  0.19751182829920563  1.0000
  C   C26       1.0  0.5048746332283116  0.8305908301880293  0.8024918458186292  1.0000
  C   C27       1.0  0.23414565958810124  0.8147248516623191  0.4378014537598317  1.0000
  C   C28       1.0  0.7658349810400509  0.18527561292009412  0.5621953819989256  1.0000
  C   C29       1.0  0.11171870865996422  0.9104646801801265  0.46893909260023037  1.0000
  C   C30       1.0  0.8882585220910287  0.0895330347190395  0.5310531890751732  1.0000
  C   C31       1.0  0.8945371668305385  0.8804794667420807  0.49783150170203055  1.0000
  C   C32       1.0  0.10542992109417783  0.11951120499249872  0.5021659988022478  1.0000
  C   C33       1.0  0.21501963431165194  0.030772865477977997  0.470604074989886  1.0000
  C   C34       1.0  0.7849538000880544  0.9692168386816176  0.5293900513442081  1.0000
  C   C35       1.0  0.2960958094418658  0.6130023746684471  0.15686547681011828  1.0000
  C   C36       1.0  0.7038802952853943  0.3870141849497273  0.8431301248799129  1.0000
  C   C37       1.0  0.14018366494457976  0.5543437266116696  0.0764718987998663  1.0000
  C   C38       1.0  0.8597840124813844  0.4456800985980251  0.9235288987271417  1.0000
  C   C39       1.0  0.9174636956249245  0.5821812557861961  0.05279331607636098  1.0000
  C   C40       1.0  0.08249006609202082  0.4178462223464906  0.9472096969354666  1.0000
  C   C41       1.0  0.2209360655108625  0.47164935944199726  0.023552617367975898  1.0000
  C   C42       1.0  0.7790321043074614  0.5283682097627603  0.9764486425447813  1.0000
  N   N1        1.0  0.6303359141267393  0.6122925652830344  0.34912351315525564  1.0000
  N   N2        1.0  0.3696680632434309  0.3877015765449414  0.6508735121304026  1.0000
  N   N3        1.0  0.6983546085768709  0.48570431258303864  0.4295172828077297  1.0000
  N   N4        1.0  0.30166660429541997  0.5142960678309549  0.5704811522190951  1.0000
  N   N5        1.0  0.8255612597361408  0.47579831193336725  0.3676752660238662  1.0000
  N   N6        1.0  0.17444749647429356  0.52419848962613  0.6323210873101957  1.0000
  N   N7        1.0  0.9275278267080227  0.05826640360769629  0.29321112832352003  1.0000
  N   N8        1.0  0.0724981369445387  0.9417322517142991  0.7067919786256383  1.0000
  N   N9        1.0  0.034649428063175995  0.9907081547531859  0.24204084911209373  1.0000
  N   N10       1.0  0.965365953821433  0.0092833615239698  0.7579615927011076  1.0000
  N   N11       1.0  0.7308706239283043  0.8733929011264865  0.2821889150425108  1.0000
  N   N12       1.0  0.26914998299902493  0.12660217029105067  0.7178129767439427  1.0000
  O   O1        1.0  0.5189648362655959  0.614715013892983  0.16945729677109256  1.0000
  O   O2        1.0  0.4809882273625378  0.38527570629361924  0.8305408242590033  1.0000
  O   O3        1.0  0.19342956343153625  0.6631432876498593  0.2125474613836147  1.0000
  O   O4        1.0  0.8065439650341659  0.33684842192348435  0.7874597839894404  1.0000
  O   O5        1.0  0.333663916964788  0.8311924049450706  0.3767221722875361  1.0000
  O   O6        1.0  0.6662998234804152  0.1688062729910271  0.6232720286315042  1.0000
  O   O7        1.0  0.23407170792624737  0.7287189681902927  0.473494934451807  1.0000
  O   O8        1.0  0.7659032687175016  0.2712778453714932  0.5264965673688591  1.0000
  O   O9        1.0  0.652539035793865  0.22157498814691218  0.36082980702254014  1.0000
  O   O10       1.0  0.3474800338544669  0.7784209343988522  0.6391691951729612  1.0000
  F   F1        1.0  0.07701319161961341  0.37059162262237766  0.19913717605751907  1.0000
  F   F2        1.0  0.9230124231753368  0.6293997949935958  0.8008609757841751  1.0000
  F   F3        1.0  0.414423782640398  0.1873066379555226  0.9854106801583242  1.0000
  F   F4        1.0  0.5855774476206366  0.8127163277831572  0.014597788939631977  1.0000
