data_image0
_chemical_formula_structural       Zn2H30C42N2O12
_chemical_formula_sum              "Zn2 H30 C42 N2 O12"
_cell_length_a       13.26018390377123
_cell_length_b       16.39315586043587
_cell_length_c       17.82570284774312
_cell_angle_alpha    94.84414022947878
_cell_angle_beta     90.18893878691345
_cell_angle_gamma    92.1326618489665

_space_group_name_H-M_alt    "P 1"
_space_group_IT_number       1

loop_
  _space_group_symop_operation_xyz
  'x, y, z'

loop_
  _atom_site_type_symbol
  _atom_site_label
  _atom_site_symmetry_multiplicity
  _atom_site_fract_x
  _atom_site_fract_y
  _atom_site_fract_z
  _atom_site_occupancy
  Zn  Zn1       1.0  0.5062698383088033  0.4155329425295592  0.49801160173758063  1.0000
  Zn  Zn2       1.0  0.4937275251971228  0.5844669089046449  0.5019473438689204  1.0000
  H   H1        1.0  0.3901973689585674  0.7157386979729883  0.42331039334204223  1.0000
  H   H2        1.0  0.3982281139707027  0.867054432182805  0.42593418386506693  1.0000
  H   H3        1.0  0.6329554285318791  0.8639007266305118  0.5971712270378403  1.0000
  H   H4        1.0  0.6121922951397706  0.7154733395042071  0.5862312740459642  1.0000
  H   H5        1.0  0.3670567181519218  0.13609228303658233  0.4028163697856897  1.0000
  H   H6        1.0  0.6017327806228395  0.13295497011714025  0.5740961392213392  1.0000
  H   H7        1.0  0.6097658102215107  0.28427136864414854  0.5767054024165716  1.0000
  H   H8        1.0  0.38782791272524264  0.2845148309166988  0.4137385589600555  1.0000
  H   H9        1.0  0.5010257533997019  0.6157123943527624  0.2625054067119024  1.0000
  H   H10       1.0  0.5020411438578448  0.6099681206413694  0.12419265076514559  1.0000
  H   H11       1.0  0.4960717149094194  0.34428755603328653  0.11813160240831877  1.0000
  H   H12       1.0  0.4959399104145276  0.35377792127476243  0.2536746629783835  1.0000
  H   H13       1.0  0.50393645954842  0.6557178291896905  0.8818222025389062  1.0000
  H   H14       1.0  0.49808105320560253  0.39004028704999183  0.875773982189841  1.0000
  H   H15       1.0  0.49906390348976254  0.3842935500536912  0.7374643243442448  1.0000
  H   H16       1.0  0.5040100517914682  0.6462244111854077  0.746275406052078  1.0000
  H   H17       1.0  0.830986259065611  0.3919065743529231  0.4962229438125121  1.0000
  H   H18       1.0  0.8091393784025059  0.651215941633453  0.5049288939567447  1.0000
  H   H19       1.0  0.1690109077997874  0.608091517607939  0.5035406347245939  1.0000
  H   H20       1.0  0.19086158112417448  0.34879521422166  0.4951257783401387  1.0000
  H   H21       1.0  0.6275638700047494  0.963964207007294  0.596012601250969  1.0000
  H   H22       1.0  0.37241106598731477  0.036039099178339015  0.4040088452294484  1.0000
  H   H23       1.0  0.4929280971078782  0.3526913777756492  0.029876058869447795  1.0000
  H   H24       1.0  0.5071316735095123  0.6473207278553447  0.970084007655558  1.0000
  H   H25       1.0  0.019717057735654495  0.26691142434468423  0.4420624857954891  1.0000
  H   H26       1.0  0.9126973507858834  0.29871128504827754  0.4939879152957189  1.0000
  H   H27       1.0  0.022322217627973404  0.27179548525923297  0.5415962373257699  1.0000
  H   H28       1.0  0.9788451589259921  0.7277811550426777  0.45761524347952326  1.0000
  H   H29       1.0  0.08732431559379708  0.7013294354468516  0.5068899145897348  1.0000
  H   H30       1.0  0.9791175524912816  0.7334426575816694  0.5571842893974477  1.0000
  C   C1        1.0  0.49778833657376237  0.48973008796794215  0.3517762953386309  1.0000
  C   C2        1.0  0.3016877891716163  0.4899734354834921  0.4990625105886508  1.0000
  C   C3        1.0  0.5022117597802308  0.5102636372663201  0.6481821620481154  1.0000
  C   C4        1.0  0.6983118398251874  0.5100430304186007  0.5008770230096431  1.0000
  C   C5        1.0  0.44228574151016886  0.7523378525432353  0.4611495390313891  1.0000
  C   C6        1.0  0.4472687931071419  0.8371866663617669  0.46286386993365614  1.0000
  C   C7        1.0  0.5156017167126308  0.8833615405964256  0.5122611557013812  1.0000
  C   C8        1.0  0.5760565252885144  0.8369182103613613  0.5570545464835703  1.0000
  C   C9        1.0  0.5661930939342454  0.7521357900735525  0.5521184707339727  1.0000
  C   C10       1.0  0.5265773385058808  0.9730647793197279  0.5196260873525985  1.0000
  C   C11       1.0  0.4734141561827911  0.026937948434799415  0.4803858108525816  1.0000
  C   C12       1.0  0.42394280503809517  0.16307476520868394  0.44294255717770165  1.0000
  C   C13       1.0  0.4843868171952792  0.11664242027717364  0.48774859168643286  1.0000
  C   C14       1.0  0.5527061979565602  0.16281787898002884  0.5371537496574703  1.0000
  C   C15       1.0  0.557690197043918  0.2476710249007327  0.53885609013021  1.0000
  C   C16       1.0  0.4338108697168791  0.2478596778288066  0.447867062963148  1.0000
  C   C17       1.0  0.49766237310754485  0.4853419931827931  0.26761071173881845  1.0000
  C   C18       1.0  0.4995632139548789  0.5566474712433092  0.22943100980477024  1.0000
  C   C19       1.0  0.5001722609192996  0.553284622936978  0.15132197451176668  1.0000
  C   C20       1.0  0.49853557229003087  0.47743180334303775  0.10670131257254668  1.0000
  C   C21       1.0  0.4967210722250712  0.40612802668305664  0.14665126097280987  1.0000
  C   C22       1.0  0.49649942260469965  0.4097629632223845  0.2247628662545225  1.0000
  C   C23       1.0  0.49864437018975843  0.4690197192339484  0.024015870270872586  1.0000
  C   C24       1.0  0.5014223293300261  0.5309954517023884  0.9759438971914774  1.0000
  C   C25       1.0  0.5033069655207216  0.5938828707251108  0.8533035917208024  1.0000
  C   C26       1.0  0.5015270744696563  0.5225772273134626  0.8932618780396524  1.0000
  C   C27       1.0  0.49991701018748097  0.44672928958473795  0.8486472763102666  1.0000
  C   C28       1.0  0.5005090950331593  0.4433584945471056  0.7705325151871776  1.0000
  C   C29       1.0  0.5023563321651778  0.514662769763014  0.7323458703741748  1.0000
  C   C30       1.0  0.5034941971281555  0.5902375126544328  0.7751927558030332  1.0000
  C   C31       1.0  0.8698246057080822  0.45167157482577386  0.4984306877137641  1.0000
  C   C32       1.0  0.857774086330444  0.5988808011444394  0.5034917405477373  1.0000
  C   C33       1.0  0.9614656217179629  0.6106840503605329  0.5037765991798935  1.0000
  C   C34       1.0  0.023577673873703  0.5406457423678008  0.5013226930502057  1.0000
  C   C35       1.0  0.1301681784650697  0.5483287292380512  0.501400378776438  1.0000
  C   C36       1.0  0.1422325581610551  0.40112391580981926  0.4964777149947466  1.0000
  C   C37       1.0  0.0385297956932291  0.38932335310958194  0.4961262912416302  1.0000
  C   C38       1.0  0.9764242532475222  0.45935633230428874  0.4985276093526138  1.0000
  C   C39       1.0  0.8111488878812735  0.5197963205426109  0.5009419655986136  1.0000
  C   C40       1.0  0.18884432767031004  0.48021227635167935  0.49896999223230404  1.0000
  C   C41       1.0  0.9951830387384462  0.3026168603070405  0.49334283389103456  1.0000
  C   C42       1.0  0.004823145223618001  0.6973798060774075  0.506477308919976  1.0000
  N   N1        1.0  0.5000196189542976  0.7100461980321315  0.5050680585621095  1.0000
  N   N2        1.0  0.4999753538838617  0.2899504770149123  0.49492260227899004  1.0000
  O   O1        1.0  0.5020355897896351  0.4223429427339412  0.3823784521485649  1.0000
  O   O2        1.0  0.49388312852770616  0.5607751351086281  0.3865745013156854  1.0000
  O   O3        1.0  0.3403088629502307  0.5625956109382458  0.501448870676505  1.0000
  O   O4        1.0  0.3508551122754611  0.42446607503973166  0.4967757443237061  1.0000
  O   O5        1.0  0.49782706476987226  0.5776630413349154  0.6175778965909231  1.0000
  O   O6        1.0  0.5062420650535415  0.4392492307562606  0.6133850100558931  1.0000
  O   O7        1.0  0.6596828439734351  0.43743047705591925  0.49836912605115197  1.0000
  O   O8        1.0  0.6491450981041637  0.5755774706087211  0.5033039779975894  1.0000
  O   O9        1.0  0.5967959080321991  0.0072956831199491035  0.5709095852723322  1.0000
  O   O10       1.0  0.40319625377088647  0.9927052226565543  0.4290976794972892  1.0000
  O   O11       1.0  0.49571772133047187  0.3900177098778813  0.9902978748571626  1.0000
  O   O12       1.0  0.5043437008657676  0.6099974470184932  0.009665807185434996  1.0000
