data_image0
_chemical_formula_structural       ZnSiH28C26N4F6
_chemical_formula_sum              "Zn1 Si1 H28 C26 N4 F6"
_cell_length_a       7.816636293863878
_cell_length_b       11.450064411552063
_cell_length_c       11.450053284999136
_cell_angle_alpha    67.17814350500369
_cell_angle_beta     70.01086571836947
_cell_angle_gamma    70.01036314882141

_space_group_name_H-M_alt    "P 1"
_space_group_IT_number       1

loop_
  _space_group_symop_operation_xyz
  'x, y, z'

loop_
  _atom_site_type_symbol
  _atom_site_label
  _atom_site_symmetry_multiplicity
  _atom_site_fract_x
  _atom_site_fract_y
  _atom_site_fract_z
  _atom_site_occupancy
  Zn  Zn1       1.0  0.45633972297542863  0.5435228056490402  0.5435222100880851  1.0000
  Si  Si1       1.0  0.9564509782527892  0.5434943856275183  0.5434928994888608  1.0000
  H   H1        1.0  0.809898310563824  0.5870219107343359  0.3235246908865079  1.0000
  H   H2        1.0  0.2788088794015593  0.3234729299505545  0.5870948383905558  1.0000
  H   H3        1.0  0.8099012619407234  0.3235193127363162  0.5870268720399567  1.0000
  H   H4        1.0  0.27880525267615747  0.5870969445723021  0.3234700723466943  1.0000
  H   H5        1.0  0.9066807996998208  0.657176030052817  0.0809121182802599  1.0000
  H   H6        1.0  0.3547925325437332  0.0808286225734705  0.6573034992064137  1.0000
  H   H7        1.0  0.9066809602760983  0.08090636692406863  0.6571842289543355  1.0000
  H   H8        1.0  0.35479433893030426  0.6573018515752269  0.08082744393184531  1.0000
  H   H9        1.0  0.6134176661481447  0.6743505766335361  0.8737816999280598  1.0000
  H   H10       1.0  0.8387499760616066  0.8738753735560039  0.6743031268960564  1.0000
  H   H11       1.0  0.6134170544639231  0.8737811687369403  0.6743529776582309  1.0000
  H   H12       1.0  0.8387496034754995  0.6742980187195328  0.8738783286515786  1.0000
  H   H13       1.0  0.48775665184756206  0.8992642383710959  0.8992703574410329  1.0000
  H   H14       1.0  0.7134102612387996  0.8993349163900749  0.8993429698500748  1.0000
  H   H15       1.0  0.10305363613736769  0.4994637693262404  0.7636195161552877  1.0000
  H   H16       1.0  0.6341355533008721  0.7633413855989204  0.499734775183896  1.0000
  H   H17       1.0  0.10305094268615263  0.7636239798887062  0.49946253016760533  1.0000
  H   H18       1.0  0.6341368998701141  0.49973525112172723  0.7633383843234754  1.0000
  H   H19       1.0  0.006409764800920973  0.42936852337810905  0.006243715614651501  1.0000
  H   H20       1.0  0.558491354992988  0.0059658141114126715  0.4295451542472081  1.0000
  H   H21       1.0  0.00640321370404707  0.006251567975795055  0.42936468260991495  1.0000
  H   H22       1.0  0.5584945826608915  0.4295429089488821  0.005964636063900699  1.0000
  H   H23       1.0  0.07463307132223204  0.4126974770913138  0.21302948905074712  1.0000
  H   H24       1.0  0.30008522281937644  0.21303482637816978  0.41265007315627866  1.0000
  H   H25       1.0  0.07462969926190516  0.21303513468107133  0.4126928662981442  1.0000
  H   H26       1.0  0.30008886841759624  0.4126515923592537  0.2130316783029116  1.0000
  H   H27       1.0  0.1996971599869255  0.1876889804943716  0.1876859666300135  1.0000
  H   H28       1.0  0.4254581467892818  0.18759925148143708  0.18759811786932803  1.0000
  C   C1        1.0  0.7132760402157745  0.6025642233018049  0.2663781114000727  1.0000
  C   C2        1.0  0.41710715588054376  0.2663469806818101  0.6026118647100916  1.0000
  C   C3        1.0  0.7132800530000196  0.26637258935733144  0.6025706566710696  1.0000
  C   C4        1.0  0.41710083728190045  0.6026098088336056  0.2663494653596814  1.0000
  C   C5        1.0  0.7658075024554096  0.6423504138546647  0.1306238065044454  1.0000
  C   C6        1.0  0.46071824290783764  0.1305516691714033  0.6424269985165836  1.0000
  C   C7        1.0  0.7658085128676788  0.13062045208310022  0.6423582004871733  1.0000
  C   C8        1.0  0.46071843982550587  0.6424268750345021  0.1305480515442596  1.0000
  C   C9        1.0  0.6387843064456715  0.6633061428624105  0.058836021252830106  1.0000
  C   C10       1.0  0.6387812162539248  0.05883270015921476  0.6633132267711943  1.0000
  C   C11       1.0  0.6881934863005696  0.711401767538142  0.9123824271173931  1.0000
  C   C12       1.0  0.6881941600051317  0.9123790824111639  0.7114064764007823  1.0000
  C   C13       1.0  0.6386752466486596  0.8613368859154137  0.8613402363252547  1.0000
  C   C14       1.0  0.19962771490725137  0.4840387572931634  0.8207458995066473  1.0000
  C   C15       1.0  0.49586021145129444  0.8205876812996423  0.4842065027428434  1.0000
  C   C16       1.0  0.19962372616621615  0.8207577106428378  0.4840336861181527  1.0000
  C   C17       1.0  0.49585992414210295  0.4842058238796555  0.820586630228405  1.0000
  C   C18       1.0  0.14717866891831463  0.444398197322549  0.9564946218837563  1.0000
  C   C19       1.0  0.4523516610459388  0.956321439084384  0.4445413266663891  1.0000
  C   C20       1.0  0.14718008932018034  0.9564961687167611  0.44439652565880294  1.0000
  C   C21       1.0  0.4523525765911672  0.4445415259094716  0.9563195887531108  1.0000
  C   C22       1.0  0.27437451724009787  0.42362013253027436  0.028125043381294304  1.0000
  C   C23       1.0  0.27436878052550634  0.028131638638306825  0.4236173224348363  1.0000
  C   C24       1.0  0.2251797676780923  0.37558631715754853  0.17455474205871724  1.0000
  C   C25       1.0  0.2251769148540391  0.17455997313330582  0.3755824731691746  1.0000
  C   C26       1.0  0.2746197112264638  0.2256265316505974  0.22562282949739654  1.0000
  N   N1        1.0  0.3715894599403953  0.5039358404204108  0.7531345411551201  1.0000
  N   N2        1.0  0.3715833550476477  0.7531361645518829  0.5039354959625798  1.0000
  N   N3        1.0  0.5413268876566166  0.5826960466122559  0.3338966858727516  1.0000
  N   N4        1.0  0.5413283292649853  0.3338962204515001  0.582700460773836  1.0000
  F   F1        1.0  0.9564885482573047  0.40917228214240714  0.6778053300087876  1.0000
  F   F2        1.0  0.9564944881131436  0.6777947299543072  0.4091581338543052  1.0000
  F   F3        1.0  0.18131932544397963  0.5436937857277968  0.5436903924429188  1.0000
  F   F4        1.0  0.7315078505516016  0.543350631039587  0.5433520004392421  1.0000
  F   F5        1.0  0.8581100593608046  0.6412893236502912  0.64126887920488  1.0000
  F   F6        1.0  0.05472959167745017  0.44570976857259853  0.4457219122565165  1.0000
