data_image0
_chemical_formula_structural       Zn16H28C96S16N4O68
_chemical_formula_sum              "Zn16 H28 C96 S16 N4 O68"
_cell_length_a       19.635152131729942
_cell_length_b       19.696075589228936
_cell_length_c       33.31893518513839
_cell_angle_alpha    79.15269507702781
_cell_angle_beta     79.34153333042252
_cell_angle_gamma    64.03283799328256

_space_group_name_H-M_alt    "P 1"
_space_group_IT_number       1

loop_
  _space_group_symop_operation_xyz
  'x, y, z'

loop_
  _atom_site_type_symbol
  _atom_site_label
  _atom_site_symmetry_multiplicity
  _atom_site_fract_x
  _atom_site_fract_y
  _atom_site_fract_z
  _atom_site_occupancy
  Zn  Zn1       1.0  0.057427110932039185  0.4009398186937221  0.4782707969572043  1.0000
  Zn  Zn2       1.0  0.9832711170256516  0.4836810086981558  0.5602046335317395  1.0000
  Zn  Zn3       1.0  0.06029435374593821  0.5601295165670094  0.48163888023432105  1.0000
  Zn  Zn4       1.0  0.8992155088174343  0.5551310846210668  0.4802213049524509  1.0000
  Zn  Zn5       1.0  0.6950651502291051  0.3498536347594268  0.27091594424862814  1.0000
  Zn  Zn6       1.0  0.6910600036651999  0.18924037215899864  0.2671541170646917  1.0000
  Zn  Zn7       1.0  0.7692577875651025  0.2675181725329736  0.18987113688985593  1.0000
  Zn  Zn8       1.0  0.8487880019286677  0.1940299161293523  0.27309750299702523  1.0000
  Zn  Zn9       1.0  0.26576820501473003  0.7677908072844132  0.6895272367900417  1.0000
  Zn  Zn10      1.0  0.34764978645303296  0.6956893294364904  0.7718125180798265  1.0000
  Zn  Zn11      1.0  0.1917697121746471  0.8495405559066781  0.7709986806175377  1.0000
  Zn  Zn12      1.0  0.19074211670520919  0.6877438775186204  0.7667544205981115  1.0000
  Zn  Zn13      1.0  0.5608361164258752  0.06009278820666708  0.9830113951626342  1.0000
  Zn  Zn14      1.0  0.40058420989623034  0.0555219011006684  0.9784813776057458  1.0000
  Zn  Zn15      1.0  0.5549211171293393  0.901918212882336  0.9779482687908112  1.0000
  Zn  Zn16      1.0  0.4833868632772109  0.983720398248067  0.060406450597874084  1.0000
  H   H1        1.0  0.9527073781345906  0.2486151355394527  0.3525788703644323  1.0000
  H   H2        1.0  0.7476294695286967  0.4559081217701503  0.3500399164442455  1.0000
  H   H3        1.0  0.9995107640070839  0.2979607387562029  0.4011133910426493  1.0000
  H   H4        1.0  0.09951616845449249  0.595372935716469  0.6992519744668044  1.0000
  H   H5        1.0  0.2004988730590753  0.7027185155096802  0.596930248744428  1.0000
  H   H6        1.0  0.051848882541996495  0.5486422787752473  0.6497971889351958  1.0000
  H   H7        1.0  0.4647362963139798  0.23876855113171294  0.34117845113767226  1.0000
  H   H8        1.0  0.4790092309381393  0.7039383288434846  0.6016705407461912  1.0000
  H   H9        1.0  0.20159502457322986  0.9803554030559312  0.6005427801830904  1.0000
  H   H10       1.0  0.9483213232848299  0.9692373342455626  0.3498439034075672  1.0000
  H   H11       1.0  0.5492927070448842  0.05195096683906537  0.15271159928659023  1.0000
  H   H12       1.0  0.6545932682489165  0.15174050987761944  0.04871649700825029  1.0000
  H   H13       1.0  0.5982820336430591  0.10124733556270371  0.20007968706556054  1.0000
  H   H14       1.0  0.5462673326879326  0.7708407483575216  0.1483753295320014  1.0000
  H   H15       1.0  0.1618239649773514  0.13959674298320823  0.0408663081556924  1.0000
  H   H16       1.0  0.5009045459962422  0.7979510459417083  0.8976476669674154  1.0000
  H   H17       1.0  0.2938979423174573  0.0032828808078022827  0.8996734902624581  1.0000
  H   H18       1.0  0.45069371696722976  0.7520188656375948  0.849153684149364  1.0000
  H   H19       1.0  0.300391340467037  0.2801927744450835  0.9018683111048204  1.0000
  H   H20       1.0  0.788535954736595  0.00883554122746936  0.909410528970589  1.0000
  H   H21       1.0  0.3256410063138588  0.5410917552911698  0.39920222425491386  1.0000
  H   H22       1.0  0.7556901401850097  0.5392552734695499  0.6852937023156611  1.0000
  H   H23       1.0  0.040456570847076996  0.2562373821926087  0.6836858635299875  1.0000
  H   H24       1.0  0.7441512209797381  0.8118018457626304  0.38759552445833373  1.0000
  H   H25       1.0  0.7094721823878273  0.49243311558866043  0.0663361771238016  1.0000
  H   H26       1.0  0.1482032155556965  0.0759996273441175  0.22126143541498064  1.0000
  H   H27       1.0  0.506859023369806  0.4337847842578311  0.8619909380993318  1.0000
  H   H28       1.0  0.9244618045574737  0.707243103517996  0.851625632293981  1.0000
  C   C1        1.0  0.0629851209903762  0.3170581604175382  0.561725227467086  1.0000
  C   C2        1.0  0.0699772822816769  0.5692086107340444  0.568032558289694  1.0000
  C   C3        1.0  0.18439982705692867  0.43859590030431406  0.4374134063395941  1.0000
  C   C4        1.0  0.9365577867941255  0.6830690150648449  0.43926675874458  1.0000
  C   C5        1.0  0.9304638790139419  0.430057692238826  0.43228377892882713  1.0000
  C   C6        1.0  0.8160766305283574  0.5609246519385704  0.5632589794951598  1.0000
  C   C7        1.0  0.5663792188877322  0.3108963885031031  0.310516654852627  1.0000
  C   C8        1.0  0.6809102632379833  0.18235089756824854  0.18105832620974377  1.0000
  C   C9        1.0  0.6918465266943342  0.4347087170215075  0.1883356150157169  1.0000
  C   C10       1.0  0.9351677477438398  0.18495474013236896  0.19003248471440767  1.0000
  C   C11       1.0  0.8186946928276767  0.32021308522929803  0.31985651509916113  1.0000
  C   C12       1.0  0.8112190935063381  0.06554776701715773  0.3128041671310057  1.0000
  C   C13       1.0  0.43286564248762716  0.6914620923688447  0.6886934309611374  1.0000
  C   C14       1.0  0.3178533640410492  0.8210674458626459  0.8181732814140829  1.0000
  C   C15       1.0  0.18573072127271215  0.934134235211033  0.6875141020464283  1.0000
  C   C16       1.0  0.06707485603662629  0.8085266422611782  0.8122689137506498  1.0000
  C   C17       1.0  0.18132453814360616  0.6801412387792426  0.6800526214909295  1.0000
  C   C18       1.0  0.3138795960170881  0.5647582984814079  0.8105973350135256  1.0000
  C   C19       1.0  0.4379549328472976  0.18391411974103986  0.9386404245086906  1.0000
  C   C20       1.0  0.4297098486423537  0.9315177480668307  0.9303251533453716  1.0000
  C   C21       1.0  0.6840534139126432  0.9392101910349878  0.9382064865764475  1.0000
  C   C22       1.0  0.5605884471991018  0.816715748088171  0.06135365975732298  1.0000
  C   C23       1.0  0.5701120180725141  0.06986811442671832  0.0692557138714278  1.0000
  C   C24       1.0  0.3155778476086795  0.06227407253345523  0.061460118860530585  1.0000
  C   C25       1.0  0.901171750367304  0.40412112856180477  0.40233277434329295  1.0000
  C   C26       1.0  0.8475297846087599  0.34921389798431324  0.3484741386109889  1.0000
  C   C27       1.0  0.830384526628066  0.4479677597758211  0.3873394728071203  1.0000
  C   C28       1.0  0.9187227615638773  0.3045642455611599  0.36268059696794097  1.0000
  C   C29       1.0  0.8030109255463813  0.4213070904318739  0.3610284042668609  1.0000
  C   C30       1.0  0.9446888575679037  0.3319391858765499  0.38937724809476026  1.0000
  C   C31       1.0  0.0979511335459335  0.600131150064847  0.5961315014652442  1.0000
  C   C32       1.0  0.15257740710787  0.6518655032259701  0.6510475188645939  1.0000
  C   C33       1.0  0.13975928976252308  0.6439941128983547  0.5818571726848133  1.0000
  C   C34       1.0  0.110578004289259  0.6085347761706714  0.666121350190039  1.0000
  C   C35       1.0  0.1676227802451535  0.6692820282701034  0.6086041754665387  1.0000
  C   C36       1.0  0.08406331177656058  0.5829348758910201  0.6388217077413357  1.0000
  C   C37       1.0  0.3045410529835522  0.4545751964112555  0.4000572600224713  1.0000
  C   C38       1.0  0.4473617462326374  0.2957912413570226  0.3488130815608059  1.0000
  C   C39       1.0  0.25916354055481616  0.41439357095948987  0.41302033382635966  1.0000
  C   C40       1.0  0.49196294525446393  0.33587032600684097  0.33570572645178487  1.0000
  C   C41       1.0  0.3793104468882831  0.3385433073803412  0.37247987492425944  1.0000
  C   C42       1.0  0.3734025385116268  0.4107581406901915  0.37680863737293174  1.0000
  C   C43       1.0  0.7258611757547655  0.5756565277388074  0.6310989706815348  1.0000
  C   C44       1.0  0.5237044342079925  0.6749588485326896  0.6218330650085662  1.0000
  C   C45       1.0  0.7419724905492515  0.5856447008800669  0.588361037330003  1.0000
  C   C46       1.0  0.5079199908500698  0.6655856029396434  0.6642172175699483  1.0000
  C   C47       1.0  0.6030295138853248  0.6426040454152115  0.6095972371328597  1.0000
  C   C48       1.0  0.6461021354383901  0.6086766946380353  0.6431290863119867  1.0000
  C   C49       1.0  0.0768759809672233  0.22665436791354668  0.6295582513088788  1.0000
  C   C50       1.0  0.17257140321471806  0.024899144139936904  0.6205860619440172  1.0000
  C   C51       1.0  0.0869379953720255  0.24293057764040066  0.5867989781041912  1.0000
  C   C52       1.0  0.1617565182933731  0.009111352133743382  0.6629290278011765  1.0000
  C   C53       1.0  0.14132870439310347  0.10408266008565899  0.6082440754133671  1.0000
  C   C54       1.0  0.10786268050214427  0.14698221830303032  0.6416684245560801  1.0000
  C   C55       1.0  0.8422416028077393  0.7992740144057608  0.3976004935221907  1.0000
  C   C56       1.0  0.9038995547316871  0.9488472072467998  0.35395551301633776  1.0000
  C   C57       1.0  0.9109740913646077  0.7575550947730607  0.41457643553504636  1.0000
  C   C58       1.0  0.8356180952310837  0.9905336318723599  0.33738509899694674  1.0000
  C   C59       1.0  0.9065751732541754  0.8792353161640277  0.3759327028724541  1.0000
  C   C60       1.0  0.839986790516775  0.8691437490903269  0.37550831553315317  1.0000
  C   C61       1.0  0.6546032920619139  0.1526128080852728  0.151477009337242  1.0000
  C   C62       1.0  0.5990525978670718  0.09872490147585472  0.0979226634826844  1.0000
  C   C63       1.0  0.6701224245933018  0.16581362331819338  0.10860103260542076  1.0000
  C   C64       1.0  0.5832304855997137  0.08422453915323293  0.14062547867976594  1.0000
  C   C65       1.0  0.6424523398379589  0.14022486337594134  0.08188152868529389  1.0000
  C   C66       1.0  0.6105099489171479  0.11130237271630951  0.16682210584550455  1.0000
  C   C67       1.0  0.6757528263822864  0.5242481499906828  0.1202133254025597  1.0000
  C   C68       1.0  0.5755597659292135  0.7261687144756266  0.12841856438243573  1.0000
  C   C69       1.0  0.6661807216030553  0.5086138103293931  0.16304315429117366  1.0000
  C   C70       1.0  0.58552585392151  0.7417652288555701  0.08601748449613209  1.0000
  C   C71       1.0  0.6079868964825436  0.647093660676802  0.14098995846399018  1.0000
  C   C72       1.0  0.6422562465556895  0.6038224034221283  0.10773390639131723  1.0000
  C   C73       1.0  0.08212249588350319  0.12255656735031549  0.17894418019474756  1.0000
  C   C74       1.0  0.16969460131236494  0.12367999621985602  0.07330841372447588  1.0000
  C   C75       1.0  0.0098671523432827  0.1600591731072853  0.16548841040194867  1.0000
  C   C76       1.0  0.241227477851865  0.0864660189853552  0.08670306491384851  1.0000
  C   C77       1.0  0.1115085315784796  0.13694384636231396  0.10676083994025017  1.0000
  C   C78       1.0  0.14018865013208884  0.10947813795410609  0.14513904849412995  1.0000
  C   C79       1.0  0.3444547119694192  0.8504042418310075  0.8477827542434823  1.0000
  C   C80       1.0  0.400484615262421  0.9032044422479403  0.9015541256078803  1.0000
  C   C81       1.0  0.3010013819027364  0.9210011730268021  0.8626384184758035  1.0000
  C   C82       1.0  0.4447758024476869  0.8321929844777497  0.8874769681737859  1.0000
  C   C83       1.0  0.3282654959440947  0.9480416417636733  0.8888164456120148  1.0000
  C   C84       1.0  0.4169437267477747  0.8066897028757296  0.8607712985447689  1.0000
  C   C85       1.0  0.40795948560871403  0.4485341327024484  0.8524489629800056  1.0000
  C   C86       1.0  0.3450355286208691  0.30035666804744193  0.8973894033731822  1.0000
  C   C87       1.0  0.33910333663918374  0.49065055252763307  0.8356880343878499  1.0000
  C   C88       1.0  0.41351627099098204  0.25864143640706777  0.91375693578901  1.0000
  C   C89       1.0  0.34269703825280823  0.3695892936496532  0.8750266987360573  1.0000
  C   C90       1.0  0.4097431607400992  0.37913271374844726  0.8749073796932902  1.0000
  C   C91       1.0  0.9460164876752372  0.7937927288368556  0.8492951742771309  1.0000
  C   C92       1.0  0.8049486953599185  0.9523154688410285  0.901312348241781  1.0000
  C   C93       1.0  0.9926291919058556  0.8327531620925154  0.8370546879829914  1.0000
  C   C94       1.0  0.7588793887298948  0.9136108866521583  0.913434484101387  1.0000
  C   C95       1.0  0.8732250655094872  0.908929267643387  0.8779909904298647  1.0000
  C   C96       1.0  0.8776535249253428  0.8377298524183627  0.8727682694686149  1.0000
  S   S1        1.0  0.3008195622134622  0.3238741894139067  0.39714565189809986  1.0000
  S   S2        1.0  0.45171781194470373  0.42577261546733774  0.3520119684938833  1.0000
  S   S3        1.0  0.6602178886342073  0.6347610237568304  0.563273287662092  1.0000
  S   S4        1.0  0.5891594945204587  0.6171473124319107  0.6896339368168752  1.0000
  S   S5        1.0  0.1340235755503869  0.16132887660849354  0.5618515886236394  1.0000
  S   S6        1.0  0.11401517486292077  0.09005842595774279  0.6881771387930228  1.0000
  S   S7        1.0  0.9718388252942987  0.8035579142224734  0.4036820107545154  1.0000
  S   S8        1.0  0.7740777892280305  0.94543461900826  0.34829598229963205  1.0000
  S   S9        1.0  0.6163399532952383  0.590447827491097  0.18759498885587075  1.0000
  S   S10       1.0  0.6343816511047037  0.6604837591336191  0.06105622856755126  1.0000
  S   S11       1.0  0.013287217857879298  0.17863440539656486  0.11199922578508385  1.0000
  S   S12       1.0  0.23849039349235576  0.06730763042135374  0.14005641496569146  1.0000
  S   S13       1.0  0.27730966904561427  0.4456509526334003  0.8475385691672341  1.0000
  S   S14       1.0  0.4755709239565959  0.3030757776564741  0.9022299855744434  1.0000
  S   S15       1.0  0.9530233681986643  0.922070388626288  0.8542981711945216  1.0000
  S   S16       1.0  0.7980257698523586  0.824167129773485  0.8965716971258927  1.0000
  N   N1        1.0  0.7811524152211504  0.5265150033986641  0.3972213846047267  1.0000
  N   N2        1.0  0.15483598572132  0.6686505557266003  0.5375210746772366  1.0000
  N   N3        1.0  0.7189488242226147  0.2056498278129837  0.08877642480464228  1.0000
  N   N4        1.0  0.2222288507393273  0.9703646860224355  0.8526755677979023  1.0000
  O   O1        1.0  0.00032231725537460023  0.4994201767945085  0.4998963279770832  1.0000
  O   O2        1.0  0.07408217007603211  0.3158256463546748  0.5225798763534683  1.0000
  O   O3        1.0  0.023238172436308  0.5405216025069494  0.5849325619279567  1.0000
  O   O4        1.0  0.1528089537254544  0.5069286702422813  0.44599012808966165  1.0000
  O   O5        1.0  0.0336467505165032  0.3758650764090135  0.5806894562217763  1.0000
  O   O6        1.0  0.1571132539121507  0.38835461844469416  0.44788841395278195  1.0000
  O   O7        1.0  0.0960986699547135  0.5733635577572044  0.5302270979820917  1.0000
  O   O8        1.0  0.0012025133567093002  0.6595072015100313  0.45292497917598934  1.0000
  O   O9        1.0  0.8828666527108949  0.4880562573795899  0.44938650948093783  1.0000
  O   O10       1.0  0.8933392932486868  0.6482083536287606  0.4449834307002262  1.0000
  O   O11       1.0  7.588650912990005e-05  0.39084369545494724  0.43824210101052313  1.0000
  O   O12       1.0  0.8752247767151217  0.5213713242585456  0.5817863073880145  1.0000
  O   O13       1.0  0.8144488097868814  0.5815950134709594  0.5244181050160606  1.0000
  O   O14       1.0  0.7505658548031774  0.2500620442077732  0.2503548230589701  1.0000
  O   O15       1.0  0.5981380415635228  0.3572000760111536  0.30328433789782133  1.0000
  O   O16       1.0  0.6715668964522195  0.15776110468431875  0.21894446331691597  1.0000
  O   O17       1.0  0.7318485332834754  0.3759460672731051  0.1698972866769637  1.0000
  O   O18       1.0  0.5924779783841743  0.24549565464329248  0.29813403462981813  1.0000
  O   O19       1.0  0.6716784296358327  0.43598253542155163  0.22725291750436577  1.0000
  O   O20       1.0  0.7090708660632216  0.22998359073466892  0.16581128740482848  1.0000
  O   O21       1.0  0.8772435776633573  0.21676273450906056  0.16960609889631675  1.0000
  O   O22       1.0  0.8613616212615937  0.25353851122413557  0.3102299724420091  1.0000
  O   O23       1.0  0.9339042884208765  0.17340615136140505  0.22911089990603273  1.0000
  O   O24       1.0  0.7541158490636661  0.3647007186900665  0.307627581514005  1.0000
  O   O25       1.0  0.744479111137224  0.09341270598289943  0.3012446729534232  1.0000
  O   O26       1.0  0.8583046977347025  0.09632314713138597  0.30515268329907735  1.0000
  O   O27       1.0  0.24895405894595504  0.7504390420504237  0.749804554983413  1.0000
  O   O28       1.0  0.37470145297913143  0.723842294754199  0.6688618582215965  1.0000
  O   O29       1.0  0.3583522206661414  0.752161390793908  0.8116776353826224  1.0000
  O   O30       1.0  0.1660777788120313  0.9339346292664815  0.7263632343026954  1.0000
  O   O31       1.0  0.432888776160496  0.6790749183648542  0.727873477875711  1.0000
  O   O32       1.0  0.223836185278067  0.8762090089839986  0.6680551247486333  1.0000
  O   O33       1.0  0.25817913775595264  0.8675409337791815  0.8018486542290686  1.0000
  O   O34       1.0  0.09846870992318908  0.855355803148356  0.8061226337449268  1.0000
  O   O35       1.0  0.1666605368306762  0.6617777889351756  0.7183586909709587  1.0000
  O   O36       1.0  0.094042818583091  0.744004350743964  0.7989440366488977  1.0000
  O   O37       1.0  0.2178650071835051  0.7203292996081316  0.6638099842118733  1.0000
  O   O38       1.0  0.3601142954886996  0.5964767118511531  0.8019189342114001  1.0000
  O   O39       1.0  0.2467587781617055  0.5912135126086753  0.7995468162938336  1.0000
  O   O40       1.0  0.49994457277722404  0.00031431846354475803  0.9999654988149229  1.0000
  O   O41       1.0  0.5045599840554189  0.15661168128650618  0.9502562522139113  1.0000
  O   O42       1.0  0.38598590377871733  0.9966865201046461  0.9417110415798715  1.0000
  O   O43       1.0  0.6521985620574213  0.892883648880186  0.9456223891020838  1.0000
  O   O44       1.0  0.3909456570143774  0.15307741779933068  0.9463686981862336  1.0000
  O   O45       1.0  0.6575768054193389  0.004946193773051216  0.9501536526684474  1.0000
  O   O46       1.0  0.49574774650447057  0.8879196736063337  0.9409772395342271  1.0000
  O   O47       1.0  0.5758937168677534  0.816806142372968  0.022246502505460255  1.0000
  O   O48       1.0  0.5315459926446665  0.03179951564176517  0.08575808949824186  1.0000
  O   O49       1.0  0.5261836363524921  0.8748026604090028  0.08096466329855898  1.0000
  O   O50       1.0  0.5866550253846655  0.0857619434455187  0.030835554880894706  1.0000
  O   O51       1.0  0.3149846048111939  0.0773208654418766  0.022470166661889807  1.0000
  O   O52       1.0  0.3744236737728386  0.028010040678175585  0.08097048992655688  1.0000
  O   O53       1.0  0.8012858511650549  0.5768952505772659  0.37954728460213966  1.0000
  O   O54       1.0  0.7216268130371403  0.535747266949947  0.4203704241999659  1.0000
  O   O55       1.0  0.10084199967118218  0.7205016999057318  0.5210448321275221  1.0000
  O   O56       1.0  0.2212938769462411  0.6383837416712552  0.5213698144018223  1.0000
  O   O57       1.0  0.7883861020470846  0.1693103781337583  0.08961269228957747  1.0000
  O   O58       1.0  0.6864013740582564  0.2703380559456574  0.0709253292066307  1.0000
  O   O59       1.0  0.1715829477054598  0.9508173447612269  0.8706674028525679  1.0000
  O   O60       1.0  0.21322922653284587  0.029279142947793012  0.8289981089897507  1.0000
  O   O61       1.0  0.2839221907809844  0.5257635509127069  0.4089818101319266  1.0000
  O   O62       1.0  0.780301469250972  0.5393121379502259  0.6570834050549975  1.0000
  O   O63       1.0  0.0415300293739449  0.28082963800750355  0.6554652569269023  1.0000
  O   O64       1.0  0.7862744767138068  0.7748212584419463  0.4024742950052909  1.0000
  O   O65       1.0  0.7123829112479854  0.4694026124714765  0.09488724626648797  1.0000
  O   O66       1.0  0.09361621105615818  0.10194419959549353  0.21919000124729845  1.0000
  O   O67       1.0  0.4647510758892466  0.47204874781926504  0.8475146083618694  1.0000
  O   O68       1.0  0.9650178889102816  0.7232986218607708  0.8396215478661302  1.0000
