data_image0
_chemical_formula_structural       Cu8H24C16O24
_chemical_formula_sum              "Cu8 H24 C16 O24"
_cell_length_a       9.624719582174935
_cell_length_b       10.41235809663642
_cell_length_c       12.314165568938176
_cell_angle_alpha    111.49838188344542
_cell_angle_beta     106.39406455762503
_cell_angle_gamma    93.15012282903388

_space_group_name_H-M_alt    "P 1"
_space_group_IT_number       1

loop_
  _space_group_symop_operation_xyz
  'x, y, z'

loop_
  _atom_site_type_symbol
  _atom_site_label
  _atom_site_symmetry_multiplicity
  _atom_site_fract_x
  _atom_site_fract_y
  _atom_site_fract_z
  _atom_site_occupancy
  Cu  Cu1       1.0  0.6430663648702294  0.9925718065081387  0.6017151025420305  1.0000
  Cu  Cu2       1.0  0.9338891321078224  0.11249616690113841  0.5907177900101033  1.0000
  Cu  Cu3       1.0  0.7614025700200315  0.7953896267947514  0.41638790089146493  1.0000
  Cu  Cu4       1.0  0.33765494719860817  0.8976312724431142  0.6068212520637177  1.0000
  Cu  Cu5       1.0  0.3569378236838716  0.007440461975036799  0.39828083182789  1.0000
  Cu  Cu6       1.0  0.06611477959718584  0.8875097892179586  0.4092785758051321  1.0000
  Cu  Cu7       1.0  0.2386113857522645  0.20461716086961707  0.5836287668515469  1.0000
  Cu  Cu8       1.0  0.6623416655802074  0.10236117067616142  0.3931661182137987  1.0000
  H   H1        1.0  0.6612782464989879  0.48051311138441133  0.0434695883544621  1.0000
  H   H2        1.0  0.6025269180022191  0.6090798711785297  0.9874129397942115  1.0000
  H   H3        1.0  0.12767724659562418  0.42112051436171777  0.4826794192884165  1.0000
  H   H4        1.0  0.9655708186871977  0.4130148832061451  0.3610924343270696  1.0000
  H   H5        1.0  0.35536790689234715  0.013582853565608802  0.031642343720420685  1.0000
  H   H6        1.0  0.476059233972819  0.1536762058252279  0.04305618067638758  1.0000
  H   H7        1.0  0.3742516787635424  0.5847637024203323  0.5149582955386692  1.0000
  H   H8        1.0  0.5189044382124948  0.587452069957216  0.6374915717201689  1.0000
  H   H9        1.0  0.8902709306049488  0.9082259283113531  0.6593208042232066  1.0000
  H   H10       1.0  0.1727896319646263  0.069523249945739  0.7040014333890668  1.0000
  H   H11       1.0  0.725413252101596  0.25078876680136375  0.6319624843736378  1.0000
  H   H12       1.0  0.48435302091265  0.1451397260492016  0.6977714377539288  1.0000
  H   H13       1.0  0.33872638161444973  0.5195012438148867  0.9565246480345027  1.0000
  H   H14       1.0  0.39747715984739784  0.3909366529288081  0.01259159040895955  1.0000
  H   H15       1.0  0.8723367817762836  0.5788672040581633  0.51731433549935  1.0000
  H   H16       1.0  0.03443156774626034  0.5869742214615031  0.6388951604782704  1.0000
  H   H17       1.0  0.6445982548966711  0.9863693417135694  0.968324394001009  1.0000
  H   H18       1.0  0.5239116182784683  0.8462769988104598  0.956933812300484  1.0000
  H   H19       1.0  0.6257519087808986  0.41526026126639  0.48505735320707555  1.0000
  H   H20       1.0  0.4810931992357581  0.4125742138032535  0.3625308092362403  1.0000
  H   H21       1.0  0.1097414766125411  0.09178402224875981  0.3406851326658257  1.0000
  H   H22       1.0  0.8272083146529925  0.9304702259495344  0.29599060498045315  1.0000
  H   H23       1.0  0.2745968843742333  0.749215944243602  0.3680340367212694  1.0000
  H   H24       1.0  0.5156476533412119  0.8548610860694198  0.3022307615279588  1.0000
  C   C1        1.0  0.5871364261883231  0.6496393684655647  0.16410456756575104  1.0000
  C   C2        1.0  0.5761478499109102  0.5454322255260209  0.03590058706440401  1.0000
  C   C3        1.0  0.9276691676992641  0.3128895923212838  0.47622446006121083  1.0000
  C   C4        1.0  0.010192071066448743  0.42775481815252203  0.45816107870047074  1.0000
  C   C5        1.0  0.355182605021362  0.016155263534720597  0.85919502636812  1.0000
  C   C6        1.0  0.43627135518330823  0.039956084686558306  0.9921685815730967  1.0000
  C   C7        1.0  0.5784180677831827  0.6922795575540308  0.5332623194491078  1.0000
  C   C8        1.0  0.49028124504399545  0.5719719706841246  0.5400386301803907  1.0000
  C   C9        1.0  0.4128781260751353  0.3503652769362945  0.8359083212942695  1.0000
  C   C10       1.0  0.4238731046552218  0.45460177712128313  0.9641235478175574  1.0000
  C   C11       1.0  0.07233251605705965  0.6870963572919919  0.5237595739675527  1.0000
  C   C12       1.0  0.9898088085210475  0.5722470289974312  0.5418382356749376  1.0000
  C   C13       1.0  0.6448074093339359  0.9838215842746438  0.14079422808391953  1.0000
  C   C14       1.0  0.5636997045760594  0.960003392344923  0.007811207561637308  1.0000
  C   C15       1.0  0.4215930747669177  0.3077494278683304  0.46675001936625904  1.0000
  C   C16       1.0  0.5097159725242194  0.42803744604678684  0.45997927529899846  1.0000
  O   O1        1.0  0.7079496263995396  0.6601127349754209  0.24823862176761236  1.0000
  O   O2        1.0  0.4854838650143519  0.7182766463798272  0.1799862222527437  1.0000
  O   O3        1.0  0.0005660880371323199  0.2744641016272666  0.5603160910390345  1.0000
  O   O4        1.0  0.7940961429741122  0.2662701914920191  0.40939204883505914  1.0000
  O   O5        1.0  0.2387264200936912  0.06495760983131758  0.8343310283708051  1.0000
  O   O6        1.0  0.4165428930302185  0.946661029068281  0.7810455250608116  1.0000
  O   O7        1.0  0.6525966347513333  0.6645306078832648  0.45969453553955486  1.0000
  O   O8        1.0  0.5680018223288812  0.8149791592419648  0.6040194224536465  1.0000
  O   O9        1.0  0.8377315100080622  0.940371700616737  0.5968057177982118  1.0000
  O   O10       1.0  0.12921087348684068  0.06666965591693243  0.6164098949742396  1.0000
  O   O11       1.0  0.7326194888735172  0.15668137998333265  0.5799704275804061  1.0000
  O   O12       1.0  0.46278707988295054  0.05919261595797561  0.6163757497842541  1.0000
  O   O13       1.0  0.29202929519700405  0.3398876767509123  0.7517595453041964  1.0000
  O   O14       1.0  0.5145345883579678  0.28172580336381975  0.8200341455901139  1.0000
  O   O15       1.0  0.9994364450312363  0.7255303236720895  0.43968454399069423  1.0000
  O   O16       1.0  0.2059023320535616  0.7337306584441875  0.5906031881138816  1.0000
  O   O17       1.0  0.7612676290190307  0.9350328276883959  0.16566166431793045  1.0000
  O   O18       1.0  0.5834513209672066  0.05333042016793851  0.21893858215663903  1.0000
  O   O19       1.0  0.347408654845367  0.33547117029288404  0.5403203322345576  1.0000
  O   O20       1.0  0.43199323285811175  0.1850355526551439  0.3959890879555488  1.0000
  O   O21       1.0  0.1622736986907896  0.05963003092975331  0.4031977488462744  1.0000
  O   O22       1.0  0.8707874446090144  0.9333354229979139  0.3835874228767368  1.0000
  O   O23       1.0  0.2673861362709928  0.8433224249565257  0.420028083617517  1.0000
  O   O24       1.0  0.5372138481063402  0.9408144952019554  0.3836227605867037  1.0000
