data_image0
_chemical_formula_structural       Rb4H32C28N4O24
_chemical_formula_sum              "Rb4 H32 C28 N4 O24"
_cell_length_a       5.803752689784642
_cell_length_b       7.023989166146028
_cell_length_c       24.273285356650153
_cell_angle_alpha    90.00138086234433
_cell_angle_beta     94.94396637940416
_cell_angle_gamma    90.00122979737915

_space_group_name_H-M_alt    "P 1"
_space_group_IT_number       1

loop_
  _space_group_symop_operation_xyz
  'x, y, z'

loop_
  _atom_site_type_symbol
  _atom_site_label
  _atom_site_symmetry_multiplicity
  _atom_site_fract_x
  _atom_site_fract_y
  _atom_site_fract_z
  _atom_site_occupancy
  Rb  Rb1       1.0  0.24718815653738352  0.313106939219935  0.022077423550285896  1.0000
  Rb  Rb2       1.0  0.2528279201066468  0.8131177664250304  0.4779240862285761  1.0000
  Rb  Rb3       1.0  0.7528273295629333  0.6868804031466172  0.9779228492882127  1.0000
  Rb  Rb4       1.0  0.7471806079852853  0.1868994735394196  0.5220789216125397  1.0000
  H   H1        1.0  0.21732374840169644  0.6088713564940422  0.6785529458803552  1.0000
  H   H2        1.0  0.282658441766003  0.10886409382287351  0.821446461226259  1.0000
  H   H3        1.0  0.782679608651037  0.3911373412211746  0.321448715301365  1.0000
  H   H4        1.0  0.7173328379923447  0.8911303667804945  0.1785528814792272  1.0000
  H   H5        1.0  0.40476519753246976  0.6297922113138698  0.7753306006508183  1.0000
  H   H6        1.0  0.09521940529559457  0.12979694820546686  0.7246681828475943  1.0000
  H   H7        1.0  0.5952485417470824  0.3701994021651558  0.2246708707426279  1.0000
  H   H8        1.0  0.9047684214265388  0.8702003597362026  0.2753306739716592  1.0000
  H   H9        1.0  0.8036719750701025  0.3734491710944924  0.8368180536682672  1.0000
  H   H10       1.0  0.696298864547657  0.8734520093845863  0.6631735373058731  1.0000
  H   H11       1.0  0.19634003489866095  0.6265509845240447  0.1631833807365126  1.0000
  H   H12       1.0  0.3036855499034843  0.1265524168555601  0.33682195066986514  1.0000
  H   H13       1.0  0.6188004610048595  0.3507529590484424  0.7392372567758017  1.0000
  H   H14       1.0  0.8811679149975687  0.8507566365936299  0.7607545321683064  1.0000
  H   H15       1.0  0.38119941971071813  0.6492557386871456  0.2607655659222701  1.0000
  H   H16       1.0  0.11881827536624459  0.1492449421428503  0.239237697990923  1.0000
  H   H17       1.0  0.3677588532646822  0.026717417430518302  0.9194152935640859  1.0000
  H   H18       1.0  0.13221718976142677  0.5267452852534475  0.580587106115324  1.0000
  H   H19       1.0  0.6322410968739832  0.9732699247184161  0.0805825868097472  1.0000
  H   H20       1.0  0.8677705383771867  0.4732676835888584  0.41941875227308156  1.0000
  H   H21       1.0  0.10236240263822788  0.9689388668905395  0.9112951463377925  1.0000
  H   H22       1.0  0.3976106189481214  0.46895857125997514  0.5887045632412509  1.0000
  H   H23       1.0  0.8976358239120754  0.031051322611595808  0.0887022851717632  1.0000
  H   H24       1.0  0.602378861893591  0.5310543975303477  0.41129968475542716  1.0000
  H   H25       1.0  0.2831234553253523  0.7912098956301181  0.050171990660487595  1.0000
  H   H26       1.0  0.21688673025305147  0.2912206080058795  0.4498292374149884  1.0000
  H   H27       1.0  0.7168816890163825  0.20878029393157505  0.949825588936875  1.0000
  H   H28       1.0  0.7831165979362138  0.7088009030245387  0.5501744830837509  1.0000
  H   H29       1.0  0.25687466839487166  0.8227654815448063  0.985888420395696  1.0000
  H   H30       1.0  0.24311438652264877  0.3227866880551177  0.51411265363447  1.0000
  H   H31       1.0  0.7431322111400006  0.17722043693785855  0.014108784353567199  1.0000
  H   H32       1.0  0.7568785590971315  0.6772305518254741  0.4858912565693316  1.0000
  C   C1        1.0  0.9042784588696192  0.4820338128696592  0.7034791715741023  1.0000
  C   C2        1.0  0.5957062012676743  0.9820260172100532  0.7965163706317212  1.0000
  C   C3        1.0  0.0957197098166915  0.5179734611084756  0.2965223785362099  1.0000
  C   C4        1.0  0.40428684865806014  0.017969866983570202  0.2034801261273245  1.0000
  C   C5        1.0  0.12738690030424488  0.5581316751444946  0.7132391548106298  1.0000
  C   C6        1.0  0.3726006025029633  0.05812013339733111  0.786758357554355  1.0000
  C   C7        1.0  0.8726129745975157  0.44187702260780526  0.2867640797408626  1.0000
  C   C8        1.0  0.627401094593523  0.9418714797935481  0.21323832429781928  1.0000
  C   C9        1.0  0.23286334168707865  0.5696252927805504  0.7667974180855666  1.0000
  C   C10       1.0  0.2671141592552643  0.06962341901756022  0.7331995498982593  1.0000
  C   C11       1.0  0.767140015160052  0.43037059170304565  0.23320424304623089  1.0000
  C   C12       1.0  0.7328719496466362  0.9303738888757851  0.2667984461921975  1.0000
  C   C13       1.0  0.11219070362295007  0.5043313279033229  0.8103711476042861  1.0000
  C   C14       1.0  0.38779337818603205  0.004327774660453101  0.6896234373994191  1.0000
  C   C15       1.0  0.8878230124470433  0.49566313302737813  0.1896319712139345  1.0000
  C   C16       1.0  0.6122031364720754  0.9956695332386406  0.3103727215556589  1.0000
  C   C17       1.0  0.8919645167268444  0.4236392818679776  0.8018226781523055  1.0000
  C   C18       1.0  0.6080096339494858  0.92364075517375  0.6981714002220087  1.0000
  C   C19       1.0  0.1080423106436257  0.5763566026119665  0.198178233316554  1.0000
  C   C20       1.0  0.3919782334921821  0.07635797634328872  0.3018245736288634  1.0000
  C   C21       1.0  0.7902903552555784  0.4119378201551883  0.747910348188924  1.0000
  C   C22       1.0  0.7096782605357035  0.911933866291875  0.752081468645315  1.0000
  C   C23       1.0  0.20971126648979777  0.5880680301770483  0.25209168781317  1.0000
  C   C24       1.0  0.2903148184134068  0.088059170433354  0.24791296883554284  1.0000
  C   C25       1.0  0.7808280426116027  0.4832534690368108  0.6459841148667849  1.0000
  C   C26       1.0  0.7191480210239476  0.9832437223264848  0.8540104280192509  1.0000
  C   C27       1.0  0.21917010865611528  0.5167552286838913  0.3540186708093316  1.0000
  C   C28       1.0  0.2808502113630169  0.016747890851334504  0.1459865916424334  1.0000
  N   N1        1.0  0.2207767370808966  0.5204805612822981  0.8668168063554873  1.0000
  N   N2        1.0  0.2791887697677211  0.020506324680447104  0.6331824396081203  1.0000
  N   N3        1.0  0.7792248783937694  0.4794968152186244  0.1331856413890762  1.0000
  N   N4        1.0  0.7207956099833055  0.9795094911992238  0.3668155195325014  1.0000
  O   O1        1.0  0.23038728709571638  0.0027749655342504  0.9402077436076867  1.0000
  O   O2        1.0  0.2695879992491824  0.5028061142671235  0.5597936458013351  1.0000
  O   O3        1.0  0.7696143982360792  0.9972081055356555  0.05978976191804009  1.0000
  O   O4        1.0  0.730398005278225  0.4972082782359737  0.44021176371724385  1.0000
  O   O5        1.0  0.2662848726536425  0.7203326438628181  0.0147288907280014  1.0000
  O   O6        1.0  0.2337230325906035  0.22034792582890367  0.48527219689358253  1.0000
  O   O7        1.0  0.733725459985976  0.2796546983587477  0.9852687999241283  1.0000
  O   O8        1.0  0.766280301389635  0.7796721614923996  0.5147311117461938  1.0000
  O   O9        1.0  0.587307130970707  0.39946028041499915  0.6392349807840034  1.0000
  O   O10       1.0  0.9126731847905417  0.8994611968157428  0.8607574098425772  1.0000
  O   O11       1.0  0.4126892849896535  0.6005455699227227  0.3607681797124869  1.0000
  O   O12       1.0  0.08732854144354717  0.10053468736875001  0.1392372127591344  1.0000
  O   O13       1.0  0.8786154668771431  0.5731916261862793  0.6086485842706537  1.0000
  O   O14       1.0  0.6213577321592254  0.0731704732748142  0.8913487511618357  1.0000
  O   O15       1.0  0.12137059567416489  0.42681564768762575  0.3913527066859999  1.0000
  O   O16       1.0  0.3786353059789747  0.9268154451054401  0.1086485692652204  1.0000
  O   O17       1.0  0.42069419638168876  0.5852575416677727  0.873606811677675  1.0000
  O   O18       1.0  0.0792976188750032  0.08527538714815111  0.6263922217897004  1.0000
  O   O19       1.0  0.5793264604151531  0.4147169875619954  0.1263948077370145  1.0000
  O   O20       1.0  0.9206850252716876  0.9147190733473284  0.37360611209918915  1.0000
  O   O21       1.0  0.10807341192774092  0.46723800721321856  0.9053039265612028  1.0000
  O   O22       1.0  0.3919065428228449  0.9672696191881305  0.5946909756567251  1.0000
  O   O23       1.0  0.8919507212976328  0.5327422167657831  0.09469653135931819  1.0000
  O   O24       1.0  0.6080882372589258  0.032770399484839216  0.40530555829624143  1.0000
