data_image0
_chemical_formula_structural       Co3P4H34C18N4O18
_chemical_formula_sum              "Co3 P4 H34 C18 N4 O18"
_cell_length_a       7.995529352608049
_cell_length_b       9.356666620626907
_cell_length_c       10.150380091821692
_cell_angle_alpha    93.4289620522553
_cell_angle_beta     97.69091739913343
_cell_angle_gamma    101.68613927840198

_space_group_name_H-M_alt    "P 1"
_space_group_IT_number       1

loop_
  _space_group_symop_operation_xyz
  'x, y, z'

loop_
  _atom_site_type_symbol
  _atom_site_label
  _atom_site_symmetry_multiplicity
  _atom_site_fract_x
  _atom_site_fract_y
  _atom_site_fract_z
  _atom_site_occupancy
  Co  Co1       1.0  0.5004939059436211  0.4997033507816582  0.4999054337900758  1.0000
  Co  Co2       1.0  0.9076133454820334  0.3452822789931175  0.5163733263639969  1.0000
  Co  Co3       1.0  0.09220828396627917  0.6546130936129229  0.4833937475766062  1.0000
  P   P1        1.0  0.24492707864699526  0.4472606176132173  0.7211085627435166  1.0000
  P   P2        1.0  0.7550216339554296  0.5527617281711555  0.2787337070071345  1.0000
  P   P3        1.0  0.223515979354616  0.20038851667713686  0.49513955598550297  1.0000
  P   P4        1.0  0.7764982121412771  0.7995139383970978  0.5048328497926988  1.0000
  H   H1        1.0  0.947501087233917  0.10314231044349499  0.6302225743513502  1.0000
  H   H2        1.0  0.05255400789835811  0.8967846415167812  0.369675994145588  1.0000
  H   H3        1.0  0.4519695285997259  0.3873081553667461  0.1945834738426058  1.0000
  H   H4        1.0  0.5478423207376791  0.6128128794369231  0.805211674727367  1.0000
  H   H5        1.0  0.13513071791435735  0.9485034224091958  0.6571025821354721  1.0000
  H   H6        1.0  0.8649387448270787  0.0514297768700303  0.3428656131472891  1.0000
  H   H7        1.0  0.04624015097724761  0.9748952130833287  0.8025547882599396  1.0000
  H   H8        1.0  0.9537129191324498  0.025137293593886098  0.19731597983781055  1.0000
  H   H9        1.0  0.2625478216386554  0.785081597635518  0.7891556490473164  1.0000
  H   H10       1.0  0.7374452602179461  0.21495515858096326  0.21100280754277626  1.0000
  H   H11       1.0  0.2777704091567159  0.8957770687954535  0.9386513465001725  1.0000
  H   H12       1.0  0.722137384490388  0.1044039319643275  0.061408877464664564  1.0000
  H   H13       1.0  0.560157005083724  0.006033689664512599  0.9123511459659139  1.0000
  H   H14       1.0  0.43979734429881745  0.9940722632268476  0.08773919459905238  1.0000
  H   H15       1.0  0.5374580355335609  0.9174928473783194  0.7514912940499414  1.0000
  H   H16       1.0  0.4625445818459752  0.0824858412540053  0.24865726670342525  1.0000
  H   H17       1.0  0.5559522257739787  0.21975780384751428  0.7896860494471339  1.0000
  H   H18       1.0  0.44404638541718805  0.7802269459651469  0.21020920340436072  1.0000
  H   H19       1.0  0.4522793345704272  0.10917116008774029  0.6455825732409579  1.0000
  H   H20       1.0  0.5477374472497871  0.8906863066539824  0.3543769915410023  1.0000
  H   H21       1.0  0.546752186179866  0.3248371606584186  0.9753501414458512  1.0000
  H   H22       1.0  0.4531529531986108  0.6752050919743268  0.02452358938024449  1.0000
  H   H23       1.0  0.126595088956968  0.2745464770560133  0.1927139642972548  1.0000
  H   H24       1.0  0.8732144560780313  0.7256235816856031  0.8070617354122334  1.0000
  H   H25       1.0  0.010518267298351694  0.13359827153117007  0.9387467099450006  1.0000
  H   H26       1.0  0.9894251488520995  0.8664051312667523  0.06106456670153903  1.0000
  H   H27       1.0  0.17946726622540146  0.4272097063905349  0.3819862101270175  1.0000
  H   H28       1.0  0.821005850628758  0.5730362327013053  0.6187895824849219  1.0000
  H   H29       1.0  0.2718225120606165  0.5529911942686355  0.29566248824720986  1.0000
  H   H30       1.0  0.7284671789570112  0.44709362451279594  0.7050312116639431  1.0000
  H   H31       1.0  0.5777741673794025  0.21233946628837688  0.4742346823788637  1.0000
  H   H32       1.0  0.42214330441139947  0.7872983849138179  0.5258831371874351  1.0000
  H   H33       1.0  0.7082772887033998  0.09240473257415968  0.49750477590493597  1.0000
  H   H34       1.0  0.2918611061686958  0.9073639665163422  0.502616286214284  1.0000
  C   C1        1.0  0.1871842282537415  0.24007216397685474  0.674226367733091  1.0000
  C   C2        1.0  0.8128373642129817  0.7598993996975453  0.32565753790840546  1.0000
  C   C3        1.0  0.27143963004986205  0.14555504217532436  0.7750041655171174  1.0000
  C   C4        1.0  0.7285442250252385  0.8544362415241621  0.22489202267110633  1.0000
  C   C5        1.0  0.1685654061713038  0.9860022944778494  0.7629685786675963  1.0000
  C   C6        1.0  0.8314338933887342  0.013996137042184399  0.23697865842305524  1.0000
  C   C7        1.0  0.2919964080495703  0.8990365862219534  0.8324866893661848  1.0000
  C   C8        1.0  0.7079666438005817  0.10101887548938746  0.16758617293719164  1.0000
  C   C9        1.0  0.47537802396179524  0.9819273288403207  0.8160763025154053  1.0000
  C   C10       1.0  0.5245962654402307  0.0181118064215653  0.18400170980359576  1.0000
  C   C11       1.0  0.4521944049921061  0.1241287209945767  0.7531911192660486  1.0000
  C   C12       1.0  0.547799079450627  0.8758402149500881  0.24676199537577045  1.0000
  C   C13       1.0  0.4165961065204797  0.28848335717007956  0.9966625753162714  1.0000
  C   C14       1.0  0.5832973172265595  0.7115641373437142  0.0031925994758949766  1.0000
  C   C15       1.0  0.19456589519327142  0.26344160721457394  0.10842157072423927  1.0000
  C   C16       1.0  0.8052785140651295  0.7366621384499936  0.8913855731718738  1.0000
  C   C17       1.0  0.13816177396512327  0.19067340774961386  0.9846210716679945  1.0000
  C   C18       1.0  0.8617472160007793  0.8093421270822532  0.015208327172842892  1.0000
  N   N1        1.0  0.27895169500482103  0.20565161134966556  0.9163318130570771  1.0000
  N   N2        1.0  0.7209760125740559  0.7943762962804468  0.08352456251699177  1.0000
  N   N3        1.0  0.3678154412438132  0.32264147165520274  0.11310619756252997  1.0000
  N   N4        1.0  0.6320201211063432  0.6774612609366599  0.886710919069081  1.0000
  O   O1        1.0  0.23684395483694223  0.4875937851104907  0.8645482717495625  1.0000
  O   O2        1.0  0.7632705014308743  0.5124065784687418  0.1353446471493456  1.0000
  O   O3        1.0  0.42886952492720093  0.5020223818991879  0.6839951632206647  1.0000
  O   O4        1.0  0.5709181615830943  0.4981552466906862  0.3156744483575622  1.0000
  O   O5        1.0  0.10684598431944888  0.49843725801624567  0.6211107658034294  1.0000
  O   O6        1.0  0.8927310398200421  0.5014166340644904  0.37893616352800297  1.0000
  O   O7        1.0  0.19203717405756038  0.03614325812578299  0.4570506066244916  1.0000
  O   O8        1.0  0.8078242990731894  0.9637868371442269  0.5428854428721621  1.0000
  O   O9        1.0  0.4079656650988923  0.27713917603136906  0.4775394260772074  1.0000
  O   O10       1.0  0.5921571013558946  0.7226708027995484  0.5225576165561492  1.0000
  O   O11       1.0  0.08828072903109778  0.2726115851886701  0.41452124924590805  1.0000
  O   O12       1.0  0.9119550494234687  0.7275386981124895  0.5854455063626673  1.0000
  O   O13       1.0  0.0001601861771333876  0.2066168861385336  0.6704129632992064  1.0000
  O   O14       1.0  0.9998426236722154  0.7933323790335863  0.32943656763278273  1.0000
  O   O15       1.0  0.25348784412421566  0.5311584478707304  0.38592190090724887  1.0000
  O   O16       1.0  0.7469376027877529  0.46919186348981157  0.614906918744765  1.0000
  O   O17       1.0  0.6952604384265227  0.19085022626552467  0.46932508840271936  1.0000
  O   O18       1.0  0.30475047738787  0.8089596997137604  0.5308995883689676  1.0000
