data_image0
_chemical_formula_structural       Na2CuH20C12N12O18
_chemical_formula_sum              "Na2 Cu1 H20 C12 N12 O18"
_cell_length_a       6.832632341850961
_cell_length_b       10.352329791832616
_cell_length_c       10.333545085964115
_cell_angle_alpha    61.49174752409701
_cell_angle_beta     82.81640195323219
_cell_angle_gamma    72.1599452488021

_space_group_name_H-M_alt    "P 1"
_space_group_IT_number       1

loop_
  _space_group_symop_operation_xyz
  'x, y, z'

loop_
  _atom_site_type_symbol
  _atom_site_label
  _atom_site_symmetry_multiplicity
  _atom_site_fract_x
  _atom_site_fract_y
  _atom_site_fract_z
  _atom_site_occupancy
  Na  Na1       1.0  0.7606599692571693  0.5310771570679192  0.40454598802842423  1.0000
  Na  Na2       1.0  0.23933834051951663  0.4689255228868418  0.5954513725650229  1.0000
  Cu  Cu1       1.0  0.0  0.0  0.0  1.0000
  H   H1        1.0  0.12181058527362863  0.13894043381309018  0.3724020335859137  1.0000
  H   H2        1.0  0.8781856836894093  0.8610599139762769  0.627597541077847  1.0000
  H   H3        1.0  0.7664280183583049  0.49611927811124434  0.012190952930446034  1.0000
  H   H4        1.0  0.23357366784631492  0.5038822594679145  0.9878086166941246  1.0000
  H   H5        1.0  0.6987235851735464  0.11281858511851078  0.563284036129204  1.0000
  H   H6        1.0  0.3012746067236805  0.8871806307672613  0.4367159189997948  1.0000
  H   H7        1.0  0.33680605039426587  0.46890645561528277  0.2091770647785509  1.0000
  H   H8        1.0  0.6631975668231082  0.531093962309839  0.7908219111553335  1.0000
  H   H9        1.0  0.6833594321377919  0.8975138786188025  0.11465415588129707  1.0000
  H   H10       1.0  0.31664079249452476  0.1024876571827775  0.8853445593333191  1.0000
  H   H11       1.0  0.6748569322641629  0.035347788466644686  0.15671884542516074  1.0000
  H   H12       1.0  0.3251418146387268  0.9646537210582122  0.843280963691356  1.0000
  H   H13       1.0  0.06086657322374835  0.6966143318336008  0.29564191319504823  1.0000
  H   H14       1.0  0.9391327367633623  0.3033894835799201  0.7043567757530694  1.0000
  H   H15       1.0  0.934640994960901  0.7703578197607966  0.39464248931807333  1.0000
  H   H16       1.0  0.06535675173156365  0.22964255430529323  0.6053559914437798  1.0000
  H   H17       1.0  0.4351146557019377  0.8085074200848579  0.18693002048540563  1.0000
  H   H18       1.0  0.5648836540747482  0.19149525986989596  0.8130673401080415  1.0000
  H   H19       1.0  0.565220689886786  0.7364592135689491  0.08930234460512314  1.0000
  H   H20       1.0  0.43478100439639195  0.2635423362597819  0.9106962508635162  1.0000
  C   C1        1.0  0.10170233694822882  0.08747991495442878  0.20084297012441252  1.0000
  C   C2        1.0  0.8982982230879487  0.9125170108474021  0.7991588398369772  1.0000
  C   C3        1.0  0.9434240768266307  0.3324107457147534  0.2001254886899702  1.0000
  C   C4        1.0  0.05657264541972767  0.6675884561438606  0.7998745861850054  1.0000
  C   C5        1.0  0.8953712471573712  0.29285879577473384  0.9939563983583497  1.0000
  C   C6        1.0  0.10462796918596248  0.707141592318514  0.006041962657533876  1.0000
  C   C7        1.0  0.6767779403338212  0.06331421869146679  0.3899590689670802  1.0000
  C   C8        1.0  0.32322126793094724  0.9366861571522089  0.6100402662047274  1.0000
  C   C9        1.0  0.5147503110260985  0.30444031270067734  0.39533575166223045  1.0000
  C   C10       1.0  0.4852532981127098  0.6955600929748796  0.6046641984275851  1.0000
  C   C11       1.0  0.4708864503256933  0.26713083535195636  0.1873893890057232  1.0000
  C   C12       1.0  0.5291132031438366  0.7328683823113876  0.8126114205332299  1.0000
  N   N1        1.0  0.011810492008621106  0.1452414117432852  0.06692618088952429  1.0000
  N   N2        1.0  0.9881906391903428  0.8547578321967816  0.9330735347475284  1.0000
  N   N3        1.0  0.062269737481592785  0.1823926709987731  0.2657755394562074  1.0000
  N   N4        1.0  0.9377294707831751  0.8176077048448959  0.7342237957156001  1.0000
  N   N5        1.0  0.8641825218891414  0.38352266693635056  0.06257831919266008  1.0000
  N   N6        1.0  0.13581816410505357  0.6164777351840413  0.9374199220772469  1.0000
  N   N7        1.0  0.5926075458433574  0.12131062268841215  0.2547834657091315  1.0000
  N   N8        1.0  0.40739211570473816  0.8786886072245037  0.7452163696738976  1.0000
  N   N9        1.0  0.636634665087108  0.15594663154320898  0.4578007323763629  1.0000
  N   N10       1.0  0.36336646611185597  0.844052612396858  0.5421989832606826  1.0000
  N   N11       1.0  0.43035698673541845  0.3554390735202588  0.2598506028489354  1.0000
  N   N12       1.0  0.569646622403397  0.6445613321552911  0.7401493472408731  1.0000
  O   O1        1.0  0.21344476191064382  0.9521025774202272  0.2651859559743527  1.0000
  O   O2        1.0  0.786553405750901  0.047896601716821884  0.7348169216224321  1.0000
  O   O3        1.0  0.9098932786012454  0.41539573317371037  0.2600791961940772  1.0000
  O   O4        1.0  0.0901009414695864  0.5846022702007047  0.7399235666959214  1.0000
  O   O5        1.0  0.8154680792120673  0.3453632182881918  0.8695199656717422  1.0000
  O   O6        1.0  0.18453849346415307  0.6546372521903763  0.13047682245832698  1.0000
  O   O7        1.0  0.7923715625803355  0.9281794005631598  0.4553661561820586  1.0000
  O   O8        1.0  0.20762515966602993  0.07181980129545448  0.5446339186929167  1.0000
  O   O9        1.0  0.4857022801711751  0.38719859093961156  0.45571687855751014  1.0000
  O   O10       1.0  0.5143007497262888  0.6127994843481304  0.5442861400125665  1.0000
  O   O11       1.0  0.3935614735002702  0.3258971074233656  0.05996959993304779  1.0000
  O   O12       1.0  0.6064397594210362  0.6741055760865534  0.9400294694803081  1.0000
  O   O13       1.0  0.7281045839827699  0.9919796924999388  0.08359848830918533  1.0000
  O   O14       1.0  0.27189415484156143  0.008021804775339099  0.9164022949632625  1.0000
  O   O15       1.0  0.9951577976216583  0.6727103137464495  0.3913205170869745  1.0000
  O   O16       1.0  0.0048399490708064255  0.3272900603196404  0.6086779636748786  1.0000
  O   O17       1.0  0.575286450106937  0.7539393730197687  0.17399435660659876  1.0000
  O   O18       1.0  0.42471378260393783  0.2460621750313904  0.8260033844520861  1.0000
