data_image0
_chemical_formula_structural       Zn2H92C76N6O18
_chemical_formula_sum              "Zn2 H92 C76 N6 O18"
_cell_length_a       16.56231240208501
_cell_length_b       16.36621282112891
_cell_length_c       19.069053089344237
_cell_angle_alpha    86.32755697532214
_cell_angle_beta     89.03144348590695
_cell_angle_gamma    88.42250119529088

_space_group_name_H-M_alt    "P 1"
_space_group_IT_number       1

loop_
  _space_group_symop_operation_xyz
  'x, y, z'

loop_
  _atom_site_type_symbol
  _atom_site_label
  _atom_site_symmetry_multiplicity
  _atom_site_fract_x
  _atom_site_fract_y
  _atom_site_fract_z
  _atom_site_occupancy
  Zn  Zn1       1.0  0.495616084706022  0.41120039464042446  0.502424522925459  1.0000
  Zn  Zn2       1.0  0.5121626734187147  0.5910691718708919  0.48276222336517105  1.0000
  H   H1        1.0  0.42234924432383286  0.3854157582918419  0.2844035341458238  1.0000
  H   H2        1.0  0.7545487049218378  0.3301307142634756  0.5282139290006356  1.0000
  H   H3        1.0  0.983938194646129  0.5817767209525471  0.5892224566303241  1.0000
  H   H4        1.0  0.005476827592737303  0.39667598370483864  0.6251761298176888  1.0000
  H   H5        1.0  0.8929939460318436  0.32672434656635846  0.5793063542466541  1.0000
  H   H6        1.0  0.09534076541262242  0.6435992234895168  0.5344582561568387  1.0000
  H   H7        1.0  0.13493575318344142  0.4129492587043303  0.6529529874515704  1.0000
  H   H8        1.0  0.8576086088986373  0.5774874897801895  0.6320618567027907  1.0000
  H   H9        1.0  0.45934972180807426  0.3490556328236282  0.7021140904048906  1.0000
  H   H10       1.0  0.5384997926884197  0.3103196824470303  0.6493749278303584  1.0000
  H   H11       1.0  0.4258117563405292  0.20351324405026366  0.7441850168957418  1.0000
  H   H12       1.0  0.46159712443352424  0.6284768973135686  0.7192425456123105  1.0000
  H   H13       1.0  0.5094076953755716  0.16699130417553934  0.6958026659735524  1.0000
  H   H14       1.0  0.6029586537714239  0.2512876220021952  0.7663568143587014  1.0000
  H   H15       1.0  0.5487561498327268  0.17906951171680427  0.8208829717196409  1.0000
  H   H16       1.0  0.5189756472438702  0.284250471761908  0.8160718243466931  1.0000
  H   H17       1.0  0.7311241564699743  0.6385504486858978  0.4393245892130225  1.0000
  H   H18       1.0  0.6789111814511983  0.680217672313333  0.5108235788965771  1.0000
  H   H19       1.0  0.7897816048862794  0.7769738821058214  0.4065334456943575  1.0000
  H   H20       1.0  0.7401561956317265  0.8174834912698189  0.47969151634290347  1.0000
  H   H21       1.0  0.8164390553840662  0.7165848618152639  0.561876599174326  1.0000
  H   H22       1.0  0.8846039689048268  0.7761395551005779  0.5086371399320626  1.0000
  H   H23       1.0  0.39682602551621216  0.7203987976793088  0.5049633690508344  1.0000
  H   H24       1.0  0.8655537738584372  0.6736845744864869  0.48910805260126733  1.0000
  H   H25       1.0  0.42340699785906816  0.9733725137796657  0.6764785414838954  1.0000
  H   H26       1.0  0.509214829653061  0.023630142596445608  0.6402053448731309  1.0000
  H   H27       1.0  0.47681815103262454  0.8401228961325843  0.6327267888554289  1.0000
  H   H28       1.0  0.5628308939669252  0.8896889723260771  0.5971820654749963  1.0000
  H   H29       1.0  0.6013928087608492  0.9281719670038701  0.7182120668114821  1.0000
  H   H30       1.0  0.592191274870828  0.8204193577745973  0.7159136582499529  1.0000
  H   H31       1.0  0.5142349953491134  0.8799088549676386  0.7546123754600417  1.0000
  H   H32       1.0  0.7033961720230549  0.012709545117005006  0.4431747515351177  1.0000
  H   H33       1.0  0.657068313580382  0.9606531537380862  0.517051405918984  1.0000
  H   H34       1.0  0.5138979587979408  0.2847439049590434  0.40453567797872847  1.0000
  H   H35       1.0  0.6550378713020067  0.14774453270198515  0.4876282312389719  1.0000
  H   H36       1.0  0.6129210300509411  0.09590614992667672  0.5628848050730113  1.0000
  H   H37       1.0  0.7518235968851171  0.03895648756164861  0.5970571157562861  1.0000
  H   H38       1.0  0.749959681890168  0.14765670649650536  0.5886921591795444  1.0000
  H   H39       1.0  0.7940430852930191  0.09075824631841563  0.5210135354950581  1.0000
  H   H40       1.0  0.6591533630725054  0.9487795677829499  0.3001517423576203  1.0000
  H   H41       1.0  0.5592024702376647  0.9653176309462952  0.3331526267730425  1.0000
  H   H42       1.0  0.6223358980507926  0.8134155574438681  0.2602218503952827  1.0000
  H   H43       1.0  0.5272947816009648  0.8199583523153751  0.30297155706997364  1.0000
  H   H44       1.0  0.48730928213169034  0.943426055728999  0.22423538135931415  1.0000
  H   H45       1.0  0.5664721805106367  0.5989394118455493  0.26158803370251604  1.0000
  H   H46       1.0  0.5114024689404887  0.8577295365736435  0.1747309185841033  1.0000
  H   H47       1.0  0.5815549454154051  0.9371715598457089  0.17873397313209693  1.0000
  H   H48       1.0  0.28304662836569616  0.07597253893417392  0.6561180493727434  1.0000
  H   H49       1.0  0.30099042934048004  0.07126034353929361  0.5640514029313409  1.0000
  H   H50       1.0  0.25411453798297157  0.2267099678322851  0.6398148733987128  1.0000
  H   H51       1.0  0.2749069443457657  0.22472042135616024  0.5489956291360729  1.0000
  H   H52       1.0  0.15912378892144122  0.12961688476489291  0.535542181356874  1.0000
  H   H53       1.0  0.1255378004567476  0.22238228135366006  0.5710611808204149  1.0000
  H   H54       1.0  0.13655815168812774  0.13173893567037717  0.6268010866306994  1.0000
  H   H55       1.0  0.580111834419114  0.09767733750670263  0.31654355488355895  1.0000
  H   H56       1.0  0.6224195297494505  0.4201294052855717  0.7010186654721977  1.0000
  H   H57       1.0  0.5991152646397424  0.1845680250100871  0.36438164742883583  1.0000
  H   H58       1.0  0.4751814160673362  0.1770542415814235  0.24694854195601582  1.0000
  H   H59       1.0  0.4921085772308232  0.2647227690907172  0.29369310398312365  1.0000
  H   H60       1.0  0.6374941413070161  0.2657417855724801  0.2512553675949719  1.0000
  H   H61       1.0  0.5702085546192847  0.27415017923657814  0.18005363406764022  1.0000
  H   H62       1.0  0.6204207369642489  0.178990112476221  0.20246287444626182  1.0000
  H   H63       1.0  0.3085936695389079  0.8991232344720007  0.5871208954629736  1.0000
  H   H64       1.0  0.34057340703812866  0.7957666893029085  0.5768070740203869  1.0000
  H   H65       1.0  0.2090262686821092  0.8893912070500107  0.4904601620300113  1.0000
  H   H66       1.0  0.2369138301416669  0.7851349741604924  0.48387494401099934  1.0000
  H   H67       1.0  0.7210829568506301  0.5799509714241254  0.579194779180213  1.0000
  H   H68       1.0  0.19194512106448514  0.7537562788381963  0.6101616713466741  1.0000
  H   H69       1.0  0.11172964168735428  0.8001697854392021  0.5604642449239635  1.0000
  H   H70       1.0  0.16593824041581942  0.859016345799809  0.6178207972916356  1.0000
  H   H71       1.0  0.45186620427838164  0.3178901241233946  0.10904280574171571  1.0000
  H   H72       1.0  0.39591078075653036  0.30599717598762777  0.18951840570071  1.0000
  H   H73       1.0  0.3612371615828777  0.37456690529900544  0.11943765842946873  1.0000
  H   H74       1.0  0.3929361162356955  0.594448525610794  0.8810626681820253  1.0000
  H   H75       1.0  0.48106685878219224  0.6415038967381224  0.9078785943618612  1.0000
  H   H76       1.0  0.4313078441880833  0.6802304344143836  0.8302360184752687  1.0000
  H   H77       1.0  0.6533931376431497  0.6564031461433474  0.1863403874802145  1.0000
  H   H78       1.0  0.2779327854805659  0.4098626889507387  0.6102040542993024  1.0000
  H   H79       1.0  0.5604843904058542  0.7039375422233649  0.1570644759889888  1.0000
  H   H80       1.0  0.7154451536702525  0.6743721173747307  0.07017131440228747  1.0000
  H   H81       1.0  0.6218096047431132  0.7004054895050306  0.03094354014065459  1.0000
  H   H82       1.0  0.6136175038145739  0.8329506586556266  0.08752142155709211  1.0000
  H   H83       1.0  0.7082464813013233  0.8249562913374935  0.04326423241617048  1.0000
  H   H84       1.0  0.7023694312450174  0.8079991232556268  0.1360263794582153  1.0000
  H   H85       1.0  0.7419676437858624  0.3568848838144236  0.8905402336613125  1.0000
  H   H86       1.0  0.7321418383057932  0.4632987230906026  0.8669817737960059  1.0000
  H   H87       1.0  0.7643079538061742  0.3293917765990316  0.7628275360415061  1.0000
  H   H88       1.0  0.7613134277767912  0.4358641852208935  0.7403103507448707  1.0000
  H   H89       1.0  0.2403991488912212  0.6416689408905827  0.495836901658592  1.0000
  H   H90       1.0  0.8814585662436303  0.45374822005442905  0.8180179499839398  1.0000
  H   H91       1.0  0.9045817260305354  0.3852848569415601  0.7518432786047883  1.0000
  H   H92       1.0  0.8852430020713911  0.3465954260687952  0.8395903730524311  1.0000
  C   C1        1.0  0.6536029420056052  0.46341842615460394  0.5084148676597878  1.0000
  C   C2        1.0  0.10404091577460413  0.5271842895246835  0.5942308920525579  1.0000
  C   C3        1.0  0.8550334759192779  0.3823500605021196  0.5795581275615049  1.0000
  C   C4        1.0  0.1359056721343777  0.593066349160523  0.5522783756894755  1.0000
  C   C5        1.0  0.7785038316512427  0.3840898666428958  0.5503982885374441  1.0000
  C   C6        1.0  0.21638980385037607  0.5920763993801119  0.5302690337399909  1.0000
  C   C7        1.0  0.9737145166061083  0.45585663921284697  0.6164521849987281  1.0000
  C   C8        1.0  0.016857313537400394  0.5244505258057119  0.6037261514243255  1.0000
  C   C9        1.0  0.4470982343956961  0.7586450530538829  0.4875725815945416  1.0000
  C   C10       1.0  0.4933803948790541  0.2466788161829072  0.4499363632314513  1.0000
  C   C11       1.0  0.4403014345377514  0.84378604487101  0.4835587124625178  1.0000
  C   C12       1.0  0.3512018926241254  0.5174485644332025  0.5208204600634758  1.0000
  C   C13       1.0  0.481865318133309  0.16309646958286814  0.4463672566513281  1.0000
  C   C14       1.0  0.5093885448538061  0.8914370247644146  0.4630418604470917  1.0000
  C   C15       1.0  0.45820654550276885  0.11508751817937933  0.5085604991560191  1.0000
  C   C16       1.0  0.49492963847130517  0.4975277930997707  0.3577176375299659  1.0000
  C   C17       1.0  0.5262331082221438  0.5273769799964542  0.6251678638941486  1.0000
  C   C18       1.0  0.5729834730491348  0.8458850279026536  0.4302505371128973  1.0000
  C   C19       1.0  0.42813191009145873  0.16172544755774965  0.5646070458521564  1.0000
  C   C20       1.0  0.5755186601122092  0.7597760546421173  0.4378803055884219  1.0000
  C   C21       1.0  0.4435105964524127  0.24597886623962498  0.5642796886792496  1.0000
  C   C22       1.0  0.5163057783243091  0.9788861582600109  0.47358144835077814  1.0000
  C   C23       1.0  0.7320274647601012  0.4570137356319536  0.5462873093100741  1.0000
  C   C24       1.0  0.46581679711388807  0.025451252143071208  0.5154695884250415  1.0000
  C   C25       1.0  0.4564727230176899  0.42794703219176006  0.24988384158631052  1.0000
  C   C26       1.0  0.49823780270833146  0.5790337539234331  0.7446994689998903  1.0000
  C   C27       1.0  0.4601312068447356  0.4184627670634385  0.1775176599098316  1.0000
  C   C28       1.0  0.4989682413854056  0.5679085398040516  0.817920333965894  1.0000
  C   C29       1.0  0.5075850676663408  0.47284097118168955  0.1351637921782185  1.0000
  C   C30       1.0  0.5470922786785906  0.5031773507696686  0.8491153530635175  1.0000
  C   C31       1.0  0.5455176487563734  0.5386115043465411  0.165113114533149  1.0000
  C   C32       1.0  0.5957491676611469  0.4533300554776717  0.8065410422239907  1.0000
  C   C33       1.0  0.5385900092635935  0.5487953527697159  0.23703387816193808  1.0000
  C   C34       1.0  0.2669067829233924  0.5247564266777333  0.5494249880852565  1.0000
  C   C35       1.0  0.5902123795776646  0.4628431130101945  0.733626538883307  1.0000
  C   C36       1.0  0.49585740264090133  0.49145996344165616  0.2794968333388468  1.0000
  C   C37       1.0  0.5402491240727657  0.5247038014788574  0.7027241450659504  1.0000
  C   C38       1.0  0.5394018877246795  0.48133613105911627  0.9249532821134281  1.0000
  C   C39       1.0  0.5189936033328664  0.464977334736446  0.05920940453209062  1.0000
  C   C40       1.0  0.4799357947449253  0.29535713477446984  0.674476300513689  1.0000
  C   C41       1.0  0.48649214750281544  0.21941187967522788  0.724414318030128  1.0000
  C   C42       1.0  0.5422497404420953  0.23411390364209692  0.7851211941376377  1.0000
  C   C43       1.0  0.7046864924437913  0.6954316763909175  0.4581912189983798  1.0000
  C   C44       1.0  0.7676514371900823  0.7610950413558445  0.4602684919531655  1.0000
  C   C45       1.0  0.7600618139545433  0.5253345828740809  0.5785864847273459  1.0000
  C   C46       1.0  0.8374793088782085  0.7303275674997636  0.5074675702495242  1.0000
  C   C47       1.0  0.4693709308657644  0.9717308215750013  0.6342864111294944  1.0000
  C   C48       1.0  0.5173346125227168  0.8910179060326088  0.6398066532915578  1.0000
  C   C49       1.0  0.5586022639023441  0.8792332681464149  0.7110325926371531  1.0000
  C   C50       1.0  0.6539056637302139  0.016966803257943797  0.4820698943208158  1.0000
  C   C51       1.0  0.6620960065875751  0.09271548102703524  0.5235410774956506  1.0000
  C   C52       1.0  0.7439468334333625  0.09242776028798971  0.5595674077238968  1.0000
  C   C53       1.0  0.6058544164210319  0.9181011645849612  0.3232064758506398  1.0000
  C   C54       1.0  0.5737092695864306  0.8566395439776431  0.2746375611002563  1.0000
  C   C55       1.0  0.5366117538905826  0.9011925738271603  0.20948004516807123  1.0000
  C   C56       1.0  0.23707984497450957  0.46095936145947314  0.5946694962383818  1.0000
  C   C57       1.0  0.3031635981365781  0.11124585958632592  0.6083009389497249  1.0000
  C   C58       1.0  0.2506599345352143  0.18828644348365492  0.5947626376461772  1.0000
  C   C59       1.0  0.1632086142989948  0.1667709242677446  0.5813897031151144  1.0000
  C   C60       1.0  0.5525824976532335  0.1541375010111565  0.3356002742952313  1.0000
  C   C61       1.0  0.5215391912986574  0.20935893411166265  0.2743201001712451  1.0000
  C   C62       1.0  0.5911718682471162  0.23322465659843064  0.22417478421971992  1.0000
  C   C63       1.0  0.31378275942196154  0.8509589096011754  0.5494243669783074  1.0000
  C   C64       1.0  0.2313047961084749  0.8340701402757276  0.5207845186730964  1.0000
  C   C65       1.0  0.17207977817180614  0.8104421041535164  0.5806244775212761  1.0000
  C   C66       1.0  0.41507555059172324  0.3504140498110859  0.14742223060712692  1.0000
  C   C67       1.0  0.8360857171096753  0.5235792631102216  0.6080210273187705  1.0000
  C   C68       1.0  0.44846004057274774  0.6240848309420601  0.8616277755258396  1.0000
  C   C69       1.0  0.613299621330981  0.6664963881919095  0.14076683845894425  1.0000
  C   C70       1.0  0.6576964414248182  0.7076028042548189  0.07813128766637333  1.0000
  C   C71       1.0  0.671325067254081  0.7982568597106409  0.086805978747087  1.0000
  C   C72       1.0  0.7250440525452434  0.4019048366575648  0.8476522801741169  1.0000
  C   C73       1.0  0.7772743611920632  0.3894467035804611  0.782467897662258  1.0000
  C   C74       1.0  0.8670325750346636  0.39392468146321863  0.7989013104592787  1.0000
  C   C75       1.0  0.1572268580786016  0.46273476680163145  0.6176639012150177  1.0000
  C   C76       1.0  0.8872156496298089  0.45360501300504563  0.6047009645365193  1.0000
  N   N1        1.0  0.5954722499923976  0.45746621771709794  0.03339581864573659  1.0000
  N   N2        1.0  0.4639657506064268  0.4662932976472052  0.9499622207061694  1.0000
  N   N3        1.0  0.6058911237006797  0.46767907282417565  0.9646168299050616  1.0000
  N   N4        1.0  0.45338193520738207  0.4596173378916576  0.0190398043323157  1.0000
  N   N5        1.0  0.5146769068648993  0.7177699069741198  0.4683831336635507  1.0000
  N   N6        1.0  0.4778341662737092  0.28618197188153977  0.5086189512719202  1.0000
  O   O1        1.0  0.6196664400104838  0.3972234068740975  0.49508711527294486  1.0000
  O   O2        1.0  0.6384360454744851  0.7165057803699711  0.4105382129063814  1.0000
  O   O3        1.0  0.42373993677215793  0.9862578709832309  0.5699414231205822  1.0000
  O   O4        1.0  0.5808806499402978  0.01789310205288071  0.4409321277275708  1.0000
  O   O5        1.0  0.6337196003048504  0.880974665299505  0.3900842064004949  1.0000
  O   O6        1.0  0.38683145866919944  0.12862997046971708  0.6218626592421188  1.0000
  O   O7        1.0  0.4895789621879558  0.12679828749851657  0.3845817149319757  1.0000
  O   O8        1.0  0.36787467135081897  0.8821567448054851  0.4941406929831517  1.0000
  O   O9        1.0  0.5861407690075069  0.5899695296869254  0.11860022560365023  1.0000
  O   O10       1.0  0.640068826256602  0.3886105172984245  0.837221574069332  1.0000
  O   O11       1.0  0.38664823854006874  0.5822588150513043  0.49802148790642775  1.0000
  O   O12       1.0  0.6261769290165091  0.5357117970571253  0.4929315920813836  1.0000
  O   O13       1.0  0.38027501565484567  0.4446842654414384  0.5216948086266768  1.0000
  O   O14       1.0  0.4835072999178252  0.43147740927591377  0.3951765900609275  1.0000
  O   O15       1.0  0.5171575541733375  0.5968511295963242  0.5919777723849438  1.0000
  O   O16       1.0  0.5069989348996914  0.5677535114968606  0.3798541390711351  1.0000
  O   O17       1.0  0.5234699568041562  0.45770206705930877  0.5995935042685333  1.0000
  O   O18       1.0  0.4203384918736646  0.2897407577647969  0.6195689356198174  1.0000
