data_image0
_chemical_formula_structural       Ag2H14C22S2N6O4F6
_chemical_formula_sum              "Ag2 H14 C22 S2 N6 O4 F6"
_cell_length_a       8.37469981206785
_cell_length_b       8.983888251930466
_cell_length_c       10.535369216015633
_cell_angle_alpha    93.36218688368952
_cell_angle_beta     112.41006751516464
_cell_angle_gamma    114.36989852249704

_space_group_name_H-M_alt    "P 1"
_space_group_IT_number       1

loop_
  _space_group_symop_operation_xyz
  'x, y, z'

loop_
  _atom_site_type_symbol
  _atom_site_label
  _atom_site_symmetry_multiplicity
  _atom_site_fract_x
  _atom_site_fract_y
  _atom_site_fract_z
  _atom_site_occupancy
  Ag  Ag1       1.0  0.23200778029418248  0.4544928453101846  0.9356891131010484  1.0000
  Ag  Ag2       1.0  0.7679936896086517  0.545508644290379  0.06431254296219183  1.0000
  H   H1        1.0  0.455283533467913  0.21774356750680107  0.019239305071991442  1.0000
  H   H2        1.0  0.5447236679358127  0.7822541757336553  0.9807648332337989  1.0000
  H   H3        1.0  0.44417295676013424  0.9932108341123111  0.15196036487628822  1.0000
  H   H4        1.0  0.5558316307996449  0.006784421415993304  0.8480399805369812  1.0000
  H   H5        1.0  0.22754289230843483  0.916857791340135  0.273684835930922  1.0000
  H   H6        1.0  0.7724617989616077  0.08314003288434442  0.7263128439276015  1.0000
  H   H7        1.0  0.020113456811479597  0.061512411931936094  0.2514574767430062  1.0000
  H   H8        1.0  0.9798957634942838  0.9384866568826596  0.74854450876348  1.0000
  H   H9        1.0  0.4465808161166222  0.577758319440221  0.5812069705709745  1.0000
  H   H10       1.0  0.5534114268214765  0.42224047705195744  0.4187974019111209  1.0000
  H   H11       1.0  0.27882680780540886  0.7460884967377198  0.6146030798849011  1.0000
  H   H12       1.0  0.7211724119859327  0.2539231616974219  0.38539183925063714  1.0000
  H   H13       1.0  0.9867070467404915  0.7179732819393864  0.39639564630626717  1.0000
  H   H14       1.0  0.013286662381062839  0.28202572897096456  0.6035977957559949  1.0000
  C   C1        1.0  0.5688067543083619  0.708083247866817  0.23108913994722258  1.0000
  C   C2        1.0  0.43117865318475884  0.2919244048937841  0.7689079658641231  1.0000
  C   C3        1.0  0.3616688020315877  0.17960003080150946  0.07286589585147138  1.0000
  C   C4        1.0  0.6383345023124677  0.8203952312307834  0.9271331082906256  1.0000
  C   C5        1.0  0.35707558541782447  0.056864023818612  0.14826216340345158  1.0000
  C   C6        1.0  0.6429283560914598  0.9431324513337245  0.851739954501781  1.0000
  C   C7        1.0  0.2344603747946508  0.013098323848126401  0.21474989504326908  1.0000
  C   C8        1.0  0.7655462509307823  0.986900723986416  0.78525129587333  1.0000
  C   C9        1.0  0.11929220301346528  0.09253598873696228  0.2027781557856301  1.0000
  C   C10       1.0  0.8807110872561522  0.9074592563013154  0.7972217923326992  1.0000
  C   C11       1.0  0.1331404635164901  0.2139773946311436  0.1251855022329948  1.0000
  C   C12       1.0  0.8668680774007173  0.7860204100813775  0.8748162014390458  1.0000
  C   C13       1.0  0.09361971717481045  0.4558816682895568  0.2617116440482902  1.0000
  C   C14       1.0  0.9063730629143549  0.5441108901443314  0.7382896792177147  1.0000
  C   C15       1.0  0.3171387360032226  0.5700180763451499  0.49419145105505885  1.0000
  C   C16       1.0  0.6828496291388291  0.42998070567097096  0.5058107855659841  1.0000
  C   C17       1.0  0.22635096631925225  0.6637578099768505  0.512258962849721  1.0000
  C   C18       1.0  0.7736505265432925  0.3362412638736457  0.4877368629821887  1.0000
  C   C19       1.0  0.06724191335048595  0.6496815844150986  0.3931879197273176  1.0000
  C   C20       1.0  0.9327591179223731  0.35032626220183977  0.6068101777184011  1.0000
  C   C21       1.0  0.672947414549256  0.8607842230151235  0.3631760416116663  1.0000
  C   C22       1.0  0.3270535130133396  0.1392210549056472  0.6368247213887912  1.0000
  S   S1        1.0  0.9816429067321834  0.313202589592855  0.09502795824539591  1.0000
  S   S2        1.0  0.018362978117764186  0.6867926764254759  0.9049727844628136  1.0000
  N   N1        1.0  0.25075989907183777  0.25690817970991014  0.06067913162977589  1.0000
  N   N2        1.0  0.7492479817204369  0.7430908276326277  0.9393252885104599  1.0000
  N   N3        1.0  0.2510616101246653  0.46548961030572394  0.3687193695539434  1.0000
  N   N4        1.0  0.7489311840389377  0.5345029651221723  0.6312810097358295  1.0000
  N   N5        1.0  0.9999832643899681  0.5465358632660084  0.2662167345185081  1.0000
  N   N6        1.0  1.0885106142691734e-05  0.45345454927229417  0.7337802437277361  1.0000
  O   O1        1.0  0.4204010323265876  0.7038434061161849  0.13232221428339125  1.0000
  O   O2        1.0  0.5795973058448567  0.2961643005626229  0.867681696406059  1.0000
  O   O3        1.0  0.6489969237718682  0.6163653497883884  0.23718563228490547  1.0000
  O   O4        1.0  0.3509888556751193  0.38363097850360367  0.7628109234911519  1.0000
  F   F1        1.0  0.5470254292263376  0.884468728188402  0.40398738115743527  1.0000
  F   F2        1.0  0.45297886713013463  0.11554283625474682  0.5960166789677074  1.0000
  F   F3        1.0  0.8082525601119741  0.8494544480639447  0.47913127068729716  1.0000
  F   F4        1.0  0.19175026337878617  0.1505471200026918  0.5208670067659681  1.0000
  F   F5        1.0  0.7712350425880956  0.0078956733421336  0.3304646092176142  1.0000
  F   F6        1.0  0.2287612663029606  0.9921058082863541  0.6695335697134082  1.0000
