data_image0
_chemical_formula_structural       Sr2H24C20N12O12
_chemical_formula_sum              "Sr2 H24 C20 N12 O12"
_cell_length_a       4.3926428155339226
_cell_length_b       12.060248126991576
_cell_length_c       13.346374537672263
_cell_angle_alpha    91.58171827684801
_cell_angle_beta     99.4394255420498
_cell_angle_gamma    90.0543913506867

_space_group_name_H-M_alt    "P 1"
_space_group_IT_number       1

loop_
  _space_group_symop_operation_xyz
  'x, y, z'

loop_
  _atom_site_type_symbol
  _atom_site_label
  _atom_site_symmetry_multiplicity
  _atom_site_fract_x
  _atom_site_fract_y
  _atom_site_fract_z
  _atom_site_occupancy
  Sr  Sr1       1.0  0.631234549289438  0.7498323582131475  0.9999469323686435  1.0000
  Sr  Sr2       1.0  0.3687870699097572  0.25016809359514264  5.7127407998780814e-05  1.0000
  H   H1        1.0  0.20777977689581212  0.5560591603742182  0.5455383645471412  1.0000
  H   H2        1.0  0.6624821756710588  0.9441804643137958  0.45443544526980856  1.0000
  H   H3        1.0  0.7922053674844988  0.4439552655751626  0.4544677781279559  1.0000
  H   H4        1.0  0.33751291216375284  0.05580835728077462  0.5455575931284  1.0000
  H   H5        1.0  0.45575115354928647  0.5637865585671092  0.6675111989202801  1.0000
  H   H6        1.0  0.7877633167974379  0.936607741000543  0.332253961865433  1.0000
  H   H7        1.0  0.5442606396240278  0.4362223123782627  0.3324979108031768  1.0000
  H   H8        1.0  0.21222897888776515  0.06338320778863958  0.6677414554499704  1.0000
  H   H9        1.0  0.6012968920892946  0.2567171756381085  0.5712722694595482  1.0000
  H   H10       1.0  0.03106147192747241  0.24330302869660153  0.4293376243552414  1.0000
  H   H11       1.0  0.3986842459177069  0.7433015367639798  0.42873344379551515  1.0000
  H   H12       1.0  0.9689186012008121  0.7566845606886825  0.5706577136037294  1.0000
  H   H13       1.0  0.7590184964187756  0.1910898077697709  0.7491489864955481  1.0000
  H   H14       1.0  0.009728077680620107  0.3088830661446949  0.2512685224893899  1.0000
  H   H15       1.0  0.24101558052969807  0.8089067214321729  0.25084335411963105  1.0000
  H   H16       1.0  0.9902667375048465  0.6911158052425178  0.7487298984273277  1.0000
  H   H17       1.0  0.1733213894967207  0.911773413179439  0.012465740300356673  1.0000
  H   H18       1.0  0.1603294485895148  0.5880908511565721  0.9874779651864425  1.0000
  H   H19       1.0  0.8266962072034192  0.08822582939754399  0.9875354912995105  1.0000
  H   H20       1.0  0.8396872762447458  0.41190872447150895  0.012526289070564198  1.0000
  H   H21       1.0  0.0361707881766122  0.9129790554607239  0.11912553459937666  1.0000
  H   H22       1.0  0.9178404743671181  0.5872221707023613  0.8805963674742825  1.0000
  H   H23       1.0  0.9638441660540307  0.08701612046117901  0.8808748191011018  1.0000
  H   H24       1.0  0.0821764162729934  0.41277670676004863  0.11940702872288254  1.0000
  C   C1        1.0  0.4977190393697482  0.4527051853443779  0.8266683128824892  1.0000
  C   C2        1.0  0.6697471313901247  0.0475351910655348  0.17315167489240216  1.0000
  C   C3        1.0  0.5022869607008928  0.5472980766635089  0.17333406810764973  1.0000
  C   C4        1.0  0.33022882298075035  0.9524527071246425  0.8268418294770467  1.0000
  C   C5        1.0  0.24168903027865696  0.3994576848864283  0.7530416816385921  1.0000
  C   C6        1.0  0.4878541541199156  0.1006782016145849  0.24695049658412666  1.0000
  C   C7        1.0  0.7583227682742901  0.6005571116186132  0.24696227972755472  1.0000
  C   C8        1.0  0.5121216183193623  0.899304899057249  0.7530414670884154  1.0000
  C   C9        1.0  0.14490603899459126  0.4404113214106644  0.6525659286224792  1.0000
  C   C10       1.0  0.4922067338093897  0.0598278909614081  0.34752786194682966  1.0000
  C   C11       1.0  0.8550877653909906  0.5595936470016909  0.34744631888202787  1.0000
  C   C12       1.0  0.5077582176079076  0.9401604141264458  0.6524632230461048  1.0000
  C   C13       1.0  0.7852726365693313  0.29919880235611623  0.6234919766600908  1.0000
  C   C14       1.0  0.16219280325029223  0.20091993228510321  0.37689745791705304  1.0000
  C   C15       1.0  0.21472051535211278  0.7008208098382765  0.37651340636917735  1.0000
  C   C16       1.0  0.837787478520468  0.799070116711782  0.6230982896241526  1.0000
  C   C17       1.0  0.8736192513715934  0.26154350412304694  0.7219577449985619  1.0000
  C   C18       1.0  0.1513058065388009  0.23844224536046  0.278347032811915  1.0000
  C   C19       1.0  0.12638225028781142  0.7384720643942515  0.2780416323937728  1.0000
  C   C20       1.0  0.8487029000082202  0.7615525738982641  0.7216504339768617  1.0000
  N   N1        1.0  0.10483026552279283  0.3113628932074448  0.785499302003657  1.0000
  N   N2        1.0  0.3184998884493311  0.18868316085918482  0.21462210777264792  1.0000
  N   N3        1.0  0.8951958094251607  0.688641779024273  0.21449972688552058  1.0000
  N   N4        1.0  0.6814926158783405  0.8113102475416055  0.7853737191249974  1.0000
  N   N5        1.0  0.9176806070530219  0.3862448939045179  0.58810369330115  1.0000
  N   N6        1.0  0.33005574018703493  0.11396390531849217  0.4121765620357321  1.0000
  N   N7        1.0  0.08230396515674701  0.6137845658217812  0.4119032685401789  1.0000
  N   N8        1.0  0.6699197968988955  0.886019073648491  0.58781612316924  1.0000
  N   N9        1.0  0.2703479625633988  0.5309730042479258  0.6194981307960815  1.0000
  N   N10       1.0  0.6509735119931434  0.9693976334672456  0.38049411927219967  1.0000
  N   N11       1.0  0.7296555183420922  0.4690494235871441  0.3805055567350235  1.0000
  N   N12       1.0  0.3490250152499287  0.03058817630110872  0.6195017861981567  1.0000
  O   O1        1.0  0.1150142409821058  0.8639922386933065  0.06617240019266997  1.0000
  O   O2        1.0  0.04917442920943668  0.6360650778165606  0.933849483599921  1.0000
  O   O3        1.0  0.8849814889058647  0.1360094574200872  0.9338242657089989  1.0000
  O   O4        1.0  0.9508467459939423  0.3639327926752713  0.06615488812692397  1.0000
  O   O5        1.0  0.5469778185062496  0.41568465176744956  0.9161886768217181  1.0000
  O   O6        1.0  0.6294598427403955  0.08465385987996397  0.08367453655208829  1.0000
  O   O7        1.0  0.4530435653395982  0.5843156783359829  0.08381610448736145  1.0000
  O   O8        1.0  0.37054238076966334  0.9153404810107161  0.9163207648574311  1.0000
  O   O9        1.0  0.6511770967646342  0.5312004465569515  0.7966340047345707  1.0000
  O   O10       1.0  0.8527922490864839  0.9689888329111012  0.20297356062575725  1.0000
  O   O11       1.0  0.3488318347115751  0.46880973171249707  0.20337734737866944  1.0000
  O   O12       1.0  0.14718946093007898  0.03100744199895903  0.7970202564776085  1.0000
