data_image0
_chemical_formula_structural       Al4H68C84O20
_chemical_formula_sum              "Al4 H68 C84 O20"
_cell_length_a       6.620242232595824
_cell_length_b       25.05460903308295
_cell_length_c       26.960377294384188
_cell_angle_alpha    95.4694718183368
_cell_angle_beta     89.99929670162295
_cell_angle_gamma    89.99868788667058

_space_group_name_H-M_alt    "P 1"
_space_group_IT_number       1

loop_
  _space_group_symop_operation_xyz
  'x, y, z'

loop_
  _atom_site_type_symbol
  _atom_site_label
  _atom_site_symmetry_multiplicity
  _atom_site_fract_x
  _atom_site_fract_y
  _atom_site_fract_z
  _atom_site_occupancy
  Al  Al1       1.0  0.20650654875252167  0.2483105742987064  0.2503190680219659  1.0000
  Al  Al2       1.0  0.7937790839120777  0.7518330406978537  0.7501859005803196  1.0000
  Al  Al3       1.0  0.7065139166202101  0.2516813081972487  0.249667992609595  1.0000
  Al  Al4       1.0  0.2937883599962133  0.7481689760362898  0.7498058309982907  1.0000
  H   H1        1.0  0.8089859190666143  0.6275642313327623  0.9641916973733727  1.0000
  H   H2        1.0  0.2511379410178661  0.45274846113965594  0.10585115869481139  1.0000
  H   H3        1.0  0.3089897770557073  0.8724468659859141  0.5358241971304237  1.0000
  H   H4        1.0  0.7512161124180281  0.047259068067582184  0.3941767168043027  1.0000
  H   H5        1.0  0.22740765834276286  0.5296375728221818  0.8733940768635051  1.0000
  H   H6        1.0  0.6821709570184638  0.3873065706292849  0.05180820255152699  1.0000
  H   H7        1.0  0.7272386659652454  0.9704087609823445  0.6266378201603969  1.0000
  H   H8        1.0  0.18205673205901005  0.11267488518564761  0.448171870227263  1.0000
  H   H9        1.0  0.2481795488176388  0.6008588199908758  0.8154470767580901  1.0000
  H   H10       1.0  0.6804780479128779  0.32795079066415417  0.12058993490305168  1.0000
  H   H11       1.0  0.7480317194694236  0.8991961168594005  0.6845970376318177  1.0000
  H   H12       1.0  0.18043556340789013  0.17202228537226463  0.37937821605744654  1.0000
  H   H13       1.0  0.31739492470391883  0.5134857249123924  0.9562038689592851  1.0000
  H   H14       1.0  0.65870006687949  0.4780489086660893  0.0348073257058132  1.0000
  H   H15       1.0  0.8173022130572886  0.9865464842452172  0.5438399502537407  1.0000
  H   H16       1.0  0.15867888313434253  0.0219451828656858  0.4651728503482815  1.0000
  H   H17       1.0  0.2984646306068157  0.4495995760801962  0.020431951421706198  1.0000
  H   H18       1.0  0.6771817582397262  0.5412713959849925  0.9699722173591281  1.0000
  H   H19       1.0  0.7984131540871502  0.05042854017253968  0.4796031992507678  1.0000
  H   H20       1.0  0.17710268086534592  0.9587350042159744  0.5300188702669714  1.0000
  H   H21       1.0  0.6734936867635425  0.4556436179609378  0.4271635042582601  1.0000
  H   H22       1.0  0.3272782609634817  0.538924976591673  0.5784241383426403  1.0000
  H   H23       1.0  0.17330261526468144  0.04439718009588489  0.07282223348402539  1.0000
  H   H24       1.0  0.8273894467076061  0.9610429803322589  0.9215815925089428  1.0000
  H   H25       1.0  0.6549560023669513  0.38257670865269233  0.35732268698597375  1.0000
  H   H26       1.0  0.33987354334639963  0.61082576782254  0.6495797586915585  1.0000
  H   H27       1.0  0.15483410097598238  0.1174842380548071  0.1426512166469678  1.0000
  H   H28       1.0  0.839926175254085  0.8891492912979327  0.8504225730879894  1.0000
  H   H29       1.0  0.28148461035019057  0.3462664314471837  0.37804535882052187  1.0000
  H   H30       1.0  0.7221468368668056  0.6515982028072854  0.6227151114629025  1.0000
  H   H31       1.0  0.7814865614422712  0.1536994241777734  0.12195665719563208  1.0000
  H   H32       1.0  0.22217509284628525  0.8484056564872802  0.8772910686866735  1.0000
  H   H33       1.0  0.3006219475024067  0.4175067455244629  0.4495354632466756  1.0000
  H   H34       1.0  0.7098929557875733  0.5820069797188198  0.549686984965497  1.0000
  H   H35       1.0  0.8005245645277054  0.0824403240108751  0.050476149952189096  1.0000
  H   H36       1.0  0.20995554914107825  0.9179975672171851  0.9503207353868033  1.0000
  H   H37       1.0  0.703731676209216  0.8193247456545832  0.9422882863628813  1.0000
  H   H38       1.0  0.8132296420352174  0.7931431134187646  0.9949672509020713  1.0000
  H   H39       1.0  0.9455967118723546  0.8415592598354493  0.9635166554277106  1.0000
  H   H40       1.0  0.0814590640949291  0.7471641437923678  0.9423004002014677  1.0000
  H   H41       1.0  0.9931763214324859  0.7759272388081088  0.8891313650308132  1.0000
  H   H42       1.0  0.6928598312820924  0.7226788870123713  0.8833538541146593  1.0000
  H   H43       1.0  0.7084711433546999  0.7080904490700775  0.9461667586215936  1.0000
  H   H44       1.0  0.4426572840853779  0.39314972264136844  0.28549308676846147  1.0000
  H   H45       1.0  0.5123223606461947  0.45495052493140536  0.26344249661372726  1.0000
  H   H46       1.0  0.3229686424356757  0.45275580093432666  0.3101102200491326  1.0000
  H   H47       1.0  0.15320483051787898  0.46358620397157324  0.22970939784945438  1.0000
  H   H48       1.0  0.09659979787301148  0.3999148672809199  0.24847992232982105  1.0000
  H   H49       1.0  0.3717395971456908  0.36000097505532846  0.18977116035603095  1.0000
  H   H50       1.0  0.4148118856306055  0.42465926302963897  0.17088919727494556  1.0000
  H   H51       1.0  0.2040749728732577  0.6806691433512952  0.5577395705049851  1.0000
  H   H52       1.0  0.31338320069104236  0.7068513446420966  0.5050385548811603  1.0000
  H   H53       1.0  0.4459082512052177  0.6584626902271895  0.5364673974604769  1.0000
  H   H54       1.0  0.581642038851875  0.7528791830957787  0.5576512321832537  1.0000
  H   H55       1.0  0.4936004173009038  0.7241038018146994  0.6108392439319701  1.0000
  H   H56       1.0  0.19308961249360823  0.7772920947073416  0.6166438516582174  1.0000
  H   H57       1.0  0.2085693074160773  0.7919045158293017  0.5538368623417468  1.0000
  H   H58       1.0  0.9431359096338169  0.10686287030969048  0.21459698527470286  1.0000
  H   H59       1.0  0.0124857217321406  0.04503396611676889  0.23662395773334305  1.0000
  H   H60       1.0  0.823348420821574  0.0472994310302397  0.18991553497337318  1.0000
  H   H61       1.0  0.65334823079899  0.03643852554444749  0.27029280373186276  1.0000
  H   H62       1.0  0.5968456194974507  0.1001161006415643  0.2515266102510195  1.0000
  H   H63       1.0  0.871885083548335  0.14000789795156274  0.3102826827031819  1.0000
  H   H64       1.0  0.9149017904939354  0.0753307515542616  0.32915253630554264  1.0000
  H   H65       1.0  0.44942132878587415  0.3208656910603125  0.2546888448485873  1.0000
  H   H66       1.0  0.5506959241359864  0.6873546221137661  0.7715501791644639  1.0000
  H   H67       1.0  0.9494242555366552  0.17913321806958046  0.24548316005980544  1.0000
  H   H68       1.0  0.050686892453534  0.8126537026903122  0.7284503621911254  1.0000
  C   C1        1.0  0.4595419776006791  0.18203788135102172  0.17910681528175587  1.0000
  C   C2        1.0  0.5391440736738884  0.821825044362271  0.8176040876937946  1.0000
  C   C3        1.0  0.9595838360325288  0.3179660367397119  0.32087625165307526  1.0000
  C   C4        1.0  0.03914593253759339  0.6781786595294861  0.6823890453734761  1.0000
  C   C5        1.0  0.45981207528874524  0.18505385877268313  0.31196631601060437  1.0000
  C   C6        1.0  0.5414012170688806  0.8085734305304514  0.6829133322494413  1.0000
  C   C7        1.0  0.959774446182365  0.3149388944245501  0.18803648927401176  1.0000
  C   C8        1.0  0.04142185573859079  0.6914339721750409  0.8170850104140042  1.0000
  C   C9        1.0  0.9079533907420085  0.6612255349531113  0.8982407937937538  1.0000
  C   C10       1.0  0.1314092755612322  0.390825688543849  0.14684286063575763  1.0000
  C   C11       1.0  0.4079818295338242  0.8387903513145504  0.6017620366471376  1.0000
  C   C12       1.0  0.6314550520916598  0.1091717793519607  0.3531676071354112  1.0000
  C   C13       1.0  0.9010650140024976  0.6208885316093031  0.9305763926729183  1.0000
  C   C14       1.0  0.12774841324177535  0.4241678166312682  0.10814801429688001  1.0000
  C   C15       1.0  0.4010565120565771  0.8791377321340548  0.5694335519285403  1.0000
  C   C16       1.0  0.6278034931195291  0.0758306042160228  0.39186358664409937  1.0000
  C   C17       1.0  0.0128307964554892  0.5731951178526701  0.9226311478190041  1.0000
  C   C18       1.0  0.9699767682866989  0.4237223410613423  0.07326871331860468  1.0000
  C   C19       1.0  0.5127587201118258  0.9268373266416319  0.577394526343653  1.0000
  C   C20       1.0  0.46995795124524153  0.07627522197746121  0.42673144613318204  1.0000
  C   C21       1.0  0.1402411268589958  0.5664805355260114  0.8808430966769052  1.0000
  C   C22       1.0  0.8063545596585726  0.3890078397300982  0.07851600845280159  1.0000
  C   C23       1.0  0.6401019076346014  0.9335560891828221  0.6191939889889181  1.0000
  C   C24       1.0  0.3062749161852025  0.1109733093387177  0.42147026935838733  1.0000
  C   C25       1.0  0.15101759155469094  0.6062084551919468  0.8482291207039266  1.0000
  C   C26       1.0  0.8059732894443313  0.3554051805392008  0.1166782591611764  1.0000
  C   C27       1.0  0.6509077349424855  0.893825560116845  0.6518030760018831  1.0000
  C   C28       1.0  0.3059477532102831  0.1445709550841983  0.3833057811056618  1.0000
  C   C29       1.0  0.033817315992962386  0.6529210925835544  0.8558925522282833  1.0000
  C   C30       1.0  0.9676689639038896  0.3549074427580551  0.15035106070557447  1.0000
  C   C31       1.0  0.5337857693974468  0.8471042016253423  0.6441199917387265  1.0000
  C   C32       1.0  0.4676934153764447  0.1450886250564096  0.3496498521095929  1.0000
  C   C33       1.0  0.17227602525453983  0.5055191125913723  0.9731773465000086  1.0000
  C   C34       1.0  0.8034896920372671  0.48536038723005975  0.017326308083788395  1.0000
  C   C35       1.0  0.6721930618785092  0.994506891332591  0.526852895890002  1.0000
  C   C36       1.0  0.3034405959919012  0.014643066686659292  0.4826749000376011  1.0000
  C   C37       1.0  0.16195760866649775  0.4700457176041938  0.009745721746028798  1.0000
  C   C38       1.0  0.8142008276626169  0.5213808017770206  0.9811875278390331  1.0000
  C   C39       1.0  0.6619075075002099  0.029974803933029582  0.4902787970805632  1.0000
  C   C40       1.0  0.3141400485733357  0.9786214600849591  0.5188126910780467  1.0000
  C   C41       1.0  0.9777928425162371  0.45961610050588314  0.0329705119075498  1.0000
  C   C42       1.0  0.9992643247870275  0.5326444127163442  0.9587610163956267  1.0000
  C   C43       1.0  0.4777485563983105  0.04039298679136041  0.4670378208806553  1.0000
  C   C44       1.0  0.49918570156001607  0.9673823677613882  0.5412624731117431  1.0000
  C   C45       1.0  0.8057265038411856  0.4312551806901652  0.4165493237600585  1.0000
  C   C46       1.0  0.1955514865579886  0.5639153422833587  0.5880387161514234  1.0000
  C   C47       1.0  0.30559184137189277  0.06876233685644449  0.08343735441766137  1.0000
  C   C48       1.0  0.6956319044970413  0.9360628508964338  0.911963455061304  1.0000
  C   C49       1.0  0.7954865336222098  0.39082958591870925  0.3776459033105509  1.0000
  C   C50       1.0  0.20248643112654457  0.6035611051294724  0.6276759689976004  1.0000
  C   C51       1.0  0.29537636666812966  0.1091959153299058  0.12233970391027776  1.0000
  C   C52       1.0  0.7025469063829134  0.8964144640091617  0.8723246821125911  1.0000
  C   C53       1.0  0.9673283172248615  0.3602854299425148  0.3635869400720181  1.0000
  C   C54       1.0  0.031877259177164795  0.6352409486387103  0.6401444048571959  1.0000
  C   C55       1.0  0.46726822933314327  0.1397233432338254  0.13639758933727109  1.0000
  C   C56       1.0  0.5318981724651407  0.8647533324758501  0.8598494961581267  1.0000
  C   C57       1.0  0.14961279078062256  0.3703869724032458  0.38943134920560835  1.0000
  C   C58       1.0  0.8535337611578482  0.6268199233456784  0.6123450788844095  1.0000
  C   C59       1.0  0.6495749815882872  0.1295895003646592  0.11057083388680407  1.0000
  C   C60       1.0  0.35357462576608606  0.8731757591987019  0.8876534861908068  1.0000
  C   C61       1.0  0.16031950514217636  0.4100982467223773  0.42886148255194456  1.0000
  C   C62       1.0  0.8466396083068373  0.5880638927661437  0.572049710906377  1.0000
  C   C63       1.0  0.6602103865738583  0.0898690199772147  0.0711454947115087  1.0000
  C   C64       1.0  0.34668982650958197  0.9119264861976717  0.9279548396669596  1.0000
  C   C65       1.0  0.9883942981746896  0.44138670663737406  0.44294912171896067  1.0000
  C   C66       1.0  0.017601079880407197  0.5558334313808686  0.5593183765816363  1.0000
  C   C67       1.0  0.4882505586753965  0.05860561581717151  0.057044626086508274  1.0000
  C   C68       1.0  0.5176753944149937  0.9441558180411036  0.9406834027493074  1.0000
  C   C69       1.0  0.9990481181292734  0.48182801378038687  0.48315995236488607  1.0000
  C   C70       1.0  0.009111843218967398  0.5161705296974901  0.5184027764714186  1.0000
  C   C71       1.0  0.49896453677977337  0.0181489993919755  0.016845291868570193  1.0000
  C   C72       1.0  0.5091894214374405  0.9838105840135757  0.9816005218324191  1.0000
  C   C73       1.0  0.7989459504892834  0.7132675409232904  0.9126874457229731  1.0000
  C   C74       1.0  0.9441241833345089  0.7610463311591076  0.9243343890513528  1.0000
  C   C75       1.0  0.8464286077319726  0.8062967793249102  0.9580493923586813  1.0000
  C   C76       1.0  0.2986302395693626  0.39850293526134106  0.1849636300490687  1.0000
  C   C77       1.0  0.2203853850913973  0.4243984966654111  0.23546916558495204  1.0000
  C   C78       1.0  0.38338440200373464  0.4317973525594568  0.27561139640375387  1.0000
  C   C79       1.0  0.29908334631193156  0.7867330681771351  0.5873027734310907  1.0000
  C   C80       1.0  0.4444080788655924  0.738982479040473  0.575646321313684  1.0000
  C   C81       1.0  0.3467180540460574  0.6937188612749097  0.5419562937973834  1.0000
  C   C82       1.0  0.7987475271131641  0.1015052403203995  0.31506777998426827  1.0000
  C   C83       1.0  0.72060233388612  0.07561985137051151  0.26454803627058954  1.0000
  C   C84       1.0  0.8837016560150701  0.0682242600532277  0.22443160315444285  1.0000
  O   O1        1.0  0.6269874240015908  0.2029163269665375  0.2970477322214292  1.0000
  O   O2        1.0  0.37335278370869657  0.7911520290971482  0.6978556954848398  1.0000
  O   O3        1.0  0.12692103763956908  0.2970937524836401  0.20297244954493723  1.0000
  O   O4        1.0  0.8733462994419977  0.7088520419597941  0.8021450310017569  1.0000
  O   O5        1.0  0.2866247754277821  0.19585176676702074  0.19679325373519418  1.0000
  O   O6        1.0  0.713009864156639  0.8075333296030607  0.8008111480875825  1.0000
  O   O7        1.0  0.7866571974274095  0.3041731701070916  0.303181956199161  1.0000
  O   O8        1.0  0.21301213139827974  0.6924691729838983  0.6991768113974357  1.0000
  O   O9        1.0  0.2857219846579823  0.19928301479365018  0.29768414758505907  1.0000
  O   O10       1.0  0.7138961058218383  0.7970628738678373  0.6999537654135252  1.0000
  O   O11       1.0  0.7856597563519185  0.30068985473014465  0.2022813429924639  1.0000
  O   O12       1.0  0.21388564402753465  0.7029482486361117  0.8000327061385234  1.0000
  O   O13       1.0  0.1287220653165448  0.2993498989642518  0.30472953067767605  1.0000
  O   O14       1.0  0.8701723503300015  0.6969739074047895  0.6984446065236013  1.0000
  O   O15       1.0  0.6286877792762764  0.2006267095848386  0.19528354177784016  1.0000
  O   O16       1.0  0.37018104364584287  0.8030283370465128  0.8015535234125363  1.0000
  O   O17       1.0  0.4542795947759187  0.28209532464109094  0.25200029316592065  1.0000
  O   O18       1.0  0.5462914671784842  0.7172405761015812  0.7512001404520984  1.0000
  O   O19       1.0  0.9542725875027781  0.2178995458395647  0.24799135830475189  1.0000
  O   O20       1.0  0.0462940885082546  0.7827624591184306  0.7487911003800034  1.0000
