data_image0
_chemical_formula_structural       K2H48C24N6O12
_chemical_formula_sum              "K2 H48 C24 N6 O12"
_cell_length_a       7.431907565866753
_cell_length_b       7.836107111428931
_cell_length_c       13.930073099005812
_cell_angle_alpha    89.99989740370556
_cell_angle_beta     89.99998917295923
_cell_angle_gamma    95.69071707784394

_space_group_name_H-M_alt    "P 1"
_space_group_IT_number       1

loop_
  _space_group_symop_operation_xyz
  'x, y, z'

loop_
  _atom_site_type_symbol
  _atom_site_label
  _atom_site_symmetry_multiplicity
  _atom_site_fract_x
  _atom_site_fract_y
  _atom_site_fract_z
  _atom_site_occupancy
  K   K1        1.0  0.4999790464329408  0.5000174850768745  0.500005712238007  1.0000
  K   K2        1.0  1.710015537530122e-05  0.4999799492976464  1.9019733486e-06  1.0000
  H   H1        1.0  0.5101772350427041  0.8109004931647021  0.2171046707860782  1.0000
  H   H2        1.0  0.9898033592075706  0.18909935290656685  0.717102334269029  1.0000
  H   H3        1.0  0.4898017481924698  0.18910481156539302  0.7828995749905232  1.0000
  H   H4        1.0  0.010181482895255601  0.8108982101591523  0.282894732797935  1.0000
  H   H5        1.0  0.3403436250563417  0.7581793504727941  0.3067646809990521  1.0000
  H   H6        1.0  0.1596490505634378  0.2418119765061419  0.8067565838089406  1.0000
  H   H7        1.0  0.6596494770381157  0.24180788719504417  0.6932467434991167  1.0000
  H   H8        1.0  0.8403450592775742  0.7581842382022758  0.1932347402876218  1.0000
  H   H9        1.0  0.3494728651673782  0.5354518919002799  0.1790339481721048  1.0000
  H   H10       1.0  0.1505162945551106  0.46454372555641044  0.6790320886024546  1.0000
  H   H11       1.0  0.6505161544814301  0.4645469253259691  0.8209695797359018  1.0000
  H   H12       1.0  0.8494749822635441  0.5354512255485986  0.3209671320794527  1.0000
  H   H13       1.0  0.5756174785524522  0.5038799678490591  0.2121256663110458  1.0000
  H   H14       1.0  0.9243737313067443  0.49611853660874067  0.7121244634992081  1.0000
  H   H15       1.0  0.4243779269528289  0.4961277887208695  0.787869247136257  1.0000
  H   H16       1.0  0.07561917796697772  0.5038789699407787  0.2878718856960276  1.0000
  H   H17       1.0  0.43702470601922283  0.1908858910092164  0.2708835990206993  1.0000
  H   H18       1.0  0.06296453596654322  0.8091107104957446  0.7708835556020261  1.0000
  H   H19       1.0  0.5629771830643762  0.8091077023107687  0.7291149037899913  1.0000
  H   H20       1.0  0.9370198742470707  0.19088300527736377  0.22911566508086167  1.0000
  H   H21       1.0  0.2354960071490382  0.26244288501887064  0.22256868017120718  1.0000
  H   H22       1.0  0.2644948997467651  0.7375564288841047  0.7225658157099843  1.0000
  H   H23       1.0  0.7645078023133607  0.7375558285957027  0.7774326941220904  1.0000
  H   H24       1.0  0.7354900863188832  0.2624424166113215  0.2774312513563189  1.0000
  H   H25       1.0  0.09478035827553553  0.2467796877949198  0.387416358892537  1.0000
  H   H26       1.0  0.40521658467714156  0.753213913777351  0.8874120278531095  1.0000
  H   H27       1.0  0.9052289732634553  0.7532202705711202  0.6125850153998443  1.0000
  H   H28       1.0  0.5947761806347104  0.24678231034712894  0.1125814498574869  1.0000
  H   H29       1.0  0.1583225133864374  0.04439455733277241  0.3465616825074491  1.0000
  H   H30       1.0  0.3416759455009882  0.9556004499673847  0.8465578724236236  1.0000
  H   H31       1.0  0.8416824966415676  0.9556028644325351  0.6534396917864456  1.0000
  H   H32       1.0  0.6583141307534959  0.044395792993881904  0.15343704102975406  1.0000
  H   H33       1.0  0.18380483518934201  0.9521816074145804  0.514627822566915  1.0000
  H   H34       1.0  0.3161950472365049  0.047813186341620885  0.014623715715813997  1.0000
  H   H35       1.0  0.8162000308758339  0.04781453192101991  0.48537355172762625  1.0000
  H   H36       1.0  0.6838054973186517  0.9521804163979227  0.9853747870949476  1.0000
  H   H37       1.0  0.1112029530139438  0.1566144923366863  0.5477400416201803  1.0000
  H   H38       1.0  0.3887988275487118  0.8433853141509502  0.047736561915769506  1.0000
  H   H39       1.0  0.8888011443745968  0.843386786139625  0.4522598969291707  1.0000
  H   H40       1.0  0.6112020049325937  0.15661085345033857  0.9522605051510382  1.0000
  H   H41       1.0  0.5180058762514648  0.9640172849858075  0.4041072013646883  1.0000
  H   H42       1.0  0.9819941844580244  0.03597668258878879  0.9041028662013204  1.0000
  H   H43       1.0  0.4819918352808515  0.0359750541479897  0.5959006337740504  1.0000
  H   H44       1.0  0.01800352707814304  0.9640156565636671  0.0958934829962601  1.0000
  H   H45       1.0  0.7095117989127717  0.9888963946421614  0.32618511800040295  1.0000
  H   H46       1.0  0.7904821673476121  0.011103002876026797  0.8261851356173651  1.0000
  H   H47       1.0  0.29047928507886683  0.011108825314217101  0.6738176920329477  1.0000
  H   H48       1.0  0.2095134309825042  0.9888944848320378  0.1738126493203822  1.0000
  C   C1        1.0  0.4696465534338331  0.7230724585314193  0.2771927004790697  1.0000
  C   C2        1.0  0.030345373371297106  0.2769241036415835  0.7771910426388685  1.0000
  C   C3        1.0  0.5303478443289792  0.27692632101774706  0.7228101095573507  1.0000
  C   C4        1.0  0.9696473919391126  0.723072120475898  0.22280674229966724  1.0000
  C   C5        1.0  0.4462177450669316  0.5422718606969285  0.2391585343147042  1.0000
  C   C6        1.0  0.05377391936233521  0.45772226017648887  0.7391545383586687  1.0000
  C   C7        1.0  0.553780686281698  0.45772689059589317  0.7608428399788636  1.0000
  C   C8        1.0  0.9462161568919074  0.5422739827836198  0.2608410929660323  1.0000
  C   C9        1.0  0.319835878462726  0.26216634879870787  0.2879351669476975  1.0000
  C   C10       1.0  0.1801558971631252  0.7378288960455707  0.7879344648574216  1.0000
  C   C11       1.0  0.6801700442057171  0.7378272162602573  0.7120647716054406  1.0000
  C   C12       1.0  0.819830145504348  0.2621673751662216  0.2120654736954179  1.0000
  C   C13       1.0  0.21115267445110675  0.1754895510806094  0.3691472812509531  1.0000
  C   C14       1.0  0.2888430802077764  0.8245054016879295  0.8691436087858619  1.0000
  C   C15       1.0  0.7888535361425114  0.8245065788354325  0.6308540930435244  1.0000
  C   C16       1.0  0.711146996046466  0.175490841272179  0.1308520225388392  1.0000
  C   C17       1.0  0.23016428972726294  0.08744698925389123  0.5314056259861246  1.0000
  C   C18       1.0  0.2698357253909265  0.9125490324275062  0.0314020894012899  1.0000
  C   C19       1.0  0.7698420648296674  0.9125504230941885  0.4685943125650525  1.0000
  C   C20       1.0  0.7301622740706577  0.08744587158319919  0.9685949776663063  1.0000
  C   C21       1.0  0.6435178538654186  0.9085893059918462  0.383932166888627  1.0000
  C   C22       1.0  0.8564810198291255  0.0914060189636032  0.8839328144732761  1.0000
  C   C23       1.0  0.35648192201141177  0.09140943588024442  0.6160699252761999  1.0000
  C   C24       1.0  0.14351697963174107  0.9085888850435992  0.11606640620829009  1.0000
  N   N1        1.0  0.12474814796272685  0.6077213813966652  0.5040702655542688  1.0000
  N   N2        1.0  0.3753041266738749  0.3923205668643349  0.0040701128458309  1.0000
  N   N3        1.0  0.8753103037887089  0.39232058630643246  0.4959296729716982  1.0000
  N   N4        1.0  0.6247380467739067  0.6077202314461305  0.9959283899389461  1.0000
  N   N5        1.0  2.0819218050885445e-05  0.5000137627656186  0.49999927817234635  1.0000
  N   N6        1.0  0.5000224792619009  0.5000215012415056  0.9999994990932562  1.0000
  O   O1        1.0  0.6046321108217754  0.7363574145318665  0.3506531768805488  1.0000
  O   O2        1.0  0.8953701940986322  0.26364441184183823  0.8506536469283503  1.0000
  O   O3        1.0  0.39537213052982884  0.2636451463753176  0.6493460437968253  1.0000
  O   O4        1.0  0.10463227083604208  0.7363543111957966  0.1493455737510487  1.0000
  O   O5        1.0  0.37763793723021183  0.432960466784344  0.3162436156284442  1.0000
  O   O6        1.0  0.12235842881683821  0.5670397875606101  0.8162416559049461  1.0000
  O   O7        1.0  0.6223724509118044  0.567036917303888  0.6837570407938571  1.0000
  O   O8        1.0  0.8776332798907875  0.4329590108358444  0.1837561290323535  1.0000
  O   O9        1.0  0.3255648794562306  0.16722852011839962  0.4510262465988433  1.0000
  O   O10       1.0  0.17443350925733372  0.8327661478181625  0.9510254495577755  1.0000
  O   O11       1.0  0.6744428196289077  0.8327688828089492  0.5489744098235931  1.0000
  O   O12       1.0  0.8255631456748491  0.16722876560743322  0.048974488995178006  1.0000
