data_image0
_chemical_formula_structural       Ni2Mo6H28C32N12O20
_chemical_formula_sum              "Ni2 Mo6 H28 C32 N12 O20"
_cell_length_a       7.9322017301673835
_cell_length_b       11.54978834949446
_cell_length_c       12.968338348860168
_cell_angle_alpha    63.55733957122186
_cell_angle_beta     85.36512438200245
_cell_angle_gamma    79.5361323563685

_space_group_name_H-M_alt    "P 1"
_space_group_IT_number       1

loop_
  _space_group_symop_operation_xyz
  'x, y, z'

loop_
  _atom_site_type_symbol
  _atom_site_label
  _atom_site_symmetry_multiplicity
  _atom_site_fract_x
  _atom_site_fract_y
  _atom_site_fract_z
  _atom_site_occupancy
  Ni  Ni1       1.0  0.9907624350828217  0.7557000673502114  0.3038771803341688  1.0000
  Ni  Ni2       1.0  0.4909012411671228  0.05955101527145253  0.6961327898957705  1.0000
  Mo  Mo1       1.0  0.2740185826315767  0.010175336542424447  0.2304734713841015  1.0000
  Mo  Mo2       1.0  0.7741664600849064  0.2407289528987636  0.7694406049151538  1.0000
  Mo  Mo3       1.0  0.5188617358633607  0.26678315136911124  0.983331915239205  1.0000
  Mo  Mo4       1.0  0.018911071460614392  0.2503574427740176  0.01648931857532427  1.0000
  Mo  Mo5       1.0  0.6394557347186237  0.9525830712651736  0.09642091563740947  1.0000
  Mo  Mo6       1.0  0.13957785907820863  0.04904385786643694  0.9035539267134423  1.0000
  H   H1        1.0  0.36164083410245235  0.6107338629316886  0.37083143882426833  1.0000
  H   H2        1.0  0.861975203439784  0.98199199575825  0.6289652845381395  1.0000
  H   H3        1.0  0.5122175427951915  0.43951448865655623  0.5534087266167163  1.0000
  H   H4        1.0  0.012533829247004821  0.9937187131727824  0.44624346935649567  1.0000
  H   H5        1.0  0.34271461311704604  0.366820400099556  0.7375063656909049  1.0000
  H   H6        1.0  0.8427300209347309  0.10494620881218718  0.26224349990123835  1.0000
  H   H7        1.0  0.03903940715594703  0.4715565287398605  0.7342795726758381  1.0000
  H   H8        1.0  0.5388679550443599  0.20592509275191875  0.26564772896606575  1.0000
  H   H9        1.0  0.7182628817584914  0.5852595051828474  0.7032531012022571  1.0000
  H   H10       1.0  0.21804355870220596  0.2879999374581602  0.29684433838259844  1.0000
  H   H11       1.0  0.4593846419242384  0.7744077610593009  0.564378455671239  1.0000
  H   H12       1.0  0.959204135221825  0.3384447620884643  0.43565059416869895  1.0000
  H   H13       1.0  0.6664120456777671  0.6043070109076465  0.39900470469603255  1.0000
  H   H14       1.0  0.1666902043049276  0.0032668742501230498  0.6010929595528793  1.0000
  H   H15       1.0  0.5325939538823974  0.45438200306930565  0.3496784300238644  1.0000
  H   H16       1.0  0.03285662315894204  0.8039791428961961  0.6503997604312133  1.0000
  H   H17       1.0  0.6720547560364382  0.3895015167308529  0.19764056262960134  1.0000
  H   H18       1.0  0.1724765348914944  0.587076000843581  0.802384294344641  1.0000
  H   H19       1.0  0.9516393182312725  0.45997989589061206  0.11514306451930162  1.0000
  H   H20       1.0  0.45187559434200625  0.57505185417196  0.8849848690578596  1.0000
  H   H21       1.0  0.2575155084927303  0.5029687987634048  0.07457336594170982  1.0000
  H   H22       1.0  0.7576199389328835  0.5775788994790431  0.9258714500441484  1.0000
  H   H23       1.0  0.4992521589434062  0.6551716907802287  0.05893984766473881  1.0000
  H   H24       1.0  0.9993925434965194  0.7142940350738912  0.9412254658399062  1.0000
  H   H25       1.0  0.5902541851999245  0.8805094551254911  0.3678143048642822  1.0000
  H   H26       1.0  0.09015717531421787  0.2482407547538801  0.6321645232297753  1.0000
  H   H27       1.0  0.3755845122606731  0.7874395379990915  0.16946358964949584  1.0000
  H   H28       1.0  0.87578202300179  0.9570251411331511  0.8304416359455045  1.0000
  C   C1        1.0  0.2961308606650947  0.5763969474643177  0.45349594477560357  1.0000
  C   C2        1.0  0.7963481874597351  0.030208307625287076  0.546336052324115  1.0000
  C   C3        1.0  0.3783365612283519  0.4823838276621331  0.554513530628526  1.0000
  C   C4        1.0  0.878525050342468  0.03737145913592597  0.4452633468161338  1.0000
  C   C5        1.0  0.28481878740441163  0.442446493991369  0.6569527565070672  1.0000
  C   C6        1.0  0.7848463502978118  0.09976398259490092  0.34287346305827526  1.0000
  C   C7        1.0  0.11468230587406238  0.5006254125029912  0.6554732499710737  1.0000
  C   C8        1.0  0.6145881539725053  0.15617081215637543  0.3444327282937252  1.0000
  C   C9        1.0  0.04106654728469299  0.595671335991753  0.55094272678172  1.0000
  C   C10       1.0  0.540986787733907  0.14651037425130656  0.44902711650986044  1.0000
  C   C11       1.0  0.865978229717577  0.6655012808115118  0.5378321676455186  1.0000
  C   C12       1.0  0.36584354015257503  0.20308806323307493  0.4622176412528631  1.0000
  C   C13       1.0  0.7247068984259645  0.6541076480624286  0.6133349178537556  1.0000
  C   C14       1.0  0.22451158973010624  0.26707930897253374  0.3867241917854543  1.0000
  C   C15       1.0  0.5921653624428062  0.7470784744395119  0.5456661622353636  1.0000
  C   C16       1.0  0.09199556771011437  0.29242884123393514  0.45437836305655566  1.0000
  C   C17       1.0  0.7263496935941234  0.5690362246032379  0.33753858334751635  1.0000
  C   C18       1.0  0.22654030956945106  0.9065449806459401  0.6626215912315343  1.0000
  C   C19       1.0  0.6522433740927274  0.4862274581268124  0.3094818211667913  1.0000
  C   C20       1.0  0.15239796911988898  0.7956985278810365  0.6906738690889682  1.0000
  C   C21       1.0  0.7310492983471518  0.44772291980958556  0.2268633542547746  1.0000
  C   C22       1.0  0.23127320342133847  0.6745901725840542  0.7732584399155796  1.0000
  C   C23       1.0  0.885536035446357  0.487762486438868  0.17976484452182714  1.0000
  C   C24       1.0  0.3857574258004351  0.6674875221410447  0.8203872382897258  1.0000
  C   C25       1.0  0.954635180181569  0.5679765804984456  0.2143279037198127  1.0000
  C   C26       1.0  0.4548406840622763  0.7822415194317857  0.7858654122258029  1.0000
  C   C27       1.0  0.11708610597528246  0.6111016158695008  0.17221631595267425  1.0000
  C   C28       1.0  0.6172722457394502  0.7833200250141774  0.8279587493748791  1.0000
  C   C29       1.0  0.2501187759826495  0.57412299003591  0.10858446074124113  1.0000
  C   C30       1.0  0.7502685419862164  0.6827550945575707  0.8916713421763801  1.0000
  C   C31       1.0  0.3749320167062536  0.6479059686407352  0.10031959515283258  1.0000
  C   C32       1.0  0.875084495819849  0.7483355468494822  0.8998326885045457  1.0000
  N   N1        1.0  0.13097892687822119  0.6302026693214344  0.45104521832252686  1.0000
  N   N2        1.0  0.6310760129683006  0.08128428864556991  0.548875155681614  1.0000
  N   N3        1.0  0.8212698150042572  0.7604512539029571  0.431111921986222  1.0000
  N   N4        1.0  0.32119963769415  0.19142555064644284  0.5689103415981548  1.0000
  N   N5        1.0  0.6555688994152861  0.8075658663720163  0.4378940184438563  1.0000
  N   N6        1.0  0.15546456895759778  0.2452816734529364  0.5621262922483226  1.0000
  N   N7        1.0  0.8739666625637669  0.6106489931033536  0.2904026607331999  1.0000
  N   N8        1.0  0.37419085536885205  0.9009931209122255  0.7097382544492419  1.0000
  N   N9        1.0  0.15934569321735392  0.7012483703709762  0.20047868889616888  1.0000
  N   N10       1.0  0.6595211938769627  0.90176523809977  0.7995590132079399  1.0000
  N   N11       1.0  0.3158921072591243  0.7215326337399617  0.15665029171659467  1.0000
  N   N12       1.0  0.8160537259869758  0.8782797848347103  0.8433862753136551  1.0000
  O   O1        1.0  0.4529779237074934  0.8843515423850477  0.21018382689426562  1.0000
  O   O2        1.0  0.9532051525083389  0.09463822275237292  0.7897417636568419  1.0000
  O   O3        1.0  0.11735043725152401  0.908904464455503  0.28022881115222725  1.0000
  O   O4        1.0  0.6174634563752335  0.1891579394993813  0.7197548132793868  1.0000
  O   O5        1.0  0.14845632795253755  0.184424963757138  0.15822281063916677  1.0000
  O   O6        1.0  0.6484705759763616  0.34268525774701447  0.8416516627789717  1.0000
  O   O7        1.0  0.17911925308585816  0.06050449723962711  0.0377922760182585  1.0000
  O   O8        1.0  0.6792565345378494  0.0982722151921609  0.9622409957514646  1.0000
  O   O9        1.0  0.5053125971557934  0.3821948889791429  0.03492443143072421  1.0000
  O   O10       1.0  0.005577714775995536  0.41733074396433517  0.9650303470115061  1.0000
  O   O11       1.0  0.3200614444567195  0.29368086283798095  0.9236783064590524  1.0000
  O   O12       1.0  0.8201049891854169  0.2176896012137206  0.07611810937058287  1.0000
  O   O13       1.0  0.6260315275752218  0.8396551658992166  0.04675523136270951  1.0000
  O   O14       1.0  0.12638771481496763  0.8864335647312701  0.9531429574296978  1.0000
  O   O15       1.0  0.49102823277601004  0.11087800101581281  0.12091790223227147  1.0000
  O   O16       1.0  0.9910479703276285  0.23197631566036156  0.8789420660243507  1.0000
  O   O17       1.0  0.8232162940954312  0.8964880127120336  0.181856752715177  1.0000
  O   O18       1.0  0.32335074020745946  0.07833852567188888  0.818168924666793  1.0000
  O   O19       1.0  0.3421164808532779  0.0060951791696766565  0.3547287314692369  1.0000
  O   O20       1.0  0.8421304441157177  0.36087347145454635  0.6451126213704512  1.0000
