data_image0
_chemical_formula_structural       Cd2H44C32Br4N4
_chemical_formula_sum              "Cd2 H44 C32 Br4 N4"
_cell_length_a       4.31372741302227
_cell_length_b       14.491405414083115
_cell_length_c       14.460548035375046
_cell_angle_alpha    111.52870100806967
_cell_angle_beta     90.00012898068647
_cell_angle_gamma    90.00027029235612

_space_group_name_H-M_alt    "P 1"
_space_group_IT_number       1

loop_
  _space_group_symop_operation_xyz
  'x, y, z'

loop_
  _atom_site_type_symbol
  _atom_site_label
  _atom_site_symmetry_multiplicity
  _atom_site_fract_x
  _atom_site_fract_y
  _atom_site_fract_z
  _atom_site_occupancy
  Cd  Cd1       1.0  0.4976058452370253  0.9999995094050079  0.7499990416810718  1.0000
  Cd  Cd2       1.0  0.5023947496159027  1.1230087437996632e-06  0.2500017016509871  1.0000
  H   H1        1.0  0.8364480368335876  0.8305075335083175  0.6630355123487491  1.0000
  H   H2        1.0  0.8364504324193974  0.1694927675417262  0.8369627457623992  1.0000
  H   H3        1.0  0.16354792166200127  0.16949383598262804  0.3369648061181039  1.0000
  H   H4        1.0  0.16355248061692862  0.8305078695955501  0.16303869083024133  1.0000
  H   H5        1.0  0.8082498422691631  0.8879209018310734  0.5834217540047817  1.0000
  H   H6        1.0  0.8082472884967161  0.11208009154570682  0.9165774265881481  1.0000
  H   H7        1.0  0.19175075259744292  0.11208121418857081  0.4165795261212537  1.0000
  H   H8        1.0  0.19175794269987992  0.8879183201849656  0.08342320481514082  1.0000
  H   H9        1.0  0.4023542644574293  0.8595922971970752  0.4636115322471426  1.0000
  H   H10       1.0  0.4023493339833522  0.1404075947006049  0.0363845586451674  1.0000
  H   H11       1.0  0.5976301031599648  0.1404113071341655  0.5363909779205825  1.0000
  H   H12       1.0  0.5976582153940343  0.8595908170322988  0.9636160727597273  1.0000
  H   H13       1.0  0.022127221816987203  0.7371752612365229  0.36000797515490046  1.0000
  H   H14       1.0  0.022124988311873005  0.2628246370053162  0.1399871626953271  1.0000
  H   H15       1.0  0.9778641003469916  0.2628290801830531  0.6399941101556692  1.0000
  H   H16       1.0  0.9778779246997191  0.7371730376414758  0.860013893568336  1.0000
  H   H17       1.0  0.884185783719751  0.5893407537495323  0.40192694317997996  1.0000
  H   H18       1.0  0.8841902033429109  0.41065856639618664  0.09806720047096466  1.0000
  H   H19       1.0  0.11581944747747032  0.41065911798053634  0.5980707587224074  1.0000
  H   H20       1.0  0.11581039148789071  0.5893391082483818  0.9019338557910854  1.0000
  H   H21       1.0  0.1171928840355392  0.569589572996108  0.5501662786620756  1.0000
  H   H22       1.0  0.1171955900357489  0.43041006394877723  0.9498277824178274  1.0000
  H   H23       1.0  0.8828193017056521  0.430411031100995  0.4498303051241805  1.0000
  H   H24       1.0  0.882800368433479  0.569587610691336  0.05017327384100417  1.0000
  H   H25       1.0  0.45435365202964567  0.7590598071785308  0.7507487568074396  1.0000
  H   H26       1.0  0.45435652149038924  0.24094123370642967  0.7492481208041325  1.0000
  H   H27       1.0  0.5456538973672522  0.24094155760225527  0.24925086840848815  1.0000
  H   H28       1.0  0.5456440733557032  0.7590586569043791  0.25075235413093816  1.0000
  H   H29       1.0  0.7795311016918022  0.6994650751255024  0.6822357143850724  1.0000
  H   H30       1.0  0.7795354182969733  0.3005351118191655  0.8177617714038306  1.0000
  H   H31       1.0  0.22046717496567686  0.3005348013191806  0.3177626807714589  1.0000
  H   H32       1.0  0.22046517654227674  0.6994640369887011  0.1822384351342451  1.0000
  H   H33       1.0  0.19228416854591052  0.591845700985978  0.7110592706265493  1.0000
  H   H34       1.0  0.19229460222253184  0.40815408972326145  0.7889362812876684  1.0000
  H   H35       1.0  0.8077141081157962  0.4081549125403542  0.2889386996679947  1.0000
  H   H36       1.0  0.8077059926235608  0.5918458008875476  0.2110641936474025  1.0000
  H   H37       1.0  0.553946153479231  0.599432474730186  0.7710668955923196  1.0000
  H   H38       1.0  0.5539560221638881  0.40056875756354066  0.7289301203703005  1.0000
  H   H39       1.0  0.44604980500429303  0.4005681435152227  0.22893176795959394  1.0000
  H   H40       1.0  0.4460445726753691  0.5994303912443185  0.271070086167775  1.0000
  H   H41       1.0  0.5232083874890989  0.532851891000341  0.6410333941524087  1.0000
  H   H42       1.0  0.5232179519151003  0.4671485451380094  0.8589640039734617  1.0000
  H   H43       1.0  0.47679220735338385  0.4671487225282221  0.3589645761437481  1.0000
  H   H44       1.0  0.4767849611143832  0.5328513501963243  0.14103716422219037  1.0000
  C   C1        1.0  0.46880933930027874  0.7841721530511164  0.5660049249042487  1.0000
  C   C2        1.0  0.4688085485937493  0.2158274320061224  0.9339914359915156  1.0000
  C   C3        1.0  0.5311843010229681  0.21583069060089605  0.43399454383702357  1.0000
  C   C4        1.0  0.531194364427286  0.7841709891649131  0.06601058192810434  1.0000
  C   C5        1.0  0.3379339059543724  0.7957607547293225  0.4824455786089815  1.0000
  C   C6        1.0  0.3379275226331515  0.20423826683632743  0.01754946113858583  1.0000
  C   C7        1.0  0.6620690071083075  0.20424357725879363  0.5175551201916875  1.0000
  C   C8        1.0  0.662077708547159  0.7957586565671521  0.9824499402117438  1.0000
  C   C9        1.0  0.12717573199561372  0.7259753343368517  0.42360594507243116  1.0000
  C   C10       1.0  0.1271755208287573  0.2740225403857722  0.07638853351348734  1.0000
  C   C11       1.0  0.8728132719497808  0.2740260209835128  0.5763922936126632  1.0000
  C   C12       1.0  0.872825074004659  0.7259751389800896  0.9236132160075384  1.0000
  C   C13       1.0  0.04950221019288391  0.6440275824597563  0.4475281805708419  1.0000
  C   C14       1.0  0.04950311189347191  0.3559730960348234  0.052465183928845256  1.0000
  C   C15       1.0  0.950503021030066  0.3559745241217486  0.5524717130404682  1.0000
  C   C16       1.0  0.9504974829441724  0.6440253204126947  0.9475361407302003  1.0000
  C   C17       1.0  0.179716972171704  0.633530351688741  0.5315086822209238  1.0000
  C   C18       1.0  0.17971880979690272  0.36646867305700687  0.9684865838329628  1.0000
  C   C19       1.0  0.8202813044684946  0.36646876406781104  0.46848667150271683  1.0000
  C   C20       1.0  0.8202794668531156  0.6335290015853375  0.0315144724274817  1.0000
  C   C21       1.0  0.387505568037632  0.703382506953098  0.5933025609853078  1.0000
  C   C22       1.0  0.38750584688217776  0.2966176542117083  0.9066925688493439  1.0000
  C   C23       1.0  0.6124973450182125  0.2966210832320685  0.40669786941837316  1.0000
  C   C24       1.0  0.6124947479596871  0.7033814993174518  0.09330833094771417  1.0000
  C   C25       1.0  0.5246123206156029  0.6939794396608505  0.6855017739326  1.0000
  C   C26       1.0  0.5246190175331051  0.3060209897303068  0.8144942396235704  1.0000
  C   C27       1.0  0.47538827422949476  0.3060211785890132  0.31449688962253214  1.0000
  C   C28       1.0  0.47538157730615194  0.6939781590775598  0.18550596691451202  1.0000
  C   C29       1.0  0.44350544705122985  0.5992027377906268  0.7026875676029505  1.0000
  C   C30       1.0  0.4435158270410824  0.4007975451712582  0.7973097198063355  1.0000
  C   C31       1.0  0.5564951478007032  0.4007986222621795  0.29731136434917  1.0000
  C   C32       1.0  0.5564870859815728  0.5992016083601328  0.20269117999232833  1.0000
  Br  Br1       1.0  0.08567886793500891  0.9331577749453716  0.8484215197474257  1.0000
  Br  Br2       1.0  0.08567827060375072  0.06684108795590758  0.6515763887102108  1.0000
  Br  Br3       1.0  0.9143217269110836  0.0668421156654375  0.15157895518764514  1.0000
  Br  Br4       1.0  0.9143200060830594  0.9331603004224577  0.3484267027941571  1.0000
  N   N1        1.0  0.6823308091232081  0.8570368387659216  0.624877796457362  1.0000
  N   N2        1.0  0.6823330702372346  0.1429624195692512  0.87511928591001  1.0000
  N   N3        1.0  0.317665149373994  0.14296526308537244  0.375121403888528  1.0000
  N   N4        1.0  0.31766984278541344  0.8570367339621329  0.12488161388866102  1.0000
