data_image0
_chemical_formula_structural       Zn2H20C48S6N8O38
_chemical_formula_sum              "Zn2 H20 C48 S6 N8 O38"
_cell_length_a       11.82313957340974
_cell_length_b       13.030668689198835
_cell_length_c       23.556394689380856
_cell_angle_alpha    88.47224799275038
_cell_angle_beta     85.4656957531522
_cell_angle_gamma    86.37622693875652

_space_group_name_H-M_alt    "P 1"
_space_group_IT_number       1

loop_
  _space_group_symop_operation_xyz
  'x, y, z'

loop_
  _atom_site_type_symbol
  _atom_site_label
  _atom_site_symmetry_multiplicity
  _atom_site_fract_x
  _atom_site_fract_y
  _atom_site_fract_z
  _atom_site_occupancy
  Zn  Zn1       1.0  0.6164865270514781  0.5048662010462408  0.49353085558230714  1.0000
  Zn  Zn2       1.0  0.37069809017442157  0.4932786600312725  0.5064807494190405  1.0000
  H   H1        1.0  0.5191775502404068  0.7673736303446577  0.9456816401713727  1.0000
  H   H2        1.0  0.6037999680229618  0.24895883854262024  0.049426121199189814  1.0000
  H   H3        1.0  0.6927116423616083  0.41467614361135235  0.21899485238552785  1.0000
  H   H4        1.0  0.6711317982277761  0.614909873932696  0.7655730357358623  1.0000
  H   H5        1.0  0.3536804143460301  0.18147842700066974  0.5012382201057904  1.0000
  H   H6        1.0  0.6277381011054073  0.8173031158363387  0.4997268101212102  1.0000
  H   H7        1.0  0.25396082415306864  0.0172716400085946  0.49785883809369136  1.0000
  H   H8        1.0  0.7266446635371436  0.9802898423264498  0.5040725771118347  1.0000
  H   H9        1.0  0.8067042820502481  0.39057141724535427  0.5408989966568215  1.0000
  H   H10       1.0  0.1768660391389147  0.6117505184346612  0.46212171611291813  1.0000
  H   H11       1.0  0.7740998223685125  0.6469330922441189  0.4333571089845378  1.0000
  H   H12       1.0  0.211849172081557  0.348899550961228  0.5647358628827706  1.0000
  H   H13       1.0  0.0030381431297143956  0.32361282466700914  0.5703191675252626  1.0000
  H   H14       1.0  0.9838909850270595  0.6743167028943873  0.4292428316186233  1.0000
  H   H15       1.0  0.5645660039195307  0.9383631348771788  0.002502863871597994  1.0000
  H   H16       1.0  0.7392617729782958  0.11769295048786432  0.9900805648443768  1.0000
  H   H17       1.0  0.3670325086824988  0.6617160844206965  0.412241503295455  1.0000
  H   H18       1.0  0.4255922124931431  0.32649579487281244  0.5957362390530748  1.0000
  H   H19       1.0  0.278744980900953  0.7049759229961128  0.21530004578891498  1.0000
  H   H20       1.0  0.3532254262925747  0.27335376646765047  0.7981975110107343  1.0000
  C   C1        1.0  0.46193347698832093  0.6964234116646821  0.4951943151476785  1.0000
  C   C2        1.0  0.523197383792464  0.30148894496452533  0.506616209174787  1.0000
  C   C3        1.0  0.49487948783668406  0.49244932454988793  0.3914772168476618  1.0000
  C   C4        1.0  0.5010985672230674  0.5075129544688437  0.6079745431216423  1.0000
  C   C5        1.0  0.5841733078335665  0.4216875215107906  0.8732523481701124  1.0000
  C   C6        1.0  0.5533338041744287  0.5948996339084118  0.1214166175695723  1.0000
  C   C7        1.0  0.5382911129596907  0.6125761061346324  0.8766426348472439  1.0000
  C   C8        1.0  0.5647535250132307  0.4016729638823265  0.11876153714770514  1.0000
  C   C9        1.0  0.5478837410063803  0.6053591459075848  0.9389147787335976  1.0000
  C   C10       1.0  0.5769305670542195  0.41099600768195205  0.0559010453300033  1.0000
  C   C11       1.0  0.5665830247563619  0.5091432521427849  0.9670650613539141  1.0000
  C   C12       1.0  0.565251059718122  0.5078620930677645  0.027648115404097992  1.0000
  C   C13       1.0  0.5863812300289837  0.41664238245479623  0.9360437243626908  1.0000
  C   C14       1.0  0.5521948799579235  0.6009722649175941  0.058506275656853304  1.0000
  C   C15       1.0  0.5343532862718304  0.6955381984826235  0.9692266618264825  1.0000
  C   C16       1.0  0.5963382010276349  0.3212506862999405  0.025463351447463388  1.0000
  C   C17       1.0  0.5385455906956763  0.6951110082103115  0.028787553069520314  1.0000
  C   C18       1.0  0.6047473262967316  0.32298581970898965  0.9655949088328486  1.0000
  C   C19       1.0  0.6132099452729705  0.44671319945815213  0.23964369758079587  1.0000
  C   C20       1.0  0.6033977995135585  0.5720139266645888  0.7509306506667955  1.0000
  C   C21       1.0  0.5934219453353508  0.4412393383014432  0.29816362981978983  1.0000
  C   C22       1.0  0.5841799428682036  0.5723204975720863  0.6937769249681338  1.0000
  C   C23       1.0  0.49745815065765003  0.4898131270835365  0.3272274427657251  1.0000
  C   C24       1.0  0.505066292148598  0.5112358317927957  0.6719763144970871  1.0000
  C   C25       1.0  0.415062792557549  0.538866595672829  0.2944240079489191  1.0000
  C   C26       1.0  0.4382178645698716  0.45298169914661207  0.7111173470841905  1.0000
  C   C27       1.0  0.424715633382533  0.5308149759616542  0.23443778446605995  1.0000
  C   C28       1.0  0.44406118289971636  0.46388154222176337  0.7703750334052588  1.0000
  C   C29       1.0  0.5280753891208362  0.4912395431789849  0.2077188396823502  1.0000
  C   C30       1.0  0.5324923774426296  0.5181627132626618  0.789361384228059  1.0000
  C   C31       1.0  0.5321227890132789  0.18693909515233287  0.5071378742227852  1.0000
  C   C32       1.0  0.44889152836175567  0.8106285279123002  0.49794757171958554  1.0000
  C   C33       1.0  0.33629730893446197  0.9745816030083747  0.4979106210216673  1.0000
  C   C34       1.0  0.6446109081143875  0.02323606292156201  0.5032800361051883  1.0000
  C   C35       1.0  0.343366771007581  0.8688979504856534  0.4977876193963767  1.0000
  C   C36       1.0  0.6375604117999814  0.12823782619511803  0.5075380995104553  1.0000
  C   C37       1.0  0.547132936689067  0.8625459204665166  0.49909158012565785  1.0000
  C   C38       1.0  0.4341222312336299  0.136165377471734  0.5027914457704485  1.0000
  C   C39       1.0  0.544107911233027  0.9705928466963983  0.500330451875854  1.0000
  C   C40       1.0  0.43668002958458624  0.027856852502836205  0.49989636283348915  1.0000
  C   C41       1.0  0.03881036405762468  0.3875266133533302  0.5457561906221289  1.0000
  C   C42       1.0  0.9473092288225684  0.6113449814293049  0.4543038963179741  1.0000
  C   C43       1.0  0.1534435819730149  0.4005566504770001  0.542638121221863  1.0000
  C   C44       1.0  0.8329182901880471  0.5971116974990239  0.4565041677763519  1.0000
  C   C45       1.0  0.1360113138334853  0.5490373255268537  0.48524183952447  1.0000
  C   C46       1.0  0.8491095256646869  0.45185109503237453  0.51677969197101  1.0000
  C   C47       1.0  0.017429261417511593  0.5414462611125117  0.48489186826859765  1.0000
  C   C48       1.0  0.9679366096571942  0.45863389724519277  0.5164211501591326  1.0000
  S   S1        1.0  0.5234385861190133  0.8191637036084887  0.0637577521725845  1.0000
  S   S2        1.0  0.6400282540622301  0.2013437931454902  0.9299873992828582  1.0000
  S   S3        1.0  0.3069566289031371  0.6282316522661944  0.3288584026246896  1.0000
  S   S4        1.0  0.3580647690969769  0.35100061451969117  0.6845065567508258  1.0000
  S   S5        1.0  0.29953565513177677  0.5500354832032387  0.193790783511659  1.0000
  S   S6        1.0  0.3270361659621699  0.4274229318226902  0.8206842117415222  1.0000
  N   N1        1.0  0.5537814305331851  0.5185039315278956  0.8482923059021489  1.0000
  N   N2        1.0  0.5495230041720234  0.49532198962977964  0.1471837314509514  1.0000
  N   N3        1.0  0.7854226907764854  0.518721498507233  0.48786635659177346  1.0000
  N   N4        1.0  0.2008038103478853  0.48073062405037353  0.512673230651629  1.0000
  N   N5        1.0  0.6788752346326773  0.3808078903949479  0.3298840030809843  1.0000
  N   N6        1.0  0.6518685286109187  0.6409354150166422  0.6555247807797215  1.0000
  N   N7        1.0  0.7431996371462901  0.1765731556656007  0.5180980968947254  1.0000
  N   N8        1.0  0.23504143014279313  0.8170215789800823  0.5008995864409941  1.0000
  O   O1        1.0  0.5568115622872226  0.65475873491323  0.5059230381866727  1.0000
  O   O2        1.0  0.4279258178270524  0.34367861015876144  0.5283231446163016  1.0000
  O   O3        1.0  0.3767572181151735  0.6481630137468957  0.4807201602237755  1.0000
  O   O4        1.0  0.6053389233322548  0.34894829418930584  0.48469024602173516  1.0000
  O   O5        1.0  0.5833567274790141  0.5255676923502862  0.4100031369578119  1.0000
  O   O6        1.0  0.4058059655374677  0.5284691074480891  0.5879161915115392  1.0000
  O   O7        1.0  0.4082944415355385  0.4617359989239632  0.420546987686194  1.0000
  O   O8        1.0  0.5952746146175443  0.4836513484017715  0.580579401391937  1.0000
  O   O9        1.0  0.6050005743038085  0.34673281847924636  0.8431223948827624  1.0000
  O   O10       1.0  0.5563268191376523  0.6698877855558084  0.1512004729438772  1.0000
  O   O11       1.0  0.5172104438373991  0.6935121067892923  0.8507427191505743  1.0000
  O   O12       1.0  0.5670440933569836  0.3190257520961524  0.14496273125500644  1.0000
  O   O13       1.0  0.41963816862075015  0.8239892292130335  0.0992612733525675  1.0000
  O   O14       1.0  0.6318248165081781  0.8427056133792095  0.08225963326312781  1.0000
  O   O15       1.0  0.5001184972921634  0.8946235535258682  0.009628099967422102  1.0000
  O   O16       1.0  0.5415517934413144  0.16695901014800546  0.9066191963116808  1.0000
  O   O17       1.0  0.750447211130222  0.20553164642151966  0.9001091642265567  1.0000
  O   O18       1.0  0.6576221756239986  0.12368164517742741  0.9849302616096981  1.0000
  O   O19       1.0  0.6420810082363886  0.3139118685668337  0.3634274306342107  1.0000
  O   O20       1.0  0.7795873101362646  0.3992112494717616  0.3190639783597078  1.0000
  O   O21       1.0  0.598587814270907  0.6983768350859662  0.6229737032706597  1.0000
  O   O22       1.0  0.7554445469986816  0.6379614635318378  0.6602021524195935  1.0000
  O   O23       1.0  0.2806394169262915  0.7078142161256552  0.2872386914228642  1.0000
  O   O24       1.0  0.2175743472682328  0.5763672726944549  0.3601239593470994  1.0000
  O   O25       1.0  0.38150470501329886  0.6820339677813436  0.37053271435213736  1.0000
  O   O26       1.0  0.35584987167993626  0.26951607689318996  0.7273905023063136  1.0000
  O   O27       1.0  0.2550290580836077  0.3902893893371911  0.6613472856536833  1.0000
  O   O28       1.0  0.44574421846891  0.30724083720465256  0.6361487610660106  1.0000
  O   O29       1.0  0.32244474274508417  0.4988710883393281  0.14058807349112365  1.0000
  O   O30       1.0  0.20726549417329915  0.5214875996497526  0.23320710240666642  1.0000
  O   O31       1.0  0.2906445161028302  0.6682298701073465  0.17826680646380313  1.0000
  O   O32       1.0  0.3338929727860176  0.48010519288875037  0.8728802532357848  1.0000
  O   O33       1.0  0.22827872256296186  0.44320517182547553  0.7889821175173071  1.0000
  O   O34       1.0  0.35376901054249293  0.3103187828577135  0.8350565041238626  1.0000
  O   O35       1.0  0.7389443617097554  0.23264717737634305  0.5600535049532667  1.0000
  O   O36       1.0  0.8289720911053207  0.15442190971656095  0.48627735280213363  1.0000
  O   O37       1.0  0.18243964262853038  0.8198154133031255  0.45738649147651245  1.0000
  O   O38       1.0  0.20425337793098916  0.7773214158518091  0.5472324100346955  1.0000
