data_image0
_chemical_formula_structural       Cd2H52C68N8O8
_chemical_formula_sum              "Cd2 H52 C68 N8 O8"
_cell_length_a       9.732956818378
_cell_length_b       9.732959249501553
_cell_length_c       16.732972476636178
_cell_angle_alpha    89.21185780078089
_cell_angle_beta     89.21185524776077
_cell_angle_gamma    76.01132887613653

_space_group_name_H-M_alt    "P 1"
_space_group_IT_number       1

loop_
  _space_group_symop_operation_xyz
  'x, y, z'

loop_
  _atom_site_type_symbol
  _atom_site_label
  _atom_site_symmetry_multiplicity
  _atom_site_fract_x
  _atom_site_fract_y
  _atom_site_fract_z
  _atom_site_occupancy
  Cd  Cd1       1.0  0.5000002970281942  0.49999962941951276  0.5000001667537005  1.0000
  Cd  Cd2       1.0  0.4999997142199036  0.5000003013067129  0.999999943424804  1.0000
  H   H1        1.0  0.3121993530406969  0.8272627675670919  0.20755412843871568  1.0000
  H   H2        1.0  0.17273784036377995  0.6878005741321261  0.2924452328943872  1.0000
  H   H3        1.0  0.6877996986703253  0.17273860698805527  0.7924456026548938  1.0000
  H   H4        1.0  0.8272614686909281  0.3121997415249922  0.7075545048971463  1.0000
  H   H5        1.0  0.3006529350563624  0.9896215056582562  0.1531509216519424  1.0000
  H   H6        1.0  0.010378675662970184  0.6993462591528968  0.3468478538371045  1.0000
  H   H7        1.0  0.6993453458348925  0.010378807413431399  0.8468476295074439  1.0000
  H   H8        1.0  0.9896206333917377  0.30065405650422866  0.653151883954429  1.0000
  H   H9        1.0  0.1603300467278146  0.9018892346083831  0.1493845529336824  1.0000
  H   H10       1.0  0.09811069410610432  0.8396691187843927  0.350614823160342  1.0000
  H   H11       1.0  0.8396695191651133  0.0981100216452191  0.8506145939415788  1.0000
  H   H12       1.0  0.9018898999502769  0.16033014005463284  0.6493855103470594  1.0000
  H   H13       1.0  0.31508450916096115  0.9883302522034045  0.012737254183427598  1.0000
  H   H14       1.0  0.011668997010978906  0.6849152296089045  0.48726271960042306  1.0000
  H   H15       1.0  0.6849147998937468  0.011670063453713898  0.9872624836081059  1.0000
  H   H16       1.0  0.9883292848912077  0.3150850844737647  0.5127370267873274  1.0000
  H   H17       1.0  0.4979538418136754  0.7465627599986178  0.7890087280544478  1.0000
  H   H18       1.0  0.2534366035998517  0.502047034149186  0.710991980246348  1.0000
  H   H19       1.0  0.5020472652133279  0.2534386187164159  0.2109921810750848  1.0000
  H   H20       1.0  0.7465624486166362  0.4979543409114556  0.2890083484614436  1.0000
  H   H21       1.0  0.42122314115615483  0.1593296632604861  0.6760650844342564  1.0000
  H   H22       1.0  0.8406711580560824  0.5787771137761835  0.8239356107427653  1.0000
  H   H23       1.0  0.5787779658708486  0.8406717154545404  0.3239358246952762  1.0000
  H   H24       1.0  0.15932840884777733  0.4212221434884  0.1760647313608601  1.0000
  H   H25       1.0  0.3404974332437476  0.26906817235958863  0.8073384736021012  1.0000
  H   H26       1.0  0.7309320768778778  0.6595019287088492  0.6926616384824626  1.0000
  H   H27       1.0  0.6595049577740043  0.7309321485263636  0.1926618360149419  1.0000
  H   H28       1.0  0.2690669770553669  0.34049520867972655  0.3073381279990315  1.0000
  H   H29       1.0  0.3306982518399977  0.12081791333509527  0.9266023768751239  1.0000
  H   H30       1.0  0.8791822259517448  0.669301962086365  0.5733977273458706  1.0000
  H   H31       1.0  0.6693020853781633  0.8791824049074535  0.0733985475485497  1.0000
  H   H32       1.0  0.1208173404466493  0.3306972946727242  0.4266020171435727  1.0000
  H   H33       1.0  0.7092587181905331  0.71987019810161  0.42216326673679555  1.0000
  H   H34       1.0  0.28012999317971327  0.29074106217744594  0.07783669086767019  1.0000
  H   H35       1.0  0.2907405908641749  0.28013011755550826  0.5778364710547307  1.0000
  H   H36       1.0  0.7198706003712089  0.7092581961560853  0.922163045025556  1.0000
  H   H37       1.0  0.8374405858265989  0.9148432286481879  0.4071590756688011  1.0000
  H   H38       1.0  0.08515583125455352  0.1625599712210573  0.09284028807928021  1.0000
  H   H39       1.0  0.1625600082297893  0.08515603019084489  0.5928412578386002  1.0000
  H   H40       1.0  0.9148434778001547  0.8374403444360611  0.9071594497122462  1.0000
  H   H41       1.0  0.8131192885327466  0.0992250454530534  0.509701747784483  1.0000
  H   H42       1.0  0.9007741383184396  0.1868816816744214  0.9902977544244108  1.0000
  H   H43       1.0  0.18688130552363447  0.9007742133859722  0.49029858572292545  1.0000
  H   H44       1.0  0.09922594054510367  0.8131196944551817  0.009701968072981501  1.0000
  H   H45       1.0  0.658999232184847  0.10164076675311409  0.6295245976317503  1.0000
  H   H46       1.0  0.8983589245275923  0.34100236810179035  0.8704754945742366  1.0000
  H   H47       1.0  0.3410023890240695  0.8983584936603605  0.3704757272794339  1.0000
  H   H48       1.0  0.10164141167963694  0.6589979491297768  0.1295242346210728  1.0000
  H   H49       1.0  0.39450975570657226  0.7111641429523345  0.6577925210204114  1.0000
  H   H50       1.0  0.2888351240253115  0.6054919906377662  0.8422075840094722  1.0000
  H   H51       1.0  0.6054908388552748  0.28883511639218534  0.3422084101011791  1.0000
  H   H52       1.0  0.7111649548382318  0.3945093854918369  0.15779213848792037  1.0000
  C   C1        1.0  0.276241908268588  0.8853278268396351  0.1521508559879194  1.0000
  C   C2        1.0  0.1146719713439667  0.7237571998239499  0.347848520085364  1.0000
  C   C3        1.0  0.7237553464810703  0.11467248566859212  0.8478488989960553  1.0000
  C   C4        1.0  0.8853281075195769  0.27624417630565296  0.6521512024120284  1.0000
  C   C5        1.0  0.3449253502841217  0.7984050975209698  0.08114613202884868  1.0000
  C   C6        1.0  0.20159476520159814  0.6550742752676372  0.4188532373119784  1.0000
  C   C7        1.0  0.6550739582651274  0.20159521763065408  0.9188530081484956  1.0000
  C   C8        1.0  0.7984045443585759  0.3449260408949755  0.58114709809373  1.0000
  C   C9        1.0  0.35730615242827224  0.8743999290752241  0.009172228577583  1.0000
  C   C10       1.0  0.12560057877021788  0.6426930830813903  0.49082773701852034  1.0000
  C   C11       1.0  0.6426931566264359  0.125600386581894  0.9908275092139434  1.0000
  C   C12       1.0  0.8743987302844901  0.3573072325757352  0.5091720007730132  1.0000
  C   C13       1.0  0.4155662520957081  0.8215313211718819  0.9352097756435851  1.0000
  C   C14       1.0  0.17846933802982795  0.5844335158036316  0.5647903353576565  1.0000
  C   C15       1.0  0.5844340851224601  0.1784689970706737  0.0647911487800883  1.0000
  C   C16       1.0  0.8215307408337155  0.41556786032596454  0.4352093871397358  1.0000
  C   C17       1.0  0.41194934656919463  0.9220506379112903  0.865558697498315  1.0000
  C   C18       1.0  0.0779494106594498  0.5880472180158874  0.6344414466237821  1.0000
  C   C19       1.0  0.5880489358384509  0.077949676676873  0.1344416465036176  1.0000
  C   C20       1.0  0.92205015624441  0.4119520392486963  0.3655588954798432  1.0000
  C   C21       1.0  0.46012362806315105  0.8614164556249404  0.7916932682001345  1.0000
  C   C22       1.0  0.13858308146883758  0.5398766469180813  0.7083074455068825  1.0000
  C   C23       1.0  0.5398787634600595  0.13858386576650622  0.2083076390310907  1.0000
  C   C24       1.0  0.8614164854350221  0.4601226103464954  0.29169289659675  1.0000
  C   C25       1.0  0.46168441176931924  0.9461819358106567  0.7239760246769933  1.0000
  C   C26       1.0  0.05381826961658478  0.5383160504231129  0.7760234876351574  1.0000
  C   C27       1.0  0.5383169520959113  0.0538183835008468  0.276024293536274  1.0000
  C   C28       1.0  0.9461810394381235  0.4616842652340125  0.2239762501563689  1.0000
  C   C29       1.0  0.4191520213480971  0.09368607568271868  0.7289623426995462  1.0000
  C   C30       1.0  0.9063140418684699  0.5808472518088265  0.7710383657984892  1.0000
  C   C31       1.0  0.5808503706805794  0.9063142462142222  0.2710391621458612  1.0000
  C   C32       1.0  0.09368578237907597  0.41915094655772833  0.228961983003046  1.0000
  C   C33       1.0  0.37239995688113936  0.15420466270180097  0.802587366547314  1.0000
  C   C34       1.0  0.8457950661880672  0.6275997998750356  0.6974127448233389  1.0000
  C   C35       1.0  0.6276024346420712  0.8457956586896459  0.19741354068391104  1.0000
  C   C36       1.0  0.15420501489770544  0.37239733908798905  0.302587013061938  1.0000
  C   C37       1.0  0.3673939407448401  0.0699920220347039  0.8701787761370952  1.0000
  C   C38       1.0  0.9300071293008969  0.6326066130608368  0.6298219300706123  1.0000
  C   C39       1.0  0.632607424131308  0.9300082982877884  0.1298227373045364  1.0000
  C   C40       1.0  0.069992437097504  0.36739264369825264  0.370177814418831  1.0000
  C   C41       1.0  0.596978320171843  0.9117072695977552  0.5917271021434942  1.0000
  C   C42       1.0  0.08829296868402985  0.40302178541170264  0.9082724108347051  1.0000
  C   C43       1.0  0.4030207320446451  0.08829410546288588  0.4082732265643045  1.0000
  C   C44       1.0  0.9117071101795207  0.5969795907179006  0.0917273116626873  1.0000
  C   C45       1.0  0.6104104724554774  0.8050472366018083  0.5331592141166439  1.0000
  C   C46       1.0  0.19495283281739967  0.3895895925282744  0.9668414944145454  1.0000
  C   C47       1.0  0.38958780944670923  0.1949530774808608  0.4668405322711138  1.0000
  C   C48       1.0  0.8050482742096037  0.6104117861867593  0.0331594147149872  1.0000
  C   C49       1.0  0.6980296589911607  0.8037949839338481  0.4660272998913655  1.0000
  C   C50       1.0  0.19620527525464132  0.3019717900606409  0.03397264434487111  1.0000
  C   C51       1.0  0.301970677216076  0.19620533329771916  0.5339724293039438  1.0000
  C   C52       1.0  0.8037948041143749  0.6980295865744566  0.9660276757667036  1.0000
  C   C53       1.0  0.7695518148923881  0.9112922029254166  0.4591503898934874  1.0000
  C   C54       1.0  0.08870772252427632  0.23044808338589456  0.040849570522191  1.0000
  C   C55       1.0  0.23044775150600572  0.08870705383367289  0.5408493545959558  1.0000
  C   C56       1.0  0.91129261368296  0.7695522338456727  0.9591501586731183  1.0000
  C   C57       1.0  0.7560771498969885  0.016371444063175006  0.5178455937100283  1.0000
  C   C58       1.0  0.9836277975379843  0.24392387358580683  0.9821539072603969  1.0000
  C   C59       1.0  0.24392344365392646  0.9836278142703562  0.4821541421831911  1.0000
  C   C60       1.0  0.016372538669244784  0.7560764436457604  0.017845821934912496  1.0000
  C   C61       1.0  0.6699682116011232  0.018547899485199103  0.585316336449182  1.0000
  C   C62       1.0  0.9814528248810677  0.3300333574335711  0.9146831486327827  1.0000
  C   C63       1.0  0.3300321246061061  0.9814524177463682  0.41468339274612737  1.0000
  C   C64       1.0  0.01854828113500422  0.6699680202704741  0.0853165652683856  1.0000
  C   C65       1.0  0.4678197203798363  0.7590869425078991  0.6245478982055701  1.0000
  C   C66       1.0  0.240913270368047  0.5321808490838009  0.8754516108268433  1.0000
  C   C67       1.0  0.532180616332866  0.24091337522916234  0.3754524286039214  1.0000
  C   C68       1.0  0.7590870658391892  0.46781946814776637  0.124548118368466  1.0000
  N   N1        1.0  0.5280192913879844  0.7125801397289777  0.5557534907013774  1.0000
  N   N2        1.0  0.2874200230338318  0.47198131386239334  0.9442472124142256  1.0000
  N   N3        1.0  0.47198001817218943  0.2874201764336348  0.4442468447043311  1.0000
  N   N4        1.0  0.7125800568406434  0.5280200632781914  0.05575370531153111  1.0000
  N   N5        1.0  0.5053256068055133  0.8785894153179826  0.6498366912376099  1.0000
  N   N6        1.0  0.12141063974085856  0.49467434071303984  0.8501634229182143  1.0000
  N   N7        1.0  0.4946747299071887  0.121410902419079  0.3501636355718816  1.0000
  N   N8        1.0  0.8785886698193153  0.5053259754495727  0.14983691248750117  1.0000
  O   O1        1.0  0.38140246147649043  0.6651321053110663  0.0919938386252568  1.0000
  O   O2        1.0  0.3348672496629561  0.6185973748810555  0.4080061287804355  1.0000
  O   O3        1.0  0.6185968480836834  0.3348682108515463  0.9080064967804516  1.0000
  O   O4        1.0  0.6651320598972178  0.38140294128156427  0.591994206625273  1.0000
  O   O5        1.0  0.4745505594489217  0.6919384376055291  0.9189354786999218  1.0000
  O   O6        1.0  0.30806092130510626  0.5254499567872203  0.5810640370256905  1.0000
  O   O7        1.0  0.5254497767583146  0.30806187962603804  0.0810642504953876  1.0000
  O   O8        1.0  0.6919389002147582  0.4745524782404118  0.418935678773785  1.0000
