data_image0
_chemical_formula_structural       Zn6H41C43N3O31
_chemical_formula_sum              "Zn6 H41 C43 N3 O31"
_cell_length_a       18.638099763246622
_cell_length_b       18.40639973842348
_cell_length_c       19.22455845607643
_cell_angle_alpha    109.42767830271227
_cell_angle_beta     109.12313655233696
_cell_angle_gamma    108.30842643752584

_space_group_name_H-M_alt    "P 1"
_space_group_IT_number       1

loop_
  _space_group_symop_operation_xyz
  'x, y, z'

loop_
  _atom_site_type_symbol
  _atom_site_label
  _atom_site_symmetry_multiplicity
  _atom_site_fract_x
  _atom_site_fract_y
  _atom_site_fract_z
  _atom_site_occupancy
  Zn  Zn1       1.0  0.4386745365993079  0.502469969132079  0.4373600526475627  1.0000
  Zn  Zn2       1.0  0.5479512068714243  0.4959487848766527  0.564083073794322  1.0000
  Zn  Zn3       1.0  0.9908556613920396  0.9206492978622193  0.43171548986045116  1.0000
  Zn  Zn4       1.0  0.9885408897405202  0.04520560830679438  0.5526716120915651  1.0000
  Zn  Zn5       1.0  0.5666247939844737  0.08214747644703378  0.0008793097886012966  1.0000
  Zn  Zn6       1.0  0.4570321209616707  0.9529595055733109  0.009487479941547902  1.0000
  H   H1        1.0  0.8169598627545226  0.9129994348169956  0.6347919885593571  1.0000
  H   H2        1.0  0.5245890562119085  0.7824676561166227  0.8819433261270222  1.0000
  H   H3        1.0  0.5831116333200371  0.8859099691474556  0.7961120828693709  1.0000
  H   H4        1.0  0.5719050358735416  0.6825457122456697  0.8026104415974445  1.0000
  H   H5        1.0  0.4783105808665835  0.7224703524492426  0.6667752542130785  1.0000
  H   H6        1.0  0.6114127802173926  0.8373530450361599  0.10961377671828386  1.0000
  H   H7        1.0  0.7376159909532375  0.8195398406487582  0.19072949038675083  1.0000
  H   H8        1.0  0.7905607426409774  0.007014303329299301  0.31641910020533  1.0000
  H   H9        1.0  0.8577185474311901  0.7384464272483624  0.502525485746929  1.0000
  H   H10       1.0  0.2302741380237663  0.0727927038928442  0.7149462546766402  1.0000
  H   H11       1.0  0.7758318337220587  0.7154547029172775  0.40794133557704987  1.0000
  H   H12       1.0  0.5693092263446785  0.31762558743749736  0.17740723231614197  1.0000
  H   H13       1.0  0.6155041415837061  0.6853931493761819  0.3715457759356795  1.0000
  H   H14       1.0  0.6809463782443145  0.8132319989981692  0.6003963530846548  1.0000
  H   H15       1.0  0.732700835506172  0.7564305992109935  0.6348877862414498  1.0000
  H   H16       1.0  0.6721279132105451  0.5891875674970278  0.35823901352783594  1.0000
  H   H17       1.0  0.5226373435222768  0.7024579772011135  0.4245681734186704  1.0000
  H   H18       1.0  0.6475772178647787  0.8755049973643378  0.4833541348438856  1.0000
  H   H19       1.0  0.6425747463236178  0.34666620693717926  0.4665248552993119  1.0000
  H   H20       1.0  0.7444696232928436  0.3213566385696893  0.4393555268235119  1.0000
  H   H21       1.0  0.7234040730956792  0.36298698169667176  0.366725923611682  1.0000
  H   H22       1.0  0.6653301934065184  0.24979469316711084  0.3305003904518813  1.0000
  H   H23       1.0  0.5251204435744653  0.18575263536262548  0.24123802252129417  1.0000
  H   H24       1.0  0.75501822192129  0.08749387237465099  0.16874909746423578  1.0000
  H   H25       1.0  0.8883126126009699  0.10143329103632938  0.2041701781889315  1.0000
  H   H26       1.0  0.8411545991911992  0.9850444412698706  0.16369491042654252  1.0000
  H   H27       1.0  0.879492643101976  0.0546516527752985  0.2711009328488315  1.0000
  H   H28       1.0  0.36567998832111936  0.12193626974998746  0.7830581824809002  1.0000
  H   H29       1.0  0.23013906947956272  0.8818233988065811  0.8395883821683939  1.0000
  H   H30       1.0  0.1685861796672583  0.8513206664320306  0.6846417655181868  1.0000
  H   H31       1.0  0.056719991615857224  0.7196250324746529  0.5691459905106911  1.0000
  H   H32       1.0  0.03130655101248441  0.7719142864002322  0.5086708396740252  1.0000
  H   H33       1.0  0.003373775294960505  0.7828999181324788  0.5906485068019834  1.0000
  H   H34       1.0  0.5323557493923871  0.3984162433325551  0.2811657316642738  1.0000
  H   H35       1.0  0.7426588996480347  0.8690765395267659  0.38937329599669107  1.0000
  H   H36       1.0  0.8677867001933564  0.78484354688846  0.6405009173120747  1.0000
  H   H37       1.0  0.213640486743067  0.11953841119385089  0.4572061784767173  1.0000
  H   H38       1.0  0.1631987016373699  0.258620224646549  0.532758507518537  1.0000
  H   H39       1.0  0.347336132808266  0.2564247100474617  0.5035464056808223  1.0000
  H   H40       1.0  0.7572716120449955  0.6555659739078051  0.5327539598091207  1.0000
  H   H41       1.0  0.2110981836851735  0.3053480311884016  0.4219425330760913  1.0000
  C   C1        1.0  0.5501057119437647  0.4074029727440091  0.4239830555957838  1.0000
  C   C2        1.0  0.16017534963770427  0.19480918285617577  0.5049458521848322  1.0000
  C   C3        1.0  0.2833461481246715  0.25227666824163447  0.47988302377479636  1.0000
  C   C4        1.0  0.592639789191999  0.6290446288589209  0.4909648390790052  1.0000
  C   C5        1.0  0.27384752640435284  0.30929316417090286  0.45299923512086343  1.0000
  C   C6        1.0  0.5419281486359607  0.7914334656196685  0.8350947075721251  1.0000
  C   C7        1.0  0.5579522201838785  0.8682457605291132  0.8352418797202646  1.0000
  C   C8        1.0  0.5455785902254107  0.719423985469369  0.777948631736983  1.0000
  C   C9        1.0  0.5112482445663318  0.6916567445554378  0.6945843355439933  1.0000
  C   C10       1.0  0.8666532563816673  0.947040734977854  0.353004277710646  1.0000
  C   C11       1.0  0.8764877594435347  0.8947639999045904  0.5227071549107051  1.0000
  C   C12       1.0  0.8000401350788025  0.8252463701722375  0.5162183353649397  1.0000
  C   C13       1.0  0.10043388153467701  0.9510747142608834  0.580848022679767  1.0000
  C   C14       1.0  0.09744328718323199  0.12288193144377149  0.5064785857543727  1.0000
  C   C15       1.0  0.6124250680570995  0.9785010244811047  0.10148804724880736  1.0000
  C   C16       1.0  0.5087081758808624  0.615524030432354  0.6336868049029007  1.0000
  C   C17       1.0  0.5403632860144398  0.1510539575511984  0.1303055787656575  1.0000
  C   C18       1.0  0.3665723591305223  0.9859652287740203  0.8957249260052008  1.0000
  C   C19       1.0  0.5456801814698051  0.9335195035610792  0.8934259206010822  1.0000
  C   C20       1.0  0.6754041925516319  0.8932503369631203  0.15425334094663146  1.0000
  C   C21       1.0  0.6876628324001998  0.9700194375046322  0.15168709745766754  1.0000
  C   C22       1.0  0.7387148181462919  0.8830651185199585  0.2110082175218011  1.0000
  C   C23       1.0  0.7139045045567584  0.8199043819590839  0.458321618435363  1.0000
  C   C24       1.0  0.7968849798258049  0.9481307080409138  0.29158882310516526  1.0000
  C   C25       1.0  0.2950298972604913  0.0256493975200343  0.7883816209244686  1.0000
  C   C26       1.0  0.2929086793342534  0.9745494810784833  0.8272582877225858  1.0000
  C   C27       1.0  0.224979320076649  0.012794583239859499  0.7169517217397754  1.0000
  C   C28       1.0  0.34845915471287003  0.3774394981264634  0.46030872810709417  1.0000
  C   C29       1.0  0.15568631446785017  0.9371426913986055  0.6470680304995255  1.0000
  C   C30       1.0  0.7270553245113404  0.6665873113063722  0.4802281204158445  1.0000
  C   C31       1.0  0.7942516524517488  0.7347195541964098  0.4743948057674459  1.0000
  C   C32       1.0  0.6365234640569568  0.7349242933832513  0.43571329961236666  1.0000
  C   C33       1.0  0.719346778858217  0.7804672799909652  0.5894174186921789  1.0000
  C   C34       1.0  0.8054323708052068  0.8456913324813583  0.6031788344119419  1.0000
  C   C35       1.0  0.6662471967294791  0.7026201286980294  0.4986503619499842  1.0000
  C   C36       1.0  0.6942321485902879  0.3152665280119678  0.3848240872340014  1.0000
  C   C37       1.0  0.8473254015285717  0.0462889539064193  0.20734426506842138  1.0000
  C   C38       1.0  0.05234446641703256  0.7783448376604692  0.5716247584771423  1.0000
  C   C39       1.0  0.5614482423726913  0.2969617651066868  0.2227973683138487  1.0000
  C   C40       1.0  0.545824071539485  0.2136963388430431  0.20497605598558266  1.0000
  C   C41       1.0  0.5578853066857619  0.35493988288312284  0.2913820932344038  1.0000
  C   C42       1.0  0.5799937178411128  0.3603477656465301  0.3693986028511347  1.0000
  C   C43       1.0  0.2158544529512199  0.18366098549457627  0.4776071711686853  1.0000
  N   N1        1.0  0.6317015675034271  0.331205547659188  0.4069051770039779  1.0000
  N   N2        1.0  0.7641049891427443  0.042793995833442  0.18546155414820478  1.0000
  N   N3        1.0  0.13745421211985584  0.8538852938665683  0.6313620366311312  1.0000
  O   O1        1.0  0.491540570997465  0.4252709171278468  0.39176059562704774  1.0000
  O   O2        1.0  0.5356808459074784  0.9236079967368197  0.07895823177281608  1.0000
  O   O3        1.0  0.5829457361730377  0.17960269497712736  0.09526159582253509  1.0000
  O   O4        1.0  0.5863010117447374  0.4250565782835167  0.502041974177061  1.0000
  O   O5        1.0  0.4927434273755651  0.07004270667182058  0.10436862148897315  1.0000
  O   O6        1.0  0.4424619111494509  0.04476186337554819  0.9239001379543836  1.0000
  O   O7        1.0  0.3479419458260651  0.9309384421518486  0.9245066343948096  1.0000
  O   O8        1.0  0.5899259342126228  0.015102822346612803  0.9162966011472734  1.0000
  O   O9        1.0  0.4926665895094473  0.9049248932387783  0.9176767093412864  1.0000
  O   O10       1.0  0.5145909766550999  0.600606866128281  0.43376459358472635  1.0000
  O   O11       1.0  0.6115312500949416  0.5987330658943081  0.5401891357923746  1.0000
  O   O12       1.0  0.8977340689816202  0.0031367961237620985  0.4302872396504539  1.0000
  O   O13       1.0  0.46012081259448206  0.587845243632003  0.5561724015127965  1.0000
  O   O14       1.0  0.5551051788484784  0.5815151205530638  0.6611660031406217  1.0000
  O   O15       1.0  0.3314235665075032  0.4124529643140206  0.4129826242226002  1.0000
  O   O16       1.0  0.4241744413550562  0.39776481380498296  0.512119940204272  1.0000
  O   O17       1.0  0.8959877326649489  0.8933049244241216  0.3292933184651686  1.0000
  O   O18       1.0  0.6816267422888059  0.5817313597850455  0.40775508126637294  1.0000
  O   O19       1.0  0.5690312422549936  0.7557878486996541  0.43569478091836084  1.0000
  O   O20       1.0  0.7093405054202433  0.8948765625933957  0.5023417663105363  1.0000
  O   O21       1.0  0.3714953371739186  0.1001967168889522  0.8233522258129966  1.0000
  O   O22       1.0  0.2142907975127314  0.9063905437674291  0.8021494001046178  1.0000
  O   O23       1.0  0.9078542376613329  0.868541279349003  0.47623568487515655  1.0000
  O   O24       1.0  0.7078157128159291  0.8109155809593602  0.37976183517645984  1.0000
  O   O25       1.0  0.8794139960029954  0.8451800335572699  0.657671882436837  1.0000
  O   O26       1.0  0.9030423454391324  0.975653086130414  0.5726481733751924  1.0000
  O   O27       1.0  0.07563302442777332  0.9003060200228601  0.5031803032318579  1.0000
  O   O28       1.0  0.0830687681632725  0.012887265506698494  0.6063374477396622  1.0000
  O   O29       1.0  0.07793399806723761  0.0444219573906253  0.4599906403979688  1.0000
  O   O30       1.0  0.0678558226456616  0.1470283264330021  0.5572426408513921  1.0000
  O   O31       1.0  0.6314531417546262  0.0416826721955843  0.08560278398517339  1.0000
