data_image0
_chemical_formula_structural       Cu4H10C6S2N8Cl2O2
_chemical_formula_sum              "Cu4 H10 C6 S2 N8 Cl2 O2"
_cell_length_a       6.026419566754435
_cell_length_b       6.997695218995628
_cell_length_c       10.155115161769723
_cell_angle_alpha    78.33166730396552
_cell_angle_beta     74.10756610172027
_cell_angle_gamma    76.29612793375475

_space_group_name_H-M_alt    "P 1"
_space_group_IT_number       1

loop_
  _space_group_symop_operation_xyz
  'x, y, z'

loop_
  _atom_site_type_symbol
  _atom_site_label
  _atom_site_symmetry_multiplicity
  _atom_site_fract_x
  _atom_site_fract_y
  _atom_site_fract_z
  _atom_site_occupancy
  Cu  Cu1       1.0  0.5552231227528495  0.1979879334760355  0.4837965324303468  1.0000
  Cu  Cu2       1.0  0.44480606197539174  0.8020169826447302  0.5161922590522536  1.0000
  Cu  Cu3       1.0  0.14862847564101866  0.5314307025203177  0.3766319892690432  1.0000
  Cu  Cu4       1.0  0.8514069339331842  0.46856983121435997  0.6233603574265699  1.0000
  H   H1        1.0  0.17983023394356937  0.09557977148259766  0.8557489102257564  1.0000
  H   H2        1.0  0.8201444257591249  0.9044073788779556  0.1442575003899477  1.0000
  H   H3        1.0  0.07121573263282953  0.40216491324496667  0.13360605988137308  1.0000
  H   H4        1.0  0.9287824307976393  0.5978400595163648  0.8663918225658946  1.0000
  H   H5        1.0  0.9227856398567837  0.2515749390064599  0.07792136868537367  1.0000
  H   H6        1.0  0.07719289490258763  0.7484256922896223  0.922087317841708  1.0000
  H   H7        1.0  0.26213198676071414  0.38003932608682317  0.8891167515454015  1.0000
  H   H8        1.0  0.7378450125642287  0.6199446818563813  0.11088087350923098  1.0000
  H   H9        1.0  0.45836797303476123  0.23059549284747052  0.9899600531960857  1.0000
  H   H10       1.0  0.5416156052898489  0.7694048024679815  0.010030117440862693  1.0000
  C   C1        1.0  0.2756397872939047  0.09722028699260932  0.29557252121789185  1.0000
  C   C2        1.0  0.7243590784111545  0.9027817683781764  0.7044286324995426  1.0000
  C   C3        1.0  0.0914776238313593  0.2616560117976334  0.0951574814253178  1.0000
  C   C4        1.0  0.9085267790586611  0.7383446162553612  0.9048459178575854  1.0000
  C   C5        1.0  0.289540964155762  0.24373070473097863  0.9639005346199738  1.0000
  C   C6        1.0  0.7104468176492988  0.7562668071455152  0.03609919877524692  1.0000
  S   S1        1.0  0.4229689841288219  0.2788098051735659  0.2970552581900137  1.0000
  S   S2        1.0  0.5770543743848792  0.7211981570907257  0.702937988988154  1.0000
  N   N1        1.0  0.2846343981889419  0.9157484265239476  0.3723979918059044  1.0000
  N   N2        1.0  0.7153779545762049  0.08424782018267508  0.6276086755944874  1.0000
  N   N3        1.0  0.16094975454237923  0.8160767172600744  0.3251685756169067  1.0000
  N   N4        1.0  0.8390543081705318  0.18392539774650624  0.6748346592478781  1.0000
  N   N5        1.0  0.0721280496873645  0.9283643323425183  0.22580349095357383  1.0000
  N   N6        1.0  0.9278642853053113  0.07163630727131928  0.7742028988093138  1.0000
  N   N7        1.0  0.1404857893392446  0.10399770468078633  0.20686428257804582  1.0000
  N   N8        1.0  0.85950516524791  0.8960162055217749  0.7931344554584002  1.0000
  Cl  Cl1       1.0  0.22905855369973688  0.4875886865923391  0.6187621740246313  1.0000
  Cl  Cl2       1.0  0.7709719968204425  0.5124029212619448  0.3812323075617883  1.0000
  O   O1        1.0  0.3052193263443641  0.0715885842038801  0.905561601590442  1.0000
  O   O2        1.0  0.6947602070259438  0.9284075297148177  0.09444463575707114  1.0000
