data_image0
_chemical_formula_structural       Cu2H34C22S4I2O4
_chemical_formula_sum              "Cu2 H34 C22 S4 I2 O4"
_cell_length_a       8.167902280471983
_cell_length_b       9.390368717526712
_cell_length_c       10.158507527329974
_cell_angle_alpha    83.29954106730418
_cell_angle_beta     66.30802060837634
_cell_angle_gamma    73.10554476184161

_space_group_name_H-M_alt    "P 1"
_space_group_IT_number       1

loop_
  _space_group_symop_operation_xyz
  'x, y, z'

loop_
  _atom_site_type_symbol
  _atom_site_label
  _atom_site_symmetry_multiplicity
  _atom_site_fract_x
  _atom_site_fract_y
  _atom_site_fract_z
  _atom_site_occupancy
  Cu  Cu1       1.0  0.8270198528104729  0.5540930923242796  0.9999081734874552  1.0000
  Cu  Cu2       1.0  0.17298641088188302  0.4459068937310633  9.015742075034265e-05  1.0000
  H   H1        1.0  0.7549384952076678  0.6171918103510594  0.31774607826889684  1.0000
  H   H2        1.0  0.9273411252635668  0.38256816064349414  0.31801393473088513  1.0000
  H   H3        1.0  0.24505314390751204  0.38280486917837214  0.6822650704175999  1.0000
  H   H4        1.0  0.07266381834295293  0.6174307219754667  0.6819820849831117  1.0000
  H   H5        1.0  0.653006056378551  0.7956239936709794  0.2676622722829621  1.0000
  H   H6        1.0  0.07931394477022025  0.20419749027848866  0.2677943289817222  1.0000
  H   H7        1.0  0.3469909278339074  0.2043715640576167  0.7323439813312618  1.0000
  H   H8        1.0  0.9206926277451116  0.7957991626874872  0.7322021346612501  1.0000
  H   H9        1.0  0.32968831258097  0.6856294810864155  0.11281046931705413  1.0000
  H   H10       1.0  0.5573442901887092  0.3145176253781869  0.11285818470052789  1.0000
  H   H11       1.0  0.6703096193340696  0.31437163208244817  0.887195693672126  1.0000
  H   H12       1.0  0.4426591736120785  0.6854779316719827  0.8871350796592097  1.0000
  H   H13       1.0  0.27540230106967584  0.7858371376857746  0.2684830603034882  1.0000
  H   H14       1.0  0.45637309047383917  0.2141882456751958  0.2684987865824979  1.0000
  H   H15       1.0  0.7246052242342599  0.2141617316629336  0.7315157145914596  1.0000
  H   H16       1.0  0.543633573115102  0.7858150873952495  0.7314914502590285  1.0000
  H   H17       1.0  0.4357427848962276  0.6216037399309328  0.5238721843231318  1.0000
  H   H18       1.0  0.04063567561571798  0.3779408176205266  0.5241175138090597  1.0000
  H   H19       1.0  0.564245900138289  0.3783974048726364  0.47613380736315497  1.0000
  H   H20       1.0  0.959368166099111  0.6220614038374779  0.47587850607823867  1.0000
  H   H21       1.0  0.5630648140072908  0.7422120631521311  0.5345668426903033  1.0000
  H   H22       1.0  0.9023434603746808  0.2576348679676244  0.5347237494137359  1.0000
  H   H23       1.0  0.43692612819881294  0.2577879631739037  0.4654386139798277  1.0000
  H   H24       1.0  0.0976576556256746  0.7423695829248729  0.46527422859489315  1.0000
  H   H25       1.0  0.3675649442254709  0.9999336936379142  0.2652591538336466  1.0000
  H   H26       1.0  0.6324522807990364  5.9594822481299016e-05  0.7347332117966802  1.0000
  H   H27       1.0  0.3892945075788816  0.9684981818180631  0.6122686873702037  1.0000
  H   H28       1.0  0.9981812565027326  0.0309939685610132  0.6122131468443044  1.0000
  H   H29       1.0  0.6107005816731927  0.031500720499259706  0.38773569932538987  1.0000
  H   H30       1.0  0.0018134552800575024  0.9690127248177377  0.3877864361550251  1.0000
  H   H31       1.0  0.22131141242546454  0.8675735743505373  0.710135076056673  1.0000
  H   H32       1.0  0.06831233795028901  0.1316779780174357  0.7103006173711748  1.0000
  H   H33       1.0  0.7786766392602473  0.13242979833512442  0.289869492697733  1.0000
  H   H34       1.0  0.9316846310041033  0.8683275968837806  0.28969843061199196  1.0000
  C   C1        1.0  0.6222666854498797  0.6920372056145396  0.32015080735573054  1.0000
  C   C2        1.0  0.0576530068066674  0.3077430829765859  0.32034376679574456  1.0000
  C   C3        1.0  0.37772724852228395  0.30795947634126725  0.6798541141827174  1.0000
  C   C4        1.0  0.9423514682569661  0.6922569105993335  0.6796536760234346  1.0000
  C   C5        1.0  0.38516576323313967  0.745640825182342  0.1645162385421699  1.0000
  C   C6        1.0  0.4503787391186406  0.25435121780962794  0.16459300467467847  1.0000
  C   C7        1.0  0.614843849350443  0.25436138167150096  0.8354767534225473  1.0000
  C   C8        1.0  0.5496252831049518  0.7456543250198991  0.8354110187120226  1.0000
  C   C9        1.0  0.48626325529996706  0.7199748802387662  0.47494994237627713  1.0000
  C   C10       1.0  0.03880474080805388  0.2797040402179363  0.4751307523524276  1.0000
  C   C11       1.0  0.5137280542033692  0.28002403314092555  0.5250555142360938  1.0000
  C   C12       1.0  0.9611954808779404  0.7203004144348457  0.5248667816116921  1.0000
  C   C13       1.0  0.44799452036770754  0.8730707641319597  0.07586443375397778  1.0000
  C   C14       1.0  0.4761834708025746  0.12691924807536037  0.07589128044403988  1.0000
  C   C15       1.0  0.5519960591824288  0.1269125806136202  0.9241454730196493  1.0000
  C   C16       1.0  0.5238327323422639  0.8730618265051006  0.9240941511415173  1.0000
  C   C17       1.0  0.4261880076600945  0.9999897101696577  0.1478023635012065  1.0000
  C   C18       1.0  0.5738159459172041  2.0290631930199768e-05  0.8521949889239976  1.0000
  C   C19       1.0  0.2719545382422198  0.9329439812527338  0.611383256175948  1.0000
  C   C20       1.0  0.11640168464867874  0.06647793790754258  0.6114360018037458  1.0000
  C   C21       1.0  0.7280408119754043  0.06705714518638929  0.38862015163228136  1.0000
  C   C22       1.0  0.8835949220945098  0.9335254108824811  0.3885654481142069  1.0000
  S   S1        1.0  0.5640150986952861  0.5988062707542454  0.20484992040249492  1.0000
  S   S2        1.0  0.2310098155332838  0.4010694844403774  0.2050930386246321  1.0000
  S   S3        1.0  0.43597987913908287  0.40119930768876344  0.7951510855864826  1.0000
  S   S4        1.0  0.7689919287298463  0.5989360776275776  0.7949039604388659  1.0000
  I   I1        1.0  0.978686518018769  0.2622397390091323  0.9999369148744321  1.0000
  I   I2        1.0  0.021321513513434823  0.7377591402865278  5.474478344777994e-05  1.0000
  O   O1        1.0  0.3333691848801124  0.8463271806388233  0.4848575595332392  1.0000
  O   O2        1.0  0.1815888873440343  0.15317345160223536  0.4850330997301313  1.0000
  O   O3        1.0  0.6666222258688779  0.15367173473025283  0.5151464740317095  1.0000
  O   O4        1.0  0.8184104451136285  0.8468276677532955  0.5149663920664905  1.0000
