data_image0
_chemical_formula_structural       Ag8H44C56N12O24
_chemical_formula_sum              "Ag8 H44 C56 N12 O24"
_cell_length_a       7.225668475007048
_cell_length_b       7.932049803
_cell_length_c       25.608
_cell_angle_alpha    90.0
_cell_angle_beta     90.52388412555665
_cell_angle_gamma    90.0

_space_group_name_H-M_alt    "P 1"
_space_group_IT_number       1

loop_
  _space_group_symop_operation_xyz
  'x, y, z'

loop_
  _atom_site_type_symbol
  _atom_site_label
  _atom_site_symmetry_multiplicity
  _atom_site_fract_x
  _atom_site_fract_y
  _atom_site_fract_z
  _atom_site_occupancy
  Ag  Ag1       1.0  0.179898142525083  0.2879066643197704  0.0796819482420403  1.0000
  Ag  Ag2       1.0  0.8201092714933649  0.7879047856754868  0.4203183442377282  1.0000
  Ag  Ag3       1.0  0.8201078874805103  0.7120984033488684  0.9203199026789335  1.0000
  Ag  Ag4       1.0  0.17989122246082445  0.21209649986863616  0.5796807588798174  1.0000
  Ag  Ag5       1.0  0.2853336255936653  0.9778796392663056  0.023288079375277  1.0000
  Ag  Ag6       1.0  0.714669636386226  0.4778752143697319  0.4767106403806309  1.0000
  Ag  Ag7       1.0  0.7146668683605168  0.0221241676941588  0.9767149287719477  1.0000
  Ag  Ag8       1.0  0.2853363936193673  0.5221248104662237  0.5232861340017649  1.0000
  H   H1        1.0  0.5263580797345995  0.1707339254839013  0.20551956026451987  1.0000
  H   H2        1.0  0.47364379823243746  0.6707345682559664  0.2944787654177503  1.0000
  H   H3        1.0  0.4736451822452921  0.8292648386438801  0.7944811120062241  1.0000
  H   H4        1.0  0.5263636157860105  0.3292604137473064  0.7055203555531123  1.0000
  H   H5        1.0  0.33236930236459017  0.14252179803163056  0.1626432615861972  1.0000
  H   H6        1.0  0.6676298075767448  0.6425211800955213  0.3373562284636478  1.0000
  H   H7        1.0  0.6676339596153011  0.8574757053879767  0.837357020181578  1.0000
  H   H8        1.0  0.3323706863774447  0.35747128049140303  0.6626459986776325  1.0000
  H   H9        1.0  0.5009794360697908  0.9802510313360955  0.16978359139342558  1.0000
  H   H10       1.0  0.4990169058458348  0.48025290998037223  0.3302158915150953  1.0000
  H   H11       1.0  0.499025209922948  0.019747732791685707  0.8302151319331443  1.0000
  H   H12       1.0  0.5009766680440888  0.5197433327310608  0.669785927269899  1.0000
  H   H13       1.0  0.5368751933959857  0.5161288824046011  0.2076077684083941  1.0000
  H   H14       1.0  0.4631183804939382  0.0161395860060765  0.2923909263528657  1.0000
  H   H15       1.0  0.4631100764168323  0.4838560139332985  0.7923920764377783  1.0000
  H   H16       1.0  0.5368807294473966  0.9838516138726805  0.7076054396732445  1.0000
  H   H17       1.0  0.5041515935262879  0.3680397970895086  0.009491088071286  1.0000
  H   H18       1.0  0.4958558204921601  0.8680341363207165  0.4905080328995837  1.0000
  H   H19       1.0  0.4958530524664511  0.6319677919954714  0.99050958777012  1.0000
  H   H20       1.0  0.5041432894491749  0.13196840993158085  0.5094910666472997  1.0000
  H   H21       1.0  0.8526972381035802  0.4716447945882862  0.24564804547132718  1.0000
  H   H22       1.0  0.14729633578635054  0.97164921948486  0.2543514302958627  1.0000
  H   H23       1.0  0.14729356776064856  0.5283539695394952  0.7543518136575003  1.0000
  H   H24       1.0  0.8527013901421296  0.028352066059262906  0.7456464941714529  1.0000
  H   H25       1.0  0.014404805762303897  0.04781361809611442  0.14773905351071187  1.0000
  H   H26       1.0  0.9855956881918856  0.5478180429926882  0.3522627831276068  1.0000
  H   H27       1.0  0.9855929201661835  0.9521864067398342  0.8522623854833141  1.0000
  H   H28       1.0  0.014407573788005796  0.4521807211350932  0.6477386701490744  1.0000
  H   H29       1.0  0.9455603484257364  0.20787312749553885  0.19246955387142606  1.0000
  H   H30       1.0  0.054435993489889284  0.7078750309757709  0.3075311005459938  1.0000
  H   H31       1.0  0.054437377502743786  0.7921243759240684  0.8075314946196315  1.0000
  H   H32       1.0  0.9455617324385912  0.2921224724438361  0.6924691669391194  1.0000
  H   H33       1.0  0.8147268455124248  0.018047037468910808  0.18719722580843978  1.0000
  H   H34       1.0  0.18526811239035365  0.5180527230736516  0.312803425038318  1.0000
  H   H35       1.0  0.1852694964032082  0.9819504659506963  0.8128026476030498  1.0000
  H   H36       1.0  0.8147296135381266  0.4819473017622969  0.6871984044586694  1.0000
  H   H37       1.0  0.5007732181548619  0.6594789657046223  0.1213806070057757  1.0000
  H   H38       1.0  0.4992175877093601  0.1594909300142717  0.3786172996082158  1.0000
  H   H39       1.0  0.4992134356708035  0.3405097127577862  0.87861806990216  1.0000
  H   H40       1.0  0.5007939783476445  0.8404990091563109  0.6213790985538665  1.0000
  H   H41       1.0  0.8520509041017519  0.3790974684579923  0.010183241451159099  1.0000
  H   H42       1.0  0.14795650991669618  0.8790993719382243  0.4898178320345465  1.0000
  H   H43       1.0  0.14795374189098703  0.6209050777943048  0.9898178248932155  1.0000
  H   H44       1.0  0.8520439840374934  0.12090191360589843  0.5101828330948662  1.0000
  C   C1        1.0  0.585625662090379  0.1912809472560468  0.1235657033199544  1.0000
  C   C2        1.0  0.4143762158766577  0.6912853721526206  0.3764334033682601  1.0000
  C   C3        1.0  0.4143762158766577  0.8087228597044176  0.8764345748771589  1.0000
  C   C4        1.0  0.5856242780775318  0.3087184348078438  0.6235664807552226  1.0000
  C   C5        1.0  0.4807188719312165  0.11765937218989823  0.16794789338143798  1.0000
  C   C6        1.0  0.5192802380101184  0.6176625363783048  0.33205081566246963  1.0000
  C   C7        1.0  0.5192857740615295  0.8823406526460504  0.8320520014540378  1.0000
  C   C8        1.0  0.48072163995691847  0.38233622774947673  0.6679494625346365  1.0000
  C   C9        1.0  0.1390033307779248  0.7149072611540177  0.099237876173639  1.0000
  C   C10       1.0  0.8609916271248534  0.21490535767378566  0.4007600411523455  1.0000
  C   C11       1.0  0.8609930111377082  0.2851003279309623  0.9007639497526867  1.0000
  C   C12       1.0  0.13901855491929635  0.7850883636213126  0.5992383059539179  1.0000
  C   C13       1.0  0.9717347994803729  0.6675084160461895  0.1310461419477207  1.0000
  C   C14       1.0  0.02825877440955789  0.1675102946904659  0.3689513813046261  1.0000
  C   C15       1.0  0.028256006383848793  0.3324916087897662  0.8689529361751696  1.0000
  C   C16       1.0  0.9717500236217446  0.8324834266046255  0.6310469622309682  1.0000
  C   C17       1.0  0.7929341791468261  0.6925561659890676  0.1103708521717337  1.0000
  C   C18       1.0  0.20705939474310495  0.19256560888237576  0.3896270615835888  1.0000
  C   C19       1.0  0.20705662671740296  0.3074413374305465  0.8896293974600624  1.0000
  C   C20       1.0  0.7929480192753429  0.807429373120897  0.6103708878783749  1.0000
  C   C21       1.0  0.6582766487237848  0.558187367699766  0.18645151372037114  1.0000
  C   C22       1.0  0.3417155411532917  0.058199332009415614  0.3135463964642824  1.0000
  C   C23       1.0  0.3417100051018878  0.4417975286381336  0.813546772684596  1.0000
  C   C24       1.0  0.6582849528008978  0.9417893464529998  0.6864507541384199  1.0000
  C   C25       1.0  0.7716743577291962  0.7649107293432851  0.0560938851059092  1.0000
  C   C26       1.0  0.2283247522121385  0.2649176508202516  0.4439048239380056  1.0000
  C   C27       1.0  0.2283247522121385  0.23509938115803666  0.9439087289676849  1.0000
  C   C28       1.0  0.7716895818705609  0.7350836347238714  0.5560919718683763  1.0000
  C   C29       1.0  0.5840561915163603  0.3203106464408592  0.0425033911435833  1.0000
  C   C30       1.0  0.415947070463531  0.8203075070884014  0.45749571911528625  1.0000
  C   C31       1.0  0.415949838489233  0.6796969426441211  0.9574976787714605  1.0000
  C   C32       1.0  0.5840506554649494  0.17969377845571446  0.5425033768609281  1.0000
  C   C33       1.0  0.8334622274882406  0.5321840009632128  0.2078028096291575  1.0000
  C   C34       1.0  0.1665327304145379  0.0321921831483465  0.2921958887027643  1.0000
  C   C35       1.0  0.16652581035027936  0.4678084596237114  0.79219587084944  1.0000
  C   C36       1.0  0.8334705315653463  0.9678027988549192  0.707803612059081  1.0000
  C   C37       1.0  0.7821056625937642  0.19012613857134406  0.1228101130432151  1.0000
  C   C38       1.0  0.21789759938612718  0.6901318241760921  0.37719016872456723  1.0000
  C   C39       1.0  0.21789621537327256  0.809875146972779  0.8771905556568669  1.0000
  C   C40       1.0  0.7821028945680621  0.309870722076198  0.622810105901884  1.0000
  C   C41       1.0  0.8944376817032305  0.1108616337314743  0.1651828652888554  1.0000
  C   C42       1.0  0.10555866021239517  0.6108673193362222  0.334818179631533  1.0000
  C   C43       1.0  0.10555866021239517  0.8891333482717911  0.8348181796315329  1.0000
  C   C44       1.0  0.894439065716085  0.3891339662079006  0.6651820878535872  1.0000
  C   C45       1.0  0.6379704121610956  0.6404435330295898  0.1384430174640841  1.0000
  C   C46       1.0  0.36202177771598076  0.14045675804741364  0.3615560642294753  1.0000
  C   C47       1.0  0.3620148576517224  0.3595476668491601  0.8615583893939557  1.0000
  C   C48       1.0  0.637985636302467  0.8595357025395105  0.6384418852324885  1.0000
  C   C49       1.0  0.7760270781483383  0.3236855622148198  0.04232895114698469  1.0000
  C   C50       1.0  0.2239803358701096  0.8236887264032191  0.45767134133278387  1.0000
  C   C51       1.0  0.2239747998187056  0.6763182447456446  0.9576732795649647  1.0000
  C   C52       1.0  0.7760243101226292  0.17631255914089652  0.5423277724967548  1.0000
  C   C53       1.0  0.9858060581453713  0.5900290739765526  0.1799800550157542  1.0000
  C   C54       1.0  0.014186131731705097  0.09003473474535183  0.32001902667779797  1.0000
  C   C55       1.0  0.014180595680294096  0.4099696901512289  0.820020964909979  1.0000
  C   C56       1.0  0.9858157462353316  0.9099627686742622  0.6799804705133781  1.0000
  N   N1        1.0  0.8742338620915788  0.2605921610852989  0.08289745425518899  1.0000
  N   N2        1.0  0.1257721679140147  0.7606003681063882  0.41710283465391734  1.0000
  N   N3        1.0  0.12577078390116003  0.7394066030424826  0.917103221586224  1.0000
  N   N4        1.0  0.8742297100530292  0.239403438854076  0.582897443543196  1.0000
  N   N5        1.0  0.4894049365895724  0.2578211245252788  0.0832623990919146  1.0000
  N   N6        1.0  0.510601093416021  0.7578242887136852  0.4167363278053243  1.0000
  N   N7        1.0  0.510598325390319  0.7421826824351854  0.9167382731788364  1.0000
  N   N8        1.0  0.4894007845510231  0.2421807789549533  0.5832623883799143  1.0000
  N   N9        1.0  0.16694655025725064  0.5731847521028473  0.204815278730706  1.0000
  N   N10       1.0  0.8330456396198256  0.07318537003895642  0.2951845839687905  1.0000
  N   N11       1.0  0.8330414875812693  0.4268190548576172  0.7951861352686649  1.0000
  N   N12       1.0  0.1669562383472112  0.9268171762133335  0.7048153037253542  1.0000
  O   O1        1.0  0.24527060557048225  0.6002042496252855  0.0837743788307677  1.0000
  O   O2        1.0  0.7547285043708526  0.10019604260419612  0.4162247207161158  1.0000
  O   O3        1.0  0.7547202002937394  0.3998071215842033  0.9162258708010285  1.0000
  O   O4        1.0  0.2452802936604428  0.8997976786909021  0.5837747943283843  1.0000
  O   O5        1.0  0.1539091491926001  0.872889123487518  0.0903381098000509  1.0000
  O   O6        1.0  0.8460844246973236  0.3728897414236272  0.40965941345229595  1.0000
  O   O7        1.0  0.8460899607487349  0.1271184655974622  0.9096680188002466  1.0000
  O   O8        1.0  0.1539216053082697  0.6271065012878125  0.5903373609300928  1.0000
  O   O9        1.0  0.6660215846428699  0.894338812310153  0.05102827429055879  1.0000
  O   O10       1.0  0.3339747572727631  0.3943469944952867  0.4489700371090564  1.0000
  O   O11       1.0  0.3339623011570935  0.10565995181762843  0.9489735194997877  1.0000
  O   O12       1.0  0.6660368087842412  0.6056542910488363  0.5510259705500572  1.0000
  O   O13       1.0  0.8586706375722668  0.692257378152519  0.020263190917390296  1.0000
  O   O14       1.0  0.1413298563819225  0.19226429962948546  0.47973630270312373  1.0000
  O   O15       1.0  0.1413464645361486  0.3077729036795347  0.979739469574838  1.0000
  O   O16       1.0  0.8586830936879293  0.8077483322881778  0.5202612705385334  1.0000
  O   O17       1.0  0.26743280336753367  0.7004481991399842  0.2062964106146552  1.0000
  O   O18       1.0  0.7325580024966882  0.20045007778426085  0.2937038390171409  1.0000
  O   O19       1.0  0.7325580024966882  0.2995530864041385  0.7937050105260468  1.0000
  O   O20       1.0  0.2674452594832033  0.7995486863435135  0.7062972237565716  1.0000
  O   O21       1.0  0.20901500490280253  0.4345736708178833  0.2243884330806338  1.0000
  O   O22       1.0  0.7909771849742739  0.93457683500629  0.27561221062479285  1.0000
  O   O23       1.0  0.7909744169485717  0.5654276147262396  0.7756122034834618  1.0000
  O   O24       1.0  0.20902054095420644  0.06542571124600732  0.7243872758543901  1.0000
