data_image0
_chemical_formula_structural       Cd2H24C30S2Br4N4
_chemical_formula_sum              "Cd2 H24 C30 S2 Br4 N4"
_cell_length_a       8.422603813137112
_cell_length_b       9.938037294576999
_cell_length_c       10.643061182907825
_cell_angle_alpha    77.22796143858078
_cell_angle_beta     66.45133301495586
_cell_angle_gamma    74.49846664863253

_space_group_name_H-M_alt    "P 1"
_space_group_IT_number       1

loop_
  _space_group_symop_operation_xyz
  'x, y, z'

loop_
  _atom_site_type_symbol
  _atom_site_label
  _atom_site_symmetry_multiplicity
  _atom_site_fract_x
  _atom_site_fract_y
  _atom_site_fract_z
  _atom_site_occupancy
  Cd  Cd1       1.0  0.49278882884936337  0.3520960234335817  0.669034836925853  1.0000
  Cd  Cd2       1.0  0.5072105148432157  0.6479053321491152  0.33096499234335397  1.0000
  H   H1        1.0  0.642032447668974  0.0527300596264553  0.2604393537029709  1.0000
  H   H2        1.0  0.35796614377931496  0.9472691847692899  0.7395620887957224  1.0000
  H   H3        1.0  0.35024644831225515  0.2870856015674335  0.10298452407493391  1.0000
  H   H4        1.0  0.6497521404398582  0.7129136438124275  0.897015979495862  1.0000
  H   H5        1.0  0.7989811834563342  0.8279500568498861  0.3523301512075533  1.0000
  H   H6        1.0  0.2010194570353576  0.1720513018252205  0.6476702052124352  1.0000
  H   H7        1.0  0.9100494248912269  0.2772557357460101  0.9699797868656789  1.0000
  H   H8        1.0  0.08995045796381622  0.7227435137103838  0.030020304928001503  1.0000
  H   H9        1.0  0.5352248427341876  0.26064504392537197  0.39375671031781684  1.0000
  H   H10       1.0  0.46477320955163026  0.7393563065966758  0.6062444696564101  1.0000
  H   H11       1.0  0.009729795326300934  0.6976992109459488  0.7274481629081961  1.0000
  H   H12       1.0  0.9902690630070412  0.30229898137076117  0.2725524719248326  1.0000
  H   H13       1.0  0.9357022549256724  0.9171008801471814  0.829552693146347  1.0000
  H   H14       1.0  0.0642973610443178  0.082899421388241  0.17044820631299729  1.0000
  H   H15       1.0  0.296819657571902  0.4708686559735823  0.25128105422744085  1.0000
  H   H16       1.0  0.7031799557019126  0.5291316465459631  0.748718906304006  1.0000
  H   H17       1.0  0.8318033056929223  0.4673156197135028  0.11636433215069517  1.0000
  H   H18       1.0  0.16819555264041947  0.532682572603207  0.8836363026823335  1.0000
  H   H19       1.0  0.9287233785053316  0.6968199814896252  0.5276540565654527  1.0000
  H   H20       1.0  0.07127467108430349  0.3031813700165459  0.4723461844808767  1.0000
  H   H21       1.0  0.5460150967984561  0.11549041396376947  0.9644842800973022  1.0000
  H   H22       1.0  0.45398322237241456  0.8845098844792504  0.0355160922112532  1.0000
  H   H23       1.0  0.7608063279641895  0.05589848587608511  0.9759193457374169  1.0000
  H   H24       1.0  0.23919226078791667  0.9441007595037832  0.024081157833378997  1.0000
  C   C1        1.0  0.6722646601729849  0.04641197689169731  0.35214659063542086  1.0000
  C   C2        1.0  0.3277346862157701  0.9535893777068762  0.6478541775616833  1.0000
  C   C3        1.0  0.6343288579493064  0.26507658329651923  0.026548503501544442  1.0000
  C   C4        1.0  0.36566973080280013  0.7349226620833493  0.9734520000692513  1.0000
  C   C5        1.0  0.7460638742795637  0.04315608413563871  0.5846892526171672  1.0000
  C   C6        1.0  0.2539380603150719  0.9568452786159937  0.41531069202570586  1.0000
  C   C7        1.0  0.4605191729180407  0.32293656643624763  0.10504946666159036  1.0000
  C   C8        1.0  0.5394796854153014  0.6770616258804623  0.8949511681714384  1.0000
  C   C9        1.0  0.7589690779664762  0.9221042190371522  0.4031604303428651  1.0000
  C   C10       1.0  0.2410315625252224  0.07789713963795457  0.5968399260771236  1.0000
  C   C11       1.0  0.7714831486961627  0.3172780998816265  0.02987832134577674  1.0000
  C   C12       1.0  0.22851673415888027  0.6827211495747677  0.9701217704478965  1.0000
  C   C13       1.0  0.6154367812476592  0.16327415664095213  0.42492734633032814  1.0000
  C   C14       1.0  0.3845625624449199  0.8367271989417447  0.5750724829388788  1.0000
  C   C15       1.0  0.9347471926165766  0.7928858609731434  0.6878473102062587  1.0000
  C   C16       1.0  0.06525215377217819  0.20711549362543016  0.3121534579908456  1.0000
  C   C17       1.0  0.8921087823546683  0.9180296702208608  0.7458618536461971  1.0000
  C   C18       1.0  0.10789185544084748  0.08197168943836891  0.2541375638458945  1.0000
  C   C19       1.0  0.7977339732297323  0.9163859993549862  0.5222881914823392  1.0000
  C   C20       1.0  0.20226666726195927  0.0836153593201132  0.47771216493764973  1.0000
  C   C21       1.0  0.430300164374927  0.42627692352814966  0.18578551629654771  1.0000
  C   C22       1.0  0.5696997184801232  0.5737223259282445  0.8142145754971323  1.0000
  C   C23       1.0  0.7999971381157921  0.04205187553223771  0.696407761378623  1.0000
  C   C24       1.0  0.2000037692609595  0.9579484310638335  0.3035917873757015  1.0000
  C   C25       1.0  0.7296229827005261  0.42226290614167544  0.11185450482110329  1.0000
  C   C26       1.0  0.27037663057328126  0.57773739637787  0.8881454557103438  1.0000
  C   C27       1.0  0.8904232465602887  0.7919250073333403  0.5766418163812901  1.0000
  C   C28       1.0  0.10957609982846611  0.20807634726524069  0.42335895181582134  1.0000
  C   C29       1.0  0.6693964461290848  0.14708049284370622  0.946408019751729  1.0000
  C   C30       1.0  0.3306047308289023  0.8529187606892139  0.05359166026482846  1.0000
  S   S1        1.0  0.7688204511035297  0.2009837549664226  0.7603845180998404  1.0000
  S   S2        1.0  0.23118018938816934  0.799017603708677  0.2396158383201481  1.0000
  Br  Br1       1.0  0.2597089616994878  0.4828494141432387  0.5401160607802069  1.0000
  Br  Br2       1.0  0.7402919456772634  0.5171508924528396  0.4598834879741176  1.0000
  Br  Br3       1.0  0.2588244903649795  0.21281656896420745  0.8821266582335952  1.0000
  Br  Br4       1.0  0.7411774899443556  0.7871795273474974  0.11787153771386731  1.0000
  N   N1        1.0  0.5623094839015934  0.4750621792656773  0.1895828750488491  1.0000
  N   N2        1.0  0.43769039895345674  0.5249370701907099  0.810417216744824  1.0000
  N   N3        1.0  0.6499943106392151  0.1621882814303177  0.5365014561769358  1.0000
  N   N4        1.0  0.35000476616830406  0.8378141262314145  0.4634991807579354  1.0000
