data_image0
_chemical_formula_structural       Zn2H44C64N16O8
_chemical_formula_sum              "Zn2 H44 C64 N16 O8"
_cell_length_a       9.225706221542863
_cell_length_b       13.925222500099755
_cell_length_c       13.812675516042061
_cell_angle_alpha    89.99992116888168
_cell_angle_beta     89.99976958311794
_cell_angle_gamma    109.34622578046519

_space_group_name_H-M_alt    "P 1"
_space_group_IT_number       1

loop_
  _space_group_symop_operation_xyz
  'x, y, z'

loop_
  _atom_site_type_symbol
  _atom_site_label
  _atom_site_symmetry_multiplicity
  _atom_site_fract_x
  _atom_site_fract_y
  _atom_site_fract_z
  _atom_site_occupancy
  Zn  Zn1       1.0  0.5000031551138591  4.531596644999864e-07  0.5000002124452294  1.0000
  Zn  Zn2       1.0  0.9999953626691679  0.9999997050374251  8.621131471000002e-07  1.0000
  H   H1        1.0  0.785514987810977  0.9735668129831082  0.38811786644346574  1.0000
  H   H2        1.0  0.7144764958447497  0.026426079964053904  0.8881267380363839  1.0000
  H   H3        1.0  0.21448279801510486  0.026432904945025405  0.6118804244049586  1.0000
  H   H4        1.0  0.2855194472825959  0.973572114775003  0.111867932952066  1.0000
  H   H5        1.0  0.9872667093169054  0.06505542096985552  0.2671003891480979  1.0000
  H   H6        1.0  0.5127144072816423  0.9349347850853749  0.7671179695179617  1.0000
  H   H7        1.0  0.012728854659791145  0.9349420126690478  0.732896453759487  1.0000
  H   H8        1.0  0.4872840308428294  0.0650618904624594  0.2328767014681716  1.0000
  H   H9        1.0  0.0075148061981380075  0.24085985182600209  0.21711127391715476  1.0000
  H   H10       1.0  0.49247190654305933  0.7591326635945848  0.7171241825569011  1.0000
  H   H11       1.0  0.9924847693374657  0.7591391070058437  0.7828877409020765  1.0000
  H   H12       1.0  0.5075257732746793  0.24086248975074653  0.2828762802129035  1.0000
  H   H13       1.0  0.6390490997898651  0.22330695941929693  0.4146767931517772  1.0000
  H   H14       1.0  0.8609567670320715  0.7766911917967437  0.9146733808343369  1.0000
  H   H15       1.0  0.3609537820143273  0.7766942846993319  0.5853258415249414  1.0000
  H   H16       1.0  0.13904101878584638  0.22330852612810764  0.0853270819321921  1.0000
  H   H17       1.0  0.11389791116398841  0.5060244937488606  0.1104285033286558  1.0000
  H   H18       1.0  0.38610391285547496  0.49397748696325294  0.6104283070636214  1.0000
  H   H19       1.0  0.8861035600786024  0.49397827056511556  0.8895719594308177  1.0000
  H   H20       1.0  0.6139014639730433  0.5060222379751096  0.38956708788376204  1.0000
  H   H21       1.0  0.2251881969844618  0.6216810444162704  0.9972868688976178  1.0000
  H   H22       1.0  0.2748158159627465  0.37832129084488025  0.49728680667232783  1.0000
  H   H23       1.0  0.7748118106882772  0.37832095779999986  0.0027135938643497006  1.0000
  H   H24       1.0  0.7251873919947227  0.6216784320852397  0.5027129321141857  1.0000
  H   H25       1.0  0.2818238254493791  0.7849691999271257  0.9106662427656217  1.0000
  H   H26       1.0  0.218174384852702  0.21503567396154472  0.4106651093207887  1.0000
  H   H27       1.0  0.718170054804375  0.2150335573820996  0.08933349603138649  1.0000
  H   H28       1.0  0.781826275107555  0.7849632858700417  0.5893346294696826  1.0000
  H   H29       1.0  0.8457121585420707  0.6255641260311722  0.24179445356030269  1.0000
  H   H30       1.0  0.6542904495704462  0.37444063055302484  0.7417885303930305  1.0000
  H   H31       1.0  0.15428855440739406  0.37443711608578684  0.7582081811193433  1.0000
  H   H32       1.0  0.3457146541048814  0.6255628978636028  0.2582097604429165  1.0000
  H   H33       1.0  0.7273842468775911  0.7574307574950865  0.2840600488316696  1.0000
  H   H34       1.0  0.7726118102039478  0.2425700615940443  0.7840547116631953  1.0000
  H   H35       1.0  0.27260806380069613  0.24256667313473196  0.7159411379165093  1.0000
  H   H36       1.0  0.22739220903857665  0.7574334658195596  0.2159450271196164  1.0000
  H   H37       1.0  0.7908107284135825  0.9168697380711991  0.1820745435575191  1.0000
  H   H38       1.0  0.7091860950361379  0.08313138989070981  0.6820710440748101  1.0000
  H   H39       1.0  0.2091794134072487  0.08312769055585531  0.8179273671662841  1.0000
  H   H40       1.0  0.2908204191953489  0.9168706183283819  0.31793086662379016  1.0000
  H   H41       1.0  0.027481091684968807  0.3878705687576129  0.21459244511728306  1.0000
  H   H42       1.0  0.4725217393031684  0.6121303373866739  0.714591853795099  1.0000
  H   H43       1.0  0.9725217901273806  0.6121306753642983  0.7854080176413305  1.0000
  H   H44       1.0  0.5274778362378783  0.3878686214473603  0.2854057130787311  1.0000
  C   C1        1.0  0.7997466233905898  0.051192565964179  0.36542845169408616  1.0000
  C   C2        1.0  0.7002471996224814  0.9488003977030816  0.8654368199173278  1.0000
  C   C3        1.0  0.20025365743261853  0.9488056327727321  0.6345698391520215  1.0000
  C   C4        1.0  0.2997491226391914  0.0511985581295491  0.1345600229881896  1.0000
  C   C5        1.0  0.9120461751302429  0.1025371809705504  0.2988068492403713  1.0000
  C   C6        1.0  0.5879412627951767  0.8974552173615467  0.7988184865060503  1.0000
  C   C7        1.0  0.08795047326566435  0.8974602536658979  0.7011921655838549  1.0000
  C   C8        1.0  0.41205647003897633  0.10254221828012083  0.2011776324259102  1.0000
  C   C9        1.0  0.9237205037783198  0.20106244413326382  0.2714775204217617  1.0000
  C   C10       1.0  0.5762711510892731  0.7989315621683135  0.7714871524270849  1.0000
  C   C11       1.0  0.07627690289983499  0.7989365126958178  0.7285222183731008  1.0000
  C   C12       1.0  0.42372549730662706  0.20106587246813493  0.2285118623971414  1.0000
  C   C13       1.0  0.8255047428322938  0.24705702436460095  0.3140276687775199  1.0000
  C   C14       1.0  0.6744934780138792  0.7529376201774057  0.8140327553260464  1.0000
  C   C15       1.0  0.17449597013076368  0.7529442177578363  0.6859713460386134  1.0000
  C   C16       1.0  0.3255024120916161  0.2470582922631196  0.1859677074456485  1.0000
  C   C17       1.0  0.7171688491595275  0.18949315716898948  0.3808338831953223  1.0000
  C   C18       1.0  0.7828328812555725  0.8105028102467031  0.880833530935945  1.0000
  C   C19       1.0  0.2828325690802557  0.8105073248541288  0.6191673035384895  1.0000
  C   C20       1.0  0.21716414628009767  0.1894953854855146  0.1191662078599478  1.0000
  C   C21       1.0  0.8191537986904294  0.35016131990731475  0.2894335299734152  1.0000
  C   C22       1.0  0.6808461235499549  0.6498364435127043  0.7894358449902371  1.0000
  C   C23       1.0  0.18084577684245326  0.6498376389234367  0.7105662088185198  1.0000
  C   C24       1.0  0.31915236754468174  0.35016251431282813  0.21056678969396359  1.0000
  C   C25       1.0  0.034753008441413276  0.544738854649282  0.1361983917166114  1.0000
  C   C26       1.0  0.465249380222687  0.4552645702128331  0.6361958633330146  1.0000
  C   C27       1.0  0.9652506316531838  0.45526391166526287  0.8638027950126386  1.0000
  C   C28       1.0  0.5347538807457539  0.5447374350114274  0.3638009795610557  1.0000
  C   C29       1.0  0.0555587423317974  0.6427012478638687  0.0933166694172485  1.0000
  C   C30       1.0  0.4444403361601346  0.3573015427777051  0.5933099877068315  1.0000
  C   C31       1.0  0.9444412653300629  0.3573007543480173  0.9066866892355209  1.0000
  C   C32       1.0  0.5555629248082992  0.6427004624465551  0.40668685518724607  1.0000
  C   C33       1.0  0.16422504244511066  0.6737100388633267  0.0181956463039796  1.0000
  C   C34       1.0  0.33577714852979307  0.32629374238398867  0.5181929198967623  1.0000
  C   C35       1.0  0.8357742599373024  0.32629272344678373  0.9818062644038149  1.0000
  C   C36       1.0  0.664224595863267  0.6737052184506213  0.4818053709468444  1.0000
  C   C37       1.0  0.19697314412790948  0.7656134746344352  0.9686898864833963  1.0000
  C   C38       1.0  0.3030264198685728  0.23439046442883443  0.4686877738020954  1.0000
  C   C39       1.0  0.8030229049724155  0.23438928467317066  0.0313120242287894  1.0000
  C   C40       1.0  0.6969763559463188  0.7656062151146655  0.5313119649870899  1.0000
  C   C41       1.0  0.12024571009578718  0.8352392198196766  0.9913553554633482  1.0000
  C   C42       1.0  0.3797533044432909  0.1647638895039449  0.4913516835723258  1.0000
  C   C43       1.0  0.8797499598620461  0.16476277839106504  0.0086465552498751  1.0000
  C   C44       1.0  0.62024957737178  0.8352373546190608  0.5086480552135839  1.0000
  C   C45       1.0  0.011503230317551051  0.8067522153570651  0.072192540766018  1.0000
  C   C46       1.0  0.4884989340438252  0.19325216345345808  0.5721881373370863  1.0000
  C   C47       1.0  0.9884924396348467  0.19324978285148836  0.9278108178925992  1.0000
  C   C48       1.0  0.5115039477794029  0.8067490806728373  0.42780942953072554  1.0000
  C   C49       1.0  0.977950714667031  0.7122213166569579  0.1224017058655704  1.0000
  C   C50       1.0  0.5220516002069857  0.28777923594498134  0.6223940861252686  1.0000
  C   C51       1.0  0.022047450274335724  0.2877791623570829  0.877603824708828  1.0000
  C   C52       1.0  0.47795594546266756  0.7122204909895655  0.3776049286827003  1.0000
  C   C53       1.0  0.8730202457519313  0.6961273695310768  0.20076538743828112  1.0000
  C   C54       1.0  0.6269829438199112  0.30387370783284245  0.7007589107330574  1.0000
  C   C55       1.0  0.12697970890984317  0.3038723503910532  0.7992379712161223  1.0000
  C   C56       1.0  0.37302324428006983  0.6961298215835187  0.2992401040741298  1.0000
  C   C57       1.0  0.8071773122988191  0.7691142499314908  0.2238007894935166  1.0000
  C   C58       1.0  0.6928249988850437  0.23088751776194985  0.7237949594458328  1.0000
  C   C59       1.0  0.19281900994381115  0.23088470589346596  0.7762011212209076  1.0000
  C   C60       1.0  0.30718227364229744  0.7691160126552535  0.2762040553598979  1.0000
  C   C61       1.0  0.843125377778172  0.8583922564744813  0.1684500709180128  1.0000
  C   C62       1.0  0.6568744752009507  0.14161043694940645  0.6684444602745074  1.0000
  C   C63       1.0  0.1568676911796416  0.1416066963468765  0.8315525637734993  1.0000
  C   C64       1.0  0.343132092036072  0.8583938535616371  0.3315560024770505  1.0000
  N   N1        1.0  0.943030973358951  0.8761947595642073  0.09579853955505509  1.0000
  N   N2        1.0  0.5569705099899308  0.12380815489409973  0.5957932226187026  1.0000
  N   N3        1.0  0.056964264453590416  0.12380419525882053  0.9042040951335295  1.0000
  N   N4        1.0  0.44303491982507365  0.8761938523285336  0.4042057921905524  1.0000
  N   N5        1.0  0.7022360338447129  0.093619898243098  0.405054475808079  1.0000
  N   N6        1.0  0.7977630195561931  0.9063775150046711  0.9050568476339578  1.0000
  N   N7        1.0  0.29776429996770304  0.9063805827791854  0.5949467109271963  1.0000
  N   N8        1.0  0.20223259741243987  0.09362220092069859  0.0949421671900978  1.0000
  N   N9        1.0  0.9305091775051295  0.5014946324491519  0.2008783832424754  1.0000
  N   N10       1.0  0.5694932529167218  0.4985049223724118  0.7008761382498249  1.0000
  N   N11       1.0  0.06949370430177741  0.498506611670564  0.7991235274615391  1.0000
  N   N12       1.0  0.4305081123311326  0.5014932773642402  0.29912287656752307  1.0000
  N   N13       1.0  0.9331757544158561  0.4090259724339944  0.2322069137784979  1.0000
  N   N14       1.0  0.5668257352909052  0.5909742475971103  0.7322074449776679  1.0000
  N   N15       1.0  0.06682674825129455  0.590974510589959  0.76779427295385  1.0000
  N   N16       1.0  0.43317384024197736  0.40902471123363443  0.2677922938142672  1.0000
  O   O1        1.0  0.14069292365697095  0.9196615126344343  0.9453924151220932  1.0000
  O   O2        1.0  0.35930491969685346  0.08033869150366259  0.4453903621382338  1.0000
  O   O3        1.0  0.859297597309066  0.0803366770905853  0.0546087716279757  1.0000
  O   O4        1.0  0.6407005101127154  0.9196633157167825  0.5546101006164222  1.0000
  O   O5        1.0  0.7100278669341761  0.3769156887734582  0.31931852780384423  1.0000
  O   O6        1.0  0.7899659764554912  0.6230789357457882  0.8193205854112121  1.0000
  O   O7        1.0  0.2899717086041492  0.6230832700594818  0.6806797630426901  1.0000
  O   O8        1.0  0.21002882920903693  0.37691697568842397  0.180683497225445  1.0000
