data_image0
_chemical_formula_structural       Fe2H16Au4C32N20
_chemical_formula_sum              "Fe2 H16 Au4 C32 N20"
_cell_length_a       9.985887834482483
_cell_length_b       9.985890843349035
_cell_length_c       15.092658115038695
_cell_angle_alpha    89.99976164731929
_cell_angle_beta     90.00016130155025
_cell_angle_gamma    104.9443703242874

_space_group_name_H-M_alt    "P 1"
_space_group_IT_number       1

loop_
  _space_group_symop_operation_xyz
  'x, y, z'

loop_
  _atom_site_type_symbol
  _atom_site_label
  _atom_site_symmetry_multiplicity
  _atom_site_fract_x
  _atom_site_fract_y
  _atom_site_fract_z
  _atom_site_occupancy
  Fe  Fe1       1.0  0.24999952222379557  0.750000016796548  0.6154785899019827  1.0000
  Fe  Fe2       1.0  0.749998518767647  0.24999906829399507  0.3845210915982164  1.0000
  H   H1        1.0  0.07965697337728272  0.5796589236555504  0.7538929847676457  1.0000
  H   H2        1.0  0.4203448568267518  0.9203455095976381  0.7538921711365276  1.0000
  H   H3        1.0  0.9203431846168185  0.42034429406864127  0.2461073593026484  1.0000
  H   H4        1.0  0.5796544619175207  0.0796545989607154  0.24610751036345846  1.0000
  H   H5        1.0  0.0717627009114921  0.5717640330164712  0.9181887657988809  1.0000
  H   H6        1.0  0.4282383132851066  0.9282384635402963  0.9181886077412215  1.0000
  H   H7        1.0  0.9282366178327878  0.428236075541889  0.0818109157011051  1.0000
  H   H8        1.0  0.5717630014664933  0.07176161917338672  0.0818117363344726  1.0000
  H   H9        1.0  0.0722710245662412  0.572271847454452  0.31322839806109215  1.0000
  H   H10       1.0  0.4277277299215214  0.9277319389562705  0.3132275778751108  1.0000
  H   H11       1.0  0.9277292921821569  0.4277282481806494  0.6867719460136499  1.0000
  H   H12       1.0  0.5722711503197502  0.07227025530011838  0.6867727661954035  1.0000
  H   H13       1.0  0.07990196643577013  0.5799009179930863  0.47729558424558854  1.0000
  H   H14       1.0  0.42009896541078  0.9201008942293992  0.4772947708262336  1.0000
  H   H15       1.0  0.9200983503135588  0.420099177640175  0.5227054224029644  1.0000
  H   H16       1.0  0.5799009128355478  0.07990128710189028  0.5227068983928476  1.0000
  Au  Au1       1.0  0.2500005799480363  0.24999903351618966  0.6063569622592125  1.0000
  Au  Au2       1.0  0.24999828502445345  0.2499996505500305  0.3936383029228309  1.0000
  Au  Au3       1.0  0.75000273079786  0.7500010233786013  0.3936347683588437  1.0000
  Au  Au4       1.0  0.7499994762108385  0.7499983981641731  0.606356740561857  1.0000
  C   C1        1.0  0.23317256990218027  0.4414208812612868  0.6107097928632825  1.0000
  C   C2        1.0  0.26683103675050274  0.058575050007988176  0.6107189649917686  1.0000
  C   C3        1.0  0.0585733912322155  0.2668333669602844  0.3892816781892137  1.0000
  C   C4        1.0  0.4414241645754585  0.2331659454350898  0.3892814194735763  1.0000
  C   C5        1.0  0.7668371673612525  0.5585770124161866  0.38927796232088957  1.0000
  C   C6        1.0  0.7331681609984314  0.9414209000720462  0.3892807165138308  1.0000
  C   C7        1.0  0.9414226537463078  0.7331657439859853  0.6107133652924119  1.0000
  C   C8        1.0  0.5585735966691415  0.7668321032607037  0.610720249749221  1.0000
  C   C9        1.0  0.15477883877476015  0.6547796544943477  0.7927237522071877  1.0000
  C   C10       1.0  0.3452231005620874  0.8452245629186731  0.7927236677643776  1.0000
  C   C11       1.0  0.8452230354789024  0.3452225009922713  0.2072785795876086  1.0000
  C   C12       1.0  0.6547762181868392  0.15477554563047846  0.207279326604656  1.0000
  C   C13       1.0  0.15104367604615723  0.6510442000746578  0.8846287045643351  1.0000
  C   C14       1.0  0.34895824183498547  0.8489584701017914  0.8846286168105307  1.0000
  C   C15       1.0  0.8489583569580786  0.34895483333022526  0.11537097693966558  1.0000
  C   C16       1.0  0.6510427931660487  0.15104057622450984  0.1153710646925177  1.0000
  C   C17       1.0  0.25000080681552816  0.7500022451761834  0.9323982447120256  1.0000
  C   C18       1.0  0.7500005079379334  0.2499978375338187  0.0676034245112902  1.0000
  C   C19       1.0  0.25000069545446724  0.7500016182191869  0.0299660888777851  1.0000
  C   C20       1.0  0.7500006192989942  0.24999846449080818  0.9700355803455236  1.0000
  C   C21       1.0  0.2499992199894905  0.7500022042192069  0.2013209277843089  1.0000
  C   C22       1.0  0.7500013765104113  0.2499989278014353  0.7986807414368896  1.0000
  C   C23       1.0  0.2499993569592575  0.7500019333237941  0.2987928236424366  1.0000
  C   C24       1.0  0.7500002415365116  0.24999921162010705  0.701208183004006  1.0000
  C   C25       1.0  0.1513236025380635  0.6513249443791977  0.34659027952244514  1.0000
  C   C26       1.0  0.3486752457125064  0.8486786565897687  0.346590192014986  1.0000
  C   C27       1.0  0.8486769939618382  0.3486761876414519  0.6534113896987535  1.0000
  C   C28       1.0  0.6513246325347593  0.15132352473967356  0.6534121397779131  1.0000
  C   C29       1.0  0.1548356431816558  0.654837098049981  0.43836205132972594  1.0000
  C   C30       1.0  0.34516374273818673  0.8451670292011214  0.4383619669367888  1.0000
  C   C31       1.0  0.8451642350628105  0.3451650832849892  0.5616382927417334  1.0000
  C   C32       1.0  0.6548348577543803  0.15483412866419843  0.5616390397086944  1.0000
  N   N1        1.0  0.22927349863636692  0.5575314061025124  0.6142278962542561  1.0000
  N   N2        1.0  0.27072809780490553  0.9424706813721069  0.6142300551355149  1.0000
  N   N3        1.0  0.9424698914075975  0.27072741684565216  0.3857695318343061  1.0000
  N   N4        1.0  0.5575257131288182  0.22927281142509767  0.3857692294764162  1.0000
  N   N5        1.0  0.7707290938624779  0.4424697000900364  0.38576847237835915  1.0000
  N   N6        1.0  0.7292697844322332  0.05753152580754059  0.3857696263602364  1.0000
  N   N7        1.0  0.057528149581983726  0.7292716682485788  0.6142288245182711  1.0000
  N   N8        1.0  0.44247288736189455  0.7707283464439026  0.6142304520214523  1.0000
  N   N9        1.0  0.2500009842397901  0.7500006758332346  0.7466059224717156  1.0000
  N   N10       1.0  0.749998334506344  0.2499994327214381  0.2533950841758852  1.0000
  N   N11       1.0  0.15168532020640405  0.6516839830728073  0.0720422197445103  1.0000
  N   N12       1.0  0.3483169072086766  0.8483179701778947  0.07204213255586467  1.0000
  N   N13       1.0  0.8483159945470576  0.3483160996371949  0.9279594494788057  1.0000
  N   N14       1.0  0.6516826912880233  0.15168317476416596  0.9279595366643889  1.0000
  N   N15       1.0  0.1516911133707239  0.6516899071410122  0.15932638068692734  1.0000
  N   N16       1.0  0.3483103613486094  0.8483115738681022  0.15932629350372446  1.0000
  N   N17       1.0  0.8483111993859395  0.3483101626475714  0.8406752885373336  1.0000
  N   N18       1.0  0.6516892371480906  0.15168957107395897  0.8406753757165218  1.0000
  N   N19       1.0  0.24999961755663946  0.7500014179207424  0.484241932652111  1.0000
  N   N20       1.0  0.7500002606887647  0.25000076341238747  0.5157590739931663  1.0000
