data_image0
_chemical_formula_structural       Ni2H14C16S4N6O2
_chemical_formula_sum              "Ni2 H14 C16 S4 N6 O2"
_cell_length_a       7.862095077464496
_cell_length_b       8.043803306747122
_cell_length_c       9.403948520114545
_cell_angle_alpha    71.38642161875461
_cell_angle_beta     73.85776398716303
_cell_angle_gamma    71.59679251435824

_space_group_name_H-M_alt    "P 1"
_space_group_IT_number       1

loop_
  _space_group_symop_operation_xyz
  'x, y, z'

loop_
  _atom_site_type_symbol
  _atom_site_label
  _atom_site_symmetry_multiplicity
  _atom_site_fract_x
  _atom_site_fract_y
  _atom_site_fract_z
  _atom_site_occupancy
  Ni  Ni1       1.0  0.9673075792275797  0.8437063522324237  0.5843145307201708  1.0000
  Ni  Ni2       1.0  0.21914230544797417  0.11163474948887138  0.6119706108843985  1.0000
  H   H1        1.0  0.40369692327785595  0.651795232452102  0.6357194040504979  1.0000
  H   H2        1.0  0.7853819683168907  0.3066639212575168  0.561944149939194  1.0000
  H   H3        1.0  0.04862939829973809  0.8177515957563056  0.00783125560132454  1.0000
  H   H4        1.0  0.1290658571092393  0.1322396654900899  0.1895415547768664  1.0000
  H   H5        1.0  0.9729442017120746  0.4005520099818725  0.004010436935068633  1.0000
  H   H6        1.0  0.20808699913990844  0.5526220392890481  0.19376418774697873  1.0000
  H   H7        1.0  0.5002978660901861  0.30049971361643196  0.2288024414116734  1.0000
  H   H8        1.0  0.6448933818904052  0.2230773046416488  0.06612515181680581  1.0000
  H   H9        1.0  0.4334024440373269  0.16503927047421743  0.15074662380319384  1.0000
  H   H10       1.0  0.610577011515822  0.5839140249533797  0.39187398349780994  1.0000
  H   H11       1.0  0.5814042371621823  0.3772358344545097  0.8061968680427257  1.0000
  H   H12       1.0  0.5451728579436619  0.6859444478051981  0.08488302157665126  1.0000
  H   H13       1.0  0.758196901156694  0.6991359572054066  0.9580932310441455  1.0000
  H   H14       1.0  0.6797191128699256  0.8068891096205774  0.11216928155992184  1.0000
  C   C1        1.0  0.6039391720506585  0.9330585272619488  0.4486173574943707  1.0000
  C   C2        1.0  0.7794677390525065  0.518660858454865  0.18219444024394701  1.0000
  C   C3        1.0  0.4078938194099352  0.43891944494133384  0.015555179796898203  1.0000
  C   C4        1.0  0.9440419655192044  0.4485282073565031  0.7405887245099549  1.0000
  C   C5        1.0  0.24322682598824494  0.5065748913970367  0.45612124085707967  1.0000
  C   C6        1.0  0.3705641470738427  0.618840355806121  0.7598870106398792  1.0000
  C   C7        1.0  0.8165039474133379  0.3382381237917542  0.4378244179156425  1.0000
  C   C8        1.0  0.16654918609110325  0.7142422113982858  0.9724967433848378  1.0000
  C   C9        1.0  0.014322688147899498  0.23814251083315702  0.22511318304986366  1.0000
  C   C10       1.0  0.9253677183578402  0.387145152977844  0.12631506656040162  1.0000
  C   C11       1.0  0.25704804280367444  0.5668922046472957  0.0714405422447157  1.0000
  C   C12       1.0  0.5030298311899629  0.27449665093308073  0.12058444414527265  1.0000
  C   C13       1.0  0.7251242358408374  0.48799928199980497  0.34175370756315004  1.0000
  C   C14       1.0  0.46349015894347195  0.4703811633605284  0.8562069886280241  1.0000
  C   C15       1.0  0.5821579893806259  0.023058604092725008  0.7472385582538977  1.0000
  C   C16       1.0  0.6872691329545618  0.6858467503040656  0.07769584952880144  1.0000
  S   S1        1.0  0.24265402509850983  0.7206294734887139  0.41120256476344247  1.0000
  S   S2        1.0  0.36287511308269427  0.09320069063364401  0.8116870717430585  1.0000
  S   S3        1.0  0.9449258566129899  0.23440388498228507  0.7855477529962585  1.0000
  S   S4        1.0  0.8233435114758407  0.862604374608175  0.38456761414484225  1.0000
  N   N1        1.0  0.44516383495083284  0.9808147207893044  0.4949795100158313  1.0000
  N   N2        1.0  0.2434367275986133  0.3520615367711031  0.48779272378300226  1.0000
  N   N3        1.0  0.9432774417661989  0.6032302360736993  0.7087540475546561  1.0000
  N   N4        1.0  0.9623513292044524  0.219099755476222  0.3782186500760858  1.0000
  N   N5        1.0  0.22199650097292775  0.7355839662971705  0.8191643095144486  1.0000
  N   N6        1.0  0.74088809900951  0.9752795375520051  0.7006528700739381  1.0000
  O   O1        1.0  0.12720075712168472  0.8762097819117756  0.7258970186532423  1.0000
  O   O2        1.0  0.05818343759084142  0.07890484506464189  0.4710940344694378  1.0000
