data_image0
_chemical_formula_structural       Cu2H28C30N4O8
_chemical_formula_sum              "Cu2 H28 C30 N4 O8"
_cell_length_a       7.4376941102854515
_cell_length_b       7.873369834765683
_cell_length_c       12.980433126479085
_cell_angle_alpha    97.12850084325905
_cell_angle_beta     98.50843776913344
_cell_angle_gamma    92.51242609115974

_space_group_name_H-M_alt    "P 1"
_space_group_IT_number       1

loop_
  _space_group_symop_operation_xyz
  'x, y, z'

loop_
  _atom_site_type_symbol
  _atom_site_label
  _atom_site_symmetry_multiplicity
  _atom_site_fract_x
  _atom_site_fract_y
  _atom_site_fract_z
  _atom_site_occupancy
  Cu  Cu1       1.0  0.9264592990397417  0.44268676540526286  0.5739788461401856  1.0000
  Cu  Cu2       1.0  0.0735323665903422  0.5573038913125287  0.4260134098216993  1.0000
  H   H1        1.0  0.5436683779136473  0.2045937244169806  0.0009850210504467089  1.0000
  H   H2        1.0  0.45634175082106754  0.7954071915484419  0.9990179802025235  1.0000
  H   H3        1.0  0.3251029593043597  0.35699771499559313  0.09854246810783708  1.0000
  H   H4        1.0  0.6749030931628326  0.6430212665018048  0.9014715163615602  1.0000
  H   H5        1.0  0.5334830878890884  0.3673105517368214  0.5938504815720689  1.0000
  H   H6        1.0  0.466520847886983  0.6326428479591967  0.4061400982038278  1.0000
  H   H7        1.0  0.3358316461817381  0.2813231480527989  0.7224734277246083  1.0000
  H   H8        1.0  0.6641680647309798  0.7186469610902506  0.277519550495441  1.0000
  H   H9        1.0  0.005925100343638702  0.3410644729841223  0.8025287397535334  1.0000
  H   H10       1.0  0.9940785000764407  0.6589403059661407  0.19747245909560002  1.0000
  H   H11       1.0  0.13875633836374127  0.2956132790868438  0.2364091032559869  1.0000
  H   H12       1.0  0.8612560627355564  0.7043992810181978  0.763607254241151  1.0000
  H   H13       1.0  0.8982398976967189  0.059981850488057396  0.19874051259576217  1.0000
  H   H14       1.0  0.10177986327952479  0.9400383895498762  0.8012785504001979  1.0000
  H   H15       1.0  0.829869511509763  0.26649945159806515  0.9429726972932996  1.0000
  H   H16       1.0  0.1701370893204057  0.733509170190267  0.057029798224036164  1.0000
  H   H17       1.0  0.8117196466280774  0.019267536128687396  0.6016677888172166  1.0000
  H   H18       1.0  0.18829182115918286  0.9807345095628366  0.398318456085313  1.0000
  H   H19       1.0  0.594410857104364  0.9113086996835307  0.5539694060449845  1.0000
  H   H20       1.0  0.40560276888034247  0.08868447034704728  0.4460294730736079  1.0000
  H   H21       1.0  0.7236423664676651  0.0090576245715042  0.4671404119407183  1.0000
  H   H22       1.0  0.27635169921580177  0.9909291195379807  0.5328455968209977  1.0000
  H   H23       1.0  0.6079728074286165  0.10792345330488472  0.2824261090069412  1.0000
  H   H24       1.0  0.39200753532132643  0.892080060510331  0.7175638269969153  1.0000
  H   H25       1.0  0.6044546516299719  0.2750869528256672  0.20092267200327996  1.0000
  H   H26       1.0  0.3955176291751243  0.7249178779954518  0.7990666913698802  1.0000
  H   H27       1.0  0.4616979420931245  0.2761795243210443  0.3016748124912708  1.0000
  H   H28       1.0  0.5382895242190742  0.7238278752703878  0.6983236984731247  1.0000
  C   C1        1.0  0.8236784770610656  0.773396167971235  0.5163773313598694  1.0000
  C   C2        1.0  0.17632289697628073  0.2265970270072941  0.48361745305015075  1.0000
  C   C3        1.0  0.1943952735894214  0.15141087533392292  0.9843871220184465  1.0000
  C   C4        1.0  0.8056053324324778  0.8486081157658277  0.015624871177884348  1.0000
  C   C5        1.0  0.9464708721721847  0.9841030989693564  0.03975829835517423  1.0000
  C   C6        1.0  0.0535325392499857  0.015917156504990305  0.9602532481982349  1.0000
  C   C7        1.0  0.568474136214718  0.26606017394526293  0.8434164605055228  1.0000
  C   C8        1.0  0.43152580680640545  0.7339317709713813  0.15658119664486486  1.0000
  C   C9        1.0  0.46440962436744826  0.21726877021747984  0.923550783453244  1.0000
  C   C10       1.0  0.5355993454293965  0.7827347366399808  0.07645462026008686  1.0000
  C   C11       1.0  0.7437755542583488  0.34525140567748747  0.3598041204333952  1.0000
  C   C12       1.0  0.2562113168062297  0.6547482451528879  0.6401876179742982  1.0000
  C   C13       1.0  0.222484827661809  0.2500248702113481  0.08271788523710905  1.0000
  C   C14       1.0  0.7775217689620746  0.7500017931938957  0.9172951586722673  1.0000
  C   C15       1.0  0.5922880782605944  0.340667410689413  0.6718643742014689  1.0000
  C   C16       1.0  0.4077116581975773  0.6593027318802457  0.3281324605769313  1.0000
  C   C17       1.0  0.4836513093492912  0.29414601315306743  0.743284126865717  1.0000
  C   C18       1.0  0.5163555970851165  0.7058292375713364  0.2567144414120647  1.0000
  C   C19       1.0  0.8572672456827207  0.32834720888259034  0.7885208257793153  1.0000
  C   C20       1.0  0.14272889224641008  0.6716485942177217  0.21147602460376894  1.0000
  C   C21       1.0  0.11548551412922589  0.21755091939488122  0.15983311354603555  1.0000
  C   C22       1.0  0.8845166510683525  0.7824706511104154  0.8401815064355131  1.0000
  C   C23       1.0  0.9802272794119349  0.08667560917788109  0.1390560529813669  1.0000
  C   C24       1.0  0.019781106258285802  0.9133382105913981  0.8609554405023301  1.0000
  C   C25       1.0  0.7589747068128787  0.28564062362959675  0.86602068427468  1.0000
  C   C26       1.0  0.24103385763706336  0.7143577062449536  0.13397891888140376  1.0000
  C   C27       1.0  0.7302912143623104  0.9379327043867037  0.5345764524023193  1.0000
  C   C28       1.0  0.26971449870551817  0.06206430094535881  0.4654166555916459  1.0000
  C   C29       1.0  0.5950519199471955  0.24607044207407108  0.2802443825140911  1.0000
  C   C30       1.0  0.40492708418234  0.7539331042256807  0.7197485265740226  1.0000
  N   N1        1.0  0.7759031137690684  0.35637722466917415  0.693221742980988  1.0000
  N   N2        1.0  0.22409600279883082  0.6436031840150493  0.306775782386083  1.0000
  N   N3        1.0  0.29077771023256105  0.18698543501928816  0.9043815812442018  1.0000
  N   N4        1.0  0.7092257884763313  0.8130360963161538  0.09562929434142119  1.0000
  O   O1        1.0  0.7363572979348234  0.3311473327540355  0.45587235125098846  1.0000
  O   O2        1.0  0.2636220808870533  0.668861350416691  0.5441217305243455  1.0000
  O   O3        1.0  0.9233343069559651  0.7597504180696718  0.44420348451581043  1.0000
  O   O4        1.0  0.0766541632542257  0.2402338173465779  0.5557857314667558  1.0000
  O   O5        1.0  0.7978610179276941  0.6611054795059844  0.5766655986997263  1.0000
  O   O6        1.0  0.20215318797735188  0.3388954192296866  0.4233377390405479  1.0000
  O   O7        1.0  0.8642170160572462  0.4331579785619226  0.32522170938306505  1.0000
  O   O8        1.0  0.13578080319513222  0.5668236783000397  0.6747711762954366  1.0000
