data_image0
_chemical_formula_structural       Cd2H20C28S8N4O10
_chemical_formula_sum              "Cd2 H20 C28 S8 N4 O10"
_cell_length_a       7.593698494735563
_cell_length_b       7.593678812494586
_cell_length_c       16.53961680831427
_cell_angle_alpha    81.58882749816047
_cell_angle_beta     81.5888496799907
_cell_angle_gamma    71.44675271835962

_space_group_name_H-M_alt    "P 1"
_space_group_IT_number       1

loop_
  _space_group_symop_operation_xyz
  'x, y, z'

loop_
  _atom_site_type_symbol
  _atom_site_label
  _atom_site_symmetry_multiplicity
  _atom_site_fract_x
  _atom_site_fract_y
  _atom_site_fract_z
  _atom_site_occupancy
  Cd  Cd1       1.0  0.12677711644190032  0.8732254277837512  0.7499960047026732  1.0000
  Cd  Cd2       1.0  0.8732140349342571  0.12677950305787525  0.2500001741715678  1.0000
  H   H1        1.0  0.8353401071764707  0.26813883267230654  0.47850725795208865  1.0000
  H   H2        1.0  0.7318804562249  0.16465434936812062  0.02148743002315711  1.0000
  H   H3        1.0  0.16466040907412344  0.7318720700450784  0.5214802373674559  1.0000
  H   H4        1.0  0.2681293919178103  0.8353304773464031  0.9785191095692483  1.0000
  H   H5        1.0  0.6482335135293482  0.5699717159909665  0.40666551051103994  1.0000
  H   H6        1.0  0.4300566870300031  0.35175582515768866  0.09333742785811691  1.0000
  H   H7        1.0  0.35175120350443473  0.43004169484708393  0.5933287441338351  1.0000
  H   H8        1.0  0.5699566442113592  0.6482385492062335  0.9066726519453566  1.0000
  H   H9        1.0  0.5612282789638314  0.8618873544033574  0.4706532921570883  1.0000
  H   H10       1.0  0.1381355380910421  0.43875726647056706  0.02935618744458419  1.0000
  H   H11       1.0  0.43874986232636104  0.13812432970732394  0.529348060759574  1.0000
  H   H12       1.0  0.8618779197146794  0.5612413576538913  0.9706524488505011  1.0000
  H   H13       1.0  0.656656533747352  0.8654797860765272  0.6096991887886816  1.0000
  H   H14       1.0  0.1345259663392468  0.34333674522132895  0.8903094874075138  1.0000
  H   H15       1.0  0.34334156975687335  0.13451948682200043  0.3902981311306206  1.0000
  H   H16       1.0  0.8654811641618494  0.6566604006161966  0.1097013803502236  1.0000
  H   H17       1.0  0.38730045904368643  0.4956529420108069  0.7365689798435895  1.0000
  H   H18       1.0  0.5043447326295974  0.6126916410661707  0.76343293107481  1.0000
  H   H19       1.0  0.612684209753496  0.5043503552686203  0.26343247224900784  1.0000
  H   H20       1.0  0.4956476211205753  0.38730491216852403  0.2365636305243797  1.0000
  C   C1        1.0  0.9600739780108968  0.2423385163173676  0.6375888028282191  1.0000
  C   C2        1.0  0.7576676443540861  0.039915546545870484  0.8624097794315944  1.0000
  C   C3        1.0  0.03992450049666021  0.7576652547821324  0.3624022067735595  1.0000
  C   C4        1.0  0.24233739878621927  0.9600762369866087  0.1375972504217131  1.0000
  C   C5        1.0  0.8503738581819107  0.3999537807525684  0.5829821880016652  1.0000
  C   C6        1.0  0.6000596654068671  0.14962011349442148  0.9170151595890275  1.0000
  C   C7        1.0  0.1496284403381409  0.6000516285212925  0.4170036901562569  1.0000
  C   C8        1.0  0.39995079837589737  0.8503758795192126  0.08299075155801461  1.0000
  C   C9        1.0  0.7964221506078673  0.39856102135809823  0.5062694688531764  1.0000
  C   C10       1.0  0.6014588498187621  0.20356685521627324  0.9937265900792197  1.0000
  C   C11       1.0  0.20357133422318438  0.601445394688703  0.4937246912201729  1.0000
  C   C12       1.0  0.39855245617155083  0.7964222189527063  0.006278435117543774  1.0000
  C   C13       1.0  0.6916852793557381  0.566890465067196  0.466776641899436  1.0000
  C   C14       1.0  0.43313716847021766  0.3083016270965757  0.03322646791291821  1.0000
  C   C15       1.0  0.3083071273207807  0.43312445280675843  0.5332147020443969  1.0000
  C   C16       1.0  0.5668810632830346  0.6916900091548752  0.9667822864724089  1.0000
  C   C17       1.0  0.6418603462764022  0.7331081250349527  0.5034092263652425  1.0000
  C   C18       1.0  0.2669152002159976  0.3581231336952796  0.9965990368556775  1.0000
  C   C19       1.0  0.3581286316089631  0.26690372695741615  0.49658790934653047  1.0000
  C   C20       1.0  0.7331021248750957  0.6418712337504003  0.0034108302860361046  1.0000
  C   C21       1.0  0.6946472062839887  0.7364877629290447  0.5808138250659738  1.0000
  C   C22       1.0  0.26352327407916226  0.3053456694541764  0.919193988105917  1.0000
  C   C23       1.0  0.30534839227297544  0.2635157953972324  0.41918158476831024  1.0000
  C   C24       1.0  0.7364879123814133  0.694651531575225  0.08081545028777268  1.0000
  C   C25       1.0  0.7983465410672466  0.5677161412470397  0.6187580267612206  1.0000
  C   C26       1.0  0.4322921891379962  0.2016448334444901  0.8812451744410197  1.0000
  C   C27       1.0  0.2016526577732378  0.4322847123278989  0.3812355201910265  1.0000
  C   C28       1.0  0.567718465663745  0.7983595969801129  0.1187590663915259  1.0000
  S   S1        1.0  0.04154317602715449  0.021208550654542097  0.6102341968957745  1.0000
  S   S2        1.0  0.9787944627671832  0.9584412855058274  0.889761183110288  1.0000
  S   S3        1.0  0.9584425834165416  0.9787880762206669  0.3897615024374018  1.0000
  S   S4        1.0  0.0212136179429407  0.04155499161546319  0.1102393946509821  1.0000
  S   S5        1.0  0.8893684621695853  0.5117226341405257  0.715639724575425  1.0000
  S   S6        1.0  0.4882781757729191  0.11062645313852215  0.7843618758860558  1.0000
  S   S7        1.0  0.11063346134713474  0.4882782769323625  0.2843524639000279  1.0000
  S   S8        1.0  0.511726507200919  0.8893667891562341  0.2156438852920175  1.0000
  N   N1        1.0  0.9876546848827134  0.28700636217534736  0.7082582475850074  1.0000
  N   N2        1.0  0.7129926458767386  0.012336827498273795  0.7917412149576748  1.0000
  N   N3        1.0  0.012332110132376813  0.7129959088064908  0.2917358853795804  1.0000
  N   N4        1.0  0.2870045050735969  0.9876591885761596  0.2082654050619155  1.0000
  O   O1        1.0  0.740903392649372  0.5401262289547047  0.7835822052503403  1.0000
  O   O2        1.0  0.4598683377715886  0.2590921806864514  0.716421505711061  1.0000
  O   O3        1.0  0.2590938834841694  0.4598859197517271  0.2164084216264754  1.0000
  O   O4        1.0  0.540138972024124  0.7408927748604553  0.2835827422512835  1.0000
  O   O5        1.0  0.03378878284699746  0.5977391029922924  0.7188912634597457  1.0000
  O   O6        1.0  0.40225430865696427  0.9662108041151212  0.7811098639550806  1.0000
  O   O7        1.0  0.9662204816742559  0.4022505968899494  0.2811017364886795  1.0000
  O   O8        1.0  0.597736581788233  0.0337920468631339  0.2188997506172328  1.0000
  O   O9        1.0  0.37983952666597526  0.6201558520250926  0.7500018358676996  1.0000
  O   O10       1.0  0.620146802526044  0.37984595313091757  0.250001422364015  1.0000
