data_image0
_chemical_formula_structural       In2H24C36N8Cl2O18
_chemical_formula_sum              "In2 H24 C36 N8 Cl2 O18"
_cell_length_a       7.762489054732125
_cell_length_b       9.90262097079654
_cell_length_c       12.540660946917072
_cell_angle_alpha    90.55713885525552
_cell_angle_beta     92.68910161862203
_cell_angle_gamma    104.992480982945

_space_group_name_H-M_alt    "P 1"
_space_group_IT_number       1

loop_
  _space_group_symop_operation_xyz
  'x, y, z'

loop_
  _atom_site_type_symbol
  _atom_site_label
  _atom_site_symmetry_multiplicity
  _atom_site_fract_x
  _atom_site_fract_y
  _atom_site_fract_z
  _atom_site_occupancy
  In  In1       1.0  0.4273366750785427  0.9942473183414863  0.255179797562171  1.0000
  In  In2       1.0  0.572663833259817  0.005752308713944401  0.74482116343723  1.0000
  H   H1        1.0  0.8764962194304359  0.5362939408490989  0.833691269875132  1.0000
  H   H2        1.0  0.12350370302378615  0.463707783654236  0.16630889664044451  1.0000
  H   H3        1.0  0.6003075125102411  0.44058107186082646  0.19022370019178683  1.0000
  H   H4        1.0  0.3996917056696103  0.5594185612880976  0.809776427550247  1.0000
  H   H5        1.0  0.7496258712317356  0.931353119559397  0.04841085509725931  1.0000
  H   H6        1.0  0.2503775675297745  0.0686475424790842  0.9515909943523297  1.0000
  H   H7        1.0  0.05844398473878699  0.0685546779131343  0.5981017374711897  1.0000
  H   H8        1.0  0.9415561714623946  0.9314439034650945  0.4018992041414364  1.0000
  H   H9        1.0  0.11961758529591283  0.5793731614281796  0.6793457422808871  1.0000
  H   H10       1.0  0.880383857001668  0.4206254168422136  0.32065443768647844  1.0000
  H   H11       1.0  0.37359229723616477  0.43666480286051984  0.3463591226478826  1.0000
  H   H12       1.0  0.6264069209436867  0.5633348302884044  0.6536410050941514  1.0000
  H   H13       1.0  0.858222927549306  0.8193493154358009  0.8917231960436142  1.0000
  H   H14       1.0  0.14177828506342385  0.1806524029740402  0.1082778037293366  1.0000
  H   H15       1.0  0.002929625513871794  0.27424725575297515  0.7008115105133328  1.0000
  H   H16       1.0  0.9970721709519451  0.7257523667017909  0.2991894862921143  1.0000
  H   H17       1.0  0.7575191218214101  0.0320204920840936  0.3202007530833413  1.0000
  H   H18       1.0  0.242482086729204  0.9679812293114126  0.6797986517869745  1.0000
  H   H19       1.0  0.7563850676148858  0.04413033328280851  0.1926709382966223  1.0000
  H   H20       1.0  0.2436139147869483  0.955872444484058  0.8073276168970481  1.0000
  H   H21       1.0  0.6233320230807066  0.73525966351243  0.1820619022443495  1.0000
  H   H22       1.0  0.37666848322660224  0.26473996503582964  0.8179382613037305  1.0000
  H   H23       1.0  0.23747985796535429  0.1641454894785355  0.43471069465780937  1.0000
  H   H24       1.0  0.7625215843322266  0.8358530887918578  0.565289485309556  1.0000
  C   C1        1.0  0.3120960605019007  0.7974941495018015  0.5781923732448888  1.0000
  C   C2        1.0  0.6879024513725227  0.20250339378554125  0.4218069182722815  1.0000
  C   C3        1.0  0.7839504407684144  0.2664345376937334  0.8747876719712551  1.0000
  C   C4        1.0  0.2160491254864993  0.7335661441180648  0.1252108802549188  1.0000
  C   C5        1.0  0.7715661930655952  0.38214484233083107  0.9504275708770393  1.0000
  C   C6        1.0  0.22843150730195555  0.6178579355581988  0.049573340864526506  1.0000
  C   C7        1.0  0.8193992878238914  0.5174891729630957  0.9114586109176342  1.0000
  C   C8        1.0  0.18060156858953746  0.48251150275520166  0.08854077456590659  1.0000
  C   C9        1.0  0.6671419390771615  0.21387591198867284  0.1010973681672951  1.0000
  C   C10       1.0  0.3328550529539027  0.7861247775316115  0.8989019098980932  1.0000
  C   C11       1.0  0.6969498038725985  0.3553585020332407  0.0518015614688068  1.0000
  C   C12       1.0  0.30304683399022275  0.6446411433026641  0.9481968997584929  1.0000
  C   C13       1.0  0.6606522438821045  0.4619061496283906  0.11346773296656211  1.0000
  C   C14       1.0  0.339345682108174  0.5380934911068563  0.8865307640667908  1.0000
  C   C15       1.0  0.7059145113942619  0.5964569848120223  0.073123366548856  1.0000
  C   C16       1.0  0.2940847067855898  0.40354264833690223  0.926876761193178  1.0000
  C   C17       1.0  0.7867189531383258  0.6238533288707657  0.9743058498271324  1.0000
  C   C18       1.0  0.21327897894513365  0.3761463073859872  0.0256950395601692  1.0000
  C   C19       1.0  0.7501542548725625  0.8220149812783719  0.041591686594045996  1.0000
  C   C20       1.0  0.24984824586762494  0.17798673253081182  0.9584093489849579  1.0000
  C   C21       1.0  0.10616292301249788  0.17697599092649338  0.5765437701224698  1.0000
  C   C22       1.0  0.8938395777276893  0.8230257228826902  0.4234572654565342  1.0000
  C   C23       1.0  0.23311107066174222  0.3682267164310318  0.4902931998952056  1.0000
  C   C24       1.0  0.7668877953809242  0.6317718710406838  0.5097069084600534  1.0000
  C   C25       1.0  0.15607864858591108  0.40737582285471063  0.5816655780794449  1.0000
  C   C26       1.0  0.8439231478799059  0.5926237996000625  0.4183354187260022  1.0000
  C   C27       1.0  0.17369289569870722  0.5478612704112181  0.6073452867534215  1.0000
  C   C28       1.0  0.8263081944616884  0.4521362621819734  0.3926548738271691  1.0000
  C   C29       1.0  0.2676521090739215  0.6472326067052238  0.5383883580265945  1.0000
  C   C30       1.0  0.7323464007694438  0.352764938074948  0.46161013603926193  1.0000
  C   C31       1.0  0.33331428503175425  0.6065265823587964  0.4427006248607626  1.0000
  C   C32       1.0  0.6666858630451883  0.3934720049907554  0.5572971269465938  1.0000
  C   C33       1.0  0.31823806772610647  0.46593936253523077  0.41852435623875545  1.0000
  C   C34       1.0  0.6817608003476251  0.5340592234436556  0.5814765495678246  1.0000
  C   C35       1.0  0.41375823121613553  0.711870902067929  0.36156327211446637  1.0000
  C   C36       1.0  0.586239702898382  0.2881287326959949  0.6384384147241492  1.0000
  N   N1        1.0  0.8131160478788713  0.7658903338926778  0.9592422610216857  1.0000
  N   N2        1.0  0.1868848125966807  0.23411033883996174  0.04075871936449  1.0000
  N   N3        1.0  0.6866606372162989  0.7230092366422342  0.1118862353839916  1.0000
  N   N4        1.0  0.31334057539643106  0.27699248176760694  0.8881147643889591  1.0000
  N   N5        1.0  0.20183841334501545  0.22415154625306138  0.49251644551495133  1.0000
  N   N6        1.0  0.7981643191110734  0.7758470259238451  0.5074845677097741  1.0000
  N   N7        1.0  0.07712936583433819  0.2842561417325555  0.6319869156974534  1.0000
  N   N8        1.0  0.9228730144845656  0.7157413847671422  0.3680140781405044  1.0000
  Cl  Cl1       1.0  0.14436182767205  0.0656833427235455  0.2613262643422516  1.0000
  Cl  Cl2       1.0  0.8556373905078016  0.9343162904253789  0.7386738633997824  1.0000
  O   O1        1.0  0.4753006220617521  0.8447157992076555  0.6138307904018064  1.0000
  O   O2        1.0  0.5246982439809145  0.1552827882640599  0.3861693179534528  1.0000
  O   O3        1.0  0.6572290485743861  0.15256689390416514  0.8793075552138347  1.0000
  O   O4        1.0  0.3427708759108867  0.8474348291063408  0.12069340875305559  1.0000
  O   O5        1.0  0.7055964694292525  0.9770018505467488  0.2515627904650231  1.0000
  O   O6        1.0  0.29440345302496235  0.0229998739565858  0.7484373760505534  1.0000
  O   O7        1.0  0.9064746504860678  0.29111676853280943  0.8105978060967657  1.0000
  O   O8        1.0  0.09352561801215839  0.708886006126221  0.1893999874516368  1.0000
  O   O9        1.0  0.7946815953410251  0.15587141851170835  0.1035583783085201  1.0000
  O   O10       1.0  0.20531411059364751  0.8441292741164118  0.8964416614021289  1.0000
  O   O11       1.0  0.5160632234827887  0.1681042144083165  0.1431822479667844  1.0000
  O   O12       1.0  0.4839321282836407  0.831895434035424  0.856816974905776  1.0000
  O   O13       1.0  0.4998731947676091  0.6754830169672702  0.2893404428090919  1.0000
  O   O14       1.0  0.5001273115396927  0.32451661158099654  0.7106597207389882  1.0000
  O   O15       1.0  0.3796918997807594  0.8322400974385362  0.3731065651297527  1.0000
  O   O16       1.0  0.6203073183990923  0.16775953571038119  0.626893562612274  1.0000
  O   O17       1.0  0.1891612326865726  0.8584104253829282  0.5849033048501582  1.0000
  O   O18       1.0  0.8108379814311559  0.1415892107516541  0.41509522798924803  1.0000
