data_image0
_chemical_formula_structural       Al4H84C86O20
_chemical_formula_sum              "Al4 H84 C86 O20"
_cell_length_a       6.614455402987037
_cell_length_b       20.35609112211725
_cell_length_c       23.730113917129998
_cell_angle_alpha    89.69628232584306
_cell_angle_beta     93.25575682897653
_cell_angle_gamma    92.35291755875303

_space_group_name_H-M_alt    "P 1"
_space_group_IT_number       1

loop_
  _space_group_symop_operation_xyz
  'x, y, z'

loop_
  _atom_site_type_symbol
  _atom_site_label
  _atom_site_symmetry_multiplicity
  _atom_site_fract_x
  _atom_site_fract_y
  _atom_site_fract_z
  _atom_site_occupancy
  Al  Al1       1.0  0.1061804377214415  0.4955797561744219  0.5032080513235472  1.0000
  Al  Al2       1.0  0.6046852572431262  0.49278850050143325  0.4990604628004506  1.0000
  Al  Al3       1.0  0.7430895905731774  0.0008959270720509999  0.005999962880707699  1.0000
  Al  Al4       1.0  0.2438286793241176  0.0025345143038038006  0.006697999821376801  1.0000
  H   H1        1.0  0.9788350200464747  0.6228700363079228  0.844482639689204  1.0000
  H   H2        1.0  0.7209659422194433  0.8783270804043327  0.648396379929011  1.0000
  H   H3        1.0  0.9083721328789593  0.7864285184386687  0.9853687874520534  1.0000
  H   H4        1.0  0.7159331940494054  0.8176116070178949  0.559518732312526  1.0000
  H   H5        1.0  0.6037373885717158  0.30625997395260635  0.7375108118772148  1.0000
  H   H6        1.0  0.04297335188072543  0.2877587536344279  0.8434518452107869  1.0000
  H   H7        1.0  0.9510649474573113  0.35910836798272067  0.7694966910730656  1.0000
  H   H8        1.0  0.8893016556224463  0.1297105589083074  0.728082750898821  1.0000
  H   H9        1.0  0.9201163645270327  0.19941296538972608  0.6504865299100048  1.0000
  H   H10       1.0  0.6275121641034146  0.1753842286330638  0.7825781203693796  1.0000
  H   H11       1.0  0.6397658672409249  0.7169243166664857  0.1727094988347346  1.0000
  H   H12       1.0  0.5401834719574551  0.636173188713947  0.23705578684418072  1.0000
  H   H13       1.0  0.0874132438624855  0.7359012669625498  0.2740950929768786  1.0000
  H   H14       1.0  0.2700298932988829  0.7083662579722583  0.1628754722383903  1.0000
  H   H15       1.0  0.5891867215961354  0.7742592239237567  0.33449587910627804  1.0000
  H   H16       1.0  0.3308182345938917  0.7846524882059142  0.34656223659064284  1.0000
  H   H17       1.0  0.699850984130954  0.6775707466142578  0.2882830271669193  1.0000
  H   H18       1.0  0.7613477072144049  0.7654011478765169  0.22685047621995125  1.0000
  H   H19       1.0  0.0671092720591631  0.1363405825224149  0.31391926813810045  1.0000
  H   H20       1.0  0.7788065545641272  0.3139119477591307  0.09145430666174553  1.0000
  H   H21       1.0  0.7672982919700287  0.20788903457629718  0.0413623938067929  1.0000
  H   H22       1.0  0.0511516714859965  0.18425147054048102  0.4048675045667594  1.0000
  H   H23       1.0  0.6805761505589059  0.24823608714208942  0.8213430017579456  1.0000
  H   H24       1.0  0.2380342012424066  0.2559654438560414  0.8054855046899051  1.0000
  H   H25       1.0  0.1701985010077394  0.3363501688271953  0.7364301207346103  1.0000
  H   H26       1.0  0.15008053292187643  0.0554544357965199  0.6848361974916204  1.0000
  H   H27       1.0  0.2628442149411683  0.1264276686077608  0.6535022156910912  1.0000
  H   H28       1.0  0.41156461980452963  0.0754878645514196  0.6987107663733952  1.0000
  H   H29       1.0  0.330587942188764  0.1757973579415335  0.7512619931151009  1.0000
  H   H30       1.0  0.21653915490946218  0.10529837217168142  0.7813912206916881  1.0000
  H   H31       1.0  0.97976959048885  0.6218864000417739  0.6601105923321953  1.0000
  H   H32       1.0  0.5981558132418455  0.23380482117928383  0.6967863522797801  1.0000
  H   H33       1.0  0.15465875229064352  0.23446320673438242  0.67723226430833  1.0000
  H   H34       1.0  0.2541335922204198  0.5973888339333726  0.17560872556430243  1.0000
  H   H35       1.0  0.29717927212156775  0.564356975929293  0.24476168053683273  1.0000
  H   H36       1.0  0.07248548963819698  0.5423105511953564  0.20425660660929887  1.0000
  H   H37       1.0  0.008732976591055312  0.6229339185308191  0.279558461036352  1.0000
  H   H38       1.0  0.9398392119420432  0.6512289741036453  0.2111960124128487  1.0000
  H   H39       1.0  0.12126780140059168  0.7738541149329096  0.18233898874501622  1.0000
  H   H40       1.0  0.007275110175015708  0.7598061272531353  0.45739582677699536  1.0000
  H   H41       1.0  0.011936129846226622  0.6726931003487877  0.4606996948679126  1.0000
  H   H42       1.0  0.8609812953459224  0.710576700453707  0.4067716780688004  1.0000
  H   H43       1.0  0.6398823570343167  0.6676792175552321  0.4806847839699344  1.0000
  H   H44       1.0  0.6358474549912286  0.7542126399689977  0.4779171505579072  1.0000
  H   H45       1.0  0.8423090261218105  0.8400174603233668  0.3033998623047864  1.0000
  H   H46       1.0  0.8315961827050485  0.8692701116143338  0.232308436044292  1.0000
  H   H47       1.0  0.8645985072077808  0.9253299944113279  0.2890095266431914  1.0000
  H   H48       1.0  0.5100588309539019  0.923059521408362  0.24504561448093654  1.0000
  H   H49       1.0  0.5198453348915989  0.9045941672760732  0.3176823381953184  1.0000
  H   H50       1.0  0.2637058739966491  0.8405880005589169  0.26225478224976945  1.0000
  H   H51       1.0  0.46114784368185713  0.38399025264400416  0.07281210747056122  1.0000
  H   H52       1.0  0.5501559819426588  0.46743071701626354  0.08012383803048811  1.0000
  H   H53       1.0  0.34508488694203976  0.43671724461264466  0.11943680340540652  1.0000
  H   H54       1.0  0.6705242445512951  0.44620818725255873  0.18008792669735396  1.0000
  H   H55       1.0  0.7882690687873506  0.39499700273902494  0.13452493199789473  1.0000
  H   H56       1.0  0.46811432577652556  0.378475794130388  0.3515661629789051  1.0000
  H   H57       1.0  0.38074912773416253  0.234767368683265  0.5303172920692846  1.0000
  H   H58       1.0  0.36596782942378786  0.32129088063837935  0.5363710523260465  1.0000
  H   H59       1.0  0.21627371985238142  0.2691912412660997  0.5783217365602199  1.0000
  H   H60       1.0  0.00023257684925682417  0.31258511237884795  0.498290965738967  1.0000
  H   H61       1.0  0.012945174753348023  0.2262195585899391  0.493643218620818  1.0000
  H   H62       1.0  0.33274295482412697  0.12855229073562668  0.1525839228616448  1.0000
  H   H63       1.0  0.7037024229237047  0.4178829522355231  0.32390699912710375  1.0000
  H   H64       1.0  0.7708919952458474  0.4549617302149684  0.2602141647217806  1.0000
  H   H65       1.0  0.615615738668687  0.49698734097917463  0.305789958154989  1.0000
  H   H66       1.0  0.41012892672814155  0.45018726832837785  0.22246414912506657  1.0000
  H   H67       1.0  0.32713402404788633  0.4176891723362316  0.2854938121562043  1.0000
  H   H68       1.0  0.20878267256693306  0.1350772585351265  0.22112085593268926  1.0000
  H   H69       1.0  0.0321768559767364  0.6945606838705274  0.028545179708579806  1.0000
  H   H70       1.0  0.7646399060307657  0.6887155367137154  0.0165310179086759  1.0000
  H   H71       1.0  0.9034924580107527  0.6162902253512286  0.025992870369840708  1.0000
  H   H72       1.0  0.807441148672183  0.629002130344162  0.9246462525539982  1.0000
  H   H73       1.0  0.07157525989513401  0.6362296878618847  0.936376730989096  1.0000
  H   H74       1.0  0.3424690855776404  0.8962993446043442  0.8204542051619158  1.0000
  H   H75       1.0  0.19429223100703297  0.8835680886780609  0.7564949226231334  1.0000
  H   H76       1.0  0.2584109626362974  0.9649143674580857  0.7800453191472061  1.0000
  H   H77       1.0  0.8994987345927896  0.9371719368816328  0.8017551178555563  1.0000
  H   H78       1.0  0.05427746404800623  0.9509220175165182  0.8623000218253482  1.0000
  H   H79       1.0  0.9841607297256443  0.621760196248907  0.7425471716498252  1.0000
  H   H80       1.0  0.7884295627597807  0.8841312465005587  0.749824914653367  1.0000
  H   H81       1.0  0.38607978067838644  0.5379220875837094  0.563854635514531  1.0000
  H   H82       1.0  0.851402795495545  0.5084340935465407  0.4284723340039279  1.0000
  H   H83       1.0  0.47069063995622423  0.9661030026322452  0.9391466504643233  1.0000
  H   H84       1.0  0.0103646482821844  0.03684829550972779  0.0737229077735861  1.0000
  C   C1        1.0  0.3526794759293778  0.5704003444214011  0.4211076048529209  1.0000
  C   C2        1.0  0.3218494342811269  0.3947146848242866  0.4476992280082257  1.0000
  C   C3        1.0  0.851448809448378  0.4170233865388581  0.5774515007312289  1.0000
  C   C4        1.0  0.8792300974332362  0.5968360859338518  0.5537633974303803  1.0000
  C   C5        1.0  0.9502057105343198  0.8453479009811743  0.9111618415902214  1.0000
  C   C6        1.0  0.8702336896024717  0.6622097887872371  0.5819138584713742  1.0000
  C   C7        1.0  0.933933636247673  0.7262025685625275  0.9120437539604751  1.0000
  C   C8        1.0  0.9245006679308716  0.785101530264079  0.9399571537401459  1.0000
  C   C9        1.0  0.9638347452780492  0.8496360465840455  0.852815907136922  1.0000
  C   C10       1.0  0.9376982793924996  0.7892805445026169  0.8215143099717893  1.0000
  C   C11       1.0  0.9446394717144809  0.7281459768672176  0.8520249911740551  1.0000
  C   C12       1.0  0.9029799915496496  0.7859165369506015  0.7604181782128379  1.0000
  C   C13       1.0  0.9260901712554527  0.7259159011064042  0.7314597478149168  1.0000
  C   C14       1.0  0.9648445730720068  0.6682001462704931  0.7637361809881259  1.0000
  C   C15       1.0  0.9633708390745283  0.668881400053138  0.8213154919557227  1.0000
  C   C16       1.0  0.8262664789036832  0.8399359294118653  0.7281524901207845  1.0000
  C   C17       1.0  0.7857873601817005  0.8366081116145523  0.6710400733862514  1.0000
  C   C18       1.0  0.8205855064030914  0.7787282613128568  0.640313471969165  1.0000
  C   C19       1.0  0.8935365119218445  0.7229668651048655  0.6706306225788907  1.0000
  C   C20       1.0  0.7740992855572414  0.7743589198117817  0.5814985920474527  1.0000
  C   C21       1.0  0.792319564567684  0.7169787893881434  0.5515094973425789  1.0000
  C   C22       1.0  0.9215323903248417  0.6655898846310606  0.6392229600790174  1.0000
  C   C23       1.0  0.7215901125876413  0.2210856299421238  0.784009108547693  1.0000
  C   C24       1.0  0.076995867979079  0.2674352026442079  0.8024329422579797  1.0000
  C   C25       1.0  0.03033124510363902  0.3167985003875203  0.7543175354601175  1.0000
  C   C26       1.0  0.8596883374260215  0.3680265315710685  0.6213555198610194  1.0000
  C   C27       1.0  0.9467475788723193  0.20309694725099092  0.7924013412538998  1.0000
  C   C28       1.0  0.6876172773361872  0.26204663324714517  0.7295722198190903  1.0000
  C   C29       1.0  0.8949720882819959  0.2827539918663575  0.7064824918805501  1.0000
  C   C30       1.0  0.9998850965068156  0.22010682761072073  0.6886299923234348  1.0000
  C   C31       1.0  0.006870078208194703  0.16886137780235796  0.7372273820356341  1.0000
  C   C32       1.0  0.87221162476267  0.3279411962510039  0.6593772653070076  1.0000
  C   C33       1.0  0.9705478131135549  0.159541231403189  0.8406444839069637  1.0000
  C   C34       1.0  0.9851563944981406  0.1232813323011754  0.8813644642902505  1.0000
  C   C35       1.0  0.5710813062710187  0.6837916074301162  0.2577168990254393  1.0000
  C   C36       1.0  0.19017352017014122  0.7054168044995633  0.2513350986771172  1.0000
  C   C37       1.0  0.24559671802327895  0.7428103401177922  0.19722148792644842  1.0000
  C   C38       1.0  0.4894319043767509  0.872574741099861  0.125480661570883  1.0000
  C   C39       1.0  0.386356694579014  0.7024277258858191  0.2909615692039367  1.0000
  C   C40       1.0  0.6198227259301915  0.7381446127549367  0.21443379890603614  1.0000
  C   C41       1.0  0.44316577291944986  0.7858693758846512  0.20859925202474736  1.0000
  C   C42       1.0  0.41984520708221135  0.823387631871718  0.26530754128828  1.0000
  C   C43       1.0  0.43546123149850746  0.7729677112951664  0.3140030174567556  1.0000
  C   C44       1.0  0.4710767370650899  0.8322184945400934  0.16294614163214052  1.0000
  C   C45       1.0  0.36233447782764466  0.6567632810101856  0.3372309677263274  1.0000
  C   C46       1.0  0.349748734843402  0.617543648405622  0.3757797036605481  1.0000
  C   C47       1.0  0.5420716541630881  0.1630918784836126  0.09380901563037723  1.0000
  C   C48       1.0  0.29122821549726297  0.3340647378739163  0.41301192260753794  1.0000
  C   C49       1.0  0.6818214741738158  0.2735659823330322  0.10605894022265971  1.0000
  C   C50       1.0  0.6751479835372293  0.21477992217057104  0.0773522288801445  1.0000
  C   C51       1.0  0.43095641302056714  0.1700116978588397  0.1410190603859434  1.0000
  C   C52       1.0  0.4495487530579894  0.22762528637984047  0.17417571467775161  1.0000
  C   C53       1.0  0.5688251592285808  0.28212090076679885  0.1544885269221794  1.0000
  C   C54       1.0  0.35721041511541063  0.23243886656806007  0.2277005240943097  1.0000
  C   C55       1.0  0.38723902052713294  0.2906904222880087  0.2607219600255988  1.0000
  C   C56       1.0  0.4742779929303466  0.3490947558972337  0.2341526625745658  1.0000
  C   C57       1.0  0.5636324332582062  0.3442708240249743  0.18274274700034007  1.0000
  C   C58       1.0  0.23848504232942958  0.17804573564288256  0.2478318182426307  1.0000
  C   C59       1.0  0.15954635344391477  0.1781919154510589  0.29969842673259717  1.0000
  C   C60       1.0  0.202530179415497  0.23202271502941574  0.3368702920182046  1.0000
  C   C61       1.0  0.31975276815241216  0.2880752900535484  0.31825330100070204  1.0000
  C   C62       1.0  0.13569248025250857  0.22880197417527628  0.39251401252292345  1.0000
  C   C63       1.0  0.1727251211706147  0.2789308009606514  0.43124650594503317  1.0000
  C   C64       1.0  0.36778150333274334  0.3366729348208111  0.3597673432598611  1.0000
  C   C65       1.0  0.5264310800605471  0.10064890472347093  0.06150998008455131  1.0000
  C   C66       1.0  0.48923101056825385  0.9224756601733757  0.08210493616530101  1.0000
  C   C67       1.0  0.963045000816429  0.9049439573672012  0.9479870160812641  1.0000
  C   C68       1.0  0.9963231555128826  0.077843922845652  0.9281453299854334  1.0000
  C   C69       1.0  0.21231550409278552  0.1367777471400089  0.7435415600869181  1.0000
  C   C70       1.0  0.26153173195075397  0.0965720448261962  0.6922739678116302  1.0000
  C   C71       1.0  0.07109394966674641  0.6399808283220949  0.23974476242020873  1.0000
  C   C72       1.0  0.1812726821467265  0.5833533602882427  0.2146879721927988  1.0000
  C   C73       1.0  0.7328042719209263  0.7129533650240845  0.4892407626260962  1.0000
  C   C74       1.0  0.914103810104535  0.7141272075921208  0.4514591104520492  1.0000
  C   C75       1.0  0.5564209448011751  0.8855449288261854  0.2762056576622598  1.0000
  C   C76       1.0  0.7859791417593838  0.8791004470811572  0.27514695306997794  1.0000
  C   C77       1.0  0.6409561714527284  0.40450194474700407  0.1515045704789699  1.0000
  C   C78       1.0  0.4910949425166605  0.42436011035862714  0.1030684849233623  1.0000
  C   C79       1.0  0.10236894810206822  0.2727577293626879  0.4905192565366222  1.0000
  C   C80       1.0  0.2766660692384376  0.274595011439537  0.5362808863137403  1.0000
  C   C81       1.0  0.4544825843426493  0.4177194258601844  0.2578654731621839  1.0000
  C   C82       1.0  0.6463071461580794  0.4484615876751262  0.2887222695031611  1.0000
  C   C83       1.0  0.9306040638582117  0.6613458319055565  0.943618741498952  1.0000
  C   C84       1.0  0.9064340583885339  0.6657273919399884  0.0071526487243715985  1.0000
  C   C85       1.0  0.023800869556332337  0.916025005877451  0.8276096919195483  1.0000
  C   C86       1.0  0.21531677989759154  0.9149381328160048  0.7940017691418576  1.0000
  O   O1        1.0  0.4959479886615128  0.4241254901121465  0.4508316108323741  1.0000
  O   O2        1.0  0.18327085391501194  0.5467983544757331  0.4366776420782728  1.0000
  O   O3        1.0  0.05016851875974031  0.5771668463863759  0.5403365628019259  1.0000
  O   O4        1.0  0.16487087611034917  0.41496928706791886  0.4695907411871829  1.0000
  O   O5        1.0  0.018682100014864013  0.4463760277942086  0.5666819524084374  1.0000
  O   O6        1.0  0.5286075231613409  0.5563084596607196  0.4412749411484357  1.0000
  O   O7        1.0  0.36625398524722635  0.5039610855392807  0.5352891642745661  1.0000
  O   O8        1.0  0.6785421418931035  0.42751896370521786  0.5535804310777976  1.0000
  O   O9        1.0  0.709808753138759  0.5651257866811861  0.5465267335016436  1.0000
  O   O10       1.0  0.8511505110313776  0.49003644546896674  0.46623946930478877  1.0000
  O   O11       1.0  0.315027491665127  0.9345897592203086  0.05983411649953041  1.0000
  O   O12       1.0  0.6873639986367265  0.0825876718620506  0.04005083197151291  1.0000
  O   O13       1.0  0.829649446817072  0.0490394326965031  0.9402654270262757  1.0000
  O   O14       1.0  0.6583776332738366  0.9503553843206943  0.0709231068603344  1.0000
  O   O15       1.0  0.8002275438304878  0.9202096207406214  0.9698440213991122  1.0000
  O   O16       1.0  0.35550161716695067  0.06902550434276829  0.0577928359322257  1.0000
  O   O17       1.0  0.4852131003833691  0.9949164108676527  0.9716407662906549  1.0000
  O   O18       1.0  0.13424256672173837  0.935304818218597  0.955850399039825  1.0000
  O   O19       1.0  0.1708032049183288  0.0696990882812187  0.952124638813686  1.0000
  O   O20       1.0  0.0004705928845254012  0.0085002476726999  0.040934229270462204  1.0000
