data_image0
_chemical_formula_structural       Y2H12C10O14
_chemical_formula_sum              "Y2 H12 C10 O14"
_cell_length_a       6.5953087377186215
_cell_length_b       7.747304565588681
_cell_length_c       7.953529469104289
_cell_angle_alpha    100.46779024704634
_cell_angle_beta     100.81221589676524
_cell_angle_gamma    102.93389393776249

_space_group_name_H-M_alt    "P 1"
_space_group_IT_number       1

loop_
  _space_group_symop_operation_xyz
  'x, y, z'

loop_
  _atom_site_type_symbol
  _atom_site_label
  _atom_site_symmetry_multiplicity
  _atom_site_fract_x
  _atom_site_fract_y
  _atom_site_fract_z
  _atom_site_occupancy
  Y   Y1        1.0  0.5484801999593429  0.6288364775357351  0.8064431507027692  1.0000
  Y   Y2        1.0  0.4515223693120306  0.37116764732927265  0.19355824940485175  1.0000
  H   H1        1.0  0.908014336890993  0.21884089037209256  0.8667748454591049  1.0000
  H   H2        1.0  0.09198799226177104  0.7811523357852721  0.13322701520091576  1.0000
  H   H3        1.0  0.03352820519953071  0.0708067243202848  0.7641146799198495  1.0000
  H   H4        1.0  0.9664763098022462  0.9291934155942625  0.23588001215529886  1.0000
  H   H5        1.0  0.8547964365761802  0.13714838615431543  0.4642012402279859  1.0000
  H   H6        1.0  0.14520761309456998  0.8628503472069725  0.5357968884661942  1.0000
  H   H7        1.0  0.692321174565663  0.0047794766032538015  0.5711926067117331  1.0000
  H   H8        1.0  0.3076832700330457  0.995220603806736  0.4288070926185484  1.0000
  H   H9        1.0  0.8718402221716561  0.6619501269462518  0.5916415675842045  1.0000
  H   H10       1.0  0.12815765447433594  0.33804856840443887  0.4083542942893884  1.0000
  H   H11       1.0  0.02566974584321714  0.7333587814011083  0.7866825502028901  1.0000
  H   H12       1.0  0.9743323788439613  0.26663860656592675  0.2133125022897033  1.0000
  C   C1        1.0  0.15952013808372106  0.34639004485146063  0.7663987082853438  1.0000
  C   C2        1.0  0.8404827412578372  0.6536100074607063  0.2336019891070151  1.0000
  C   C3        1.0  0.9714772637431467  0.18907140321873328  0.7499245505448043  1.0000
  C   C4        1.0  0.028523655413309337  0.8109272739469091  0.2500755742735379  1.0000
  C   C5        1.0  0.7939838542354852  0.1423955240217509  0.5837953404338876  1.0000
  C   C6        1.0  0.20601945523556975  0.8576059050913971  0.4162044239670095  1.0000
  C   C7        1.0  0.6492860484527726  0.26920577953654157  0.5847189354797492  1.0000
  C   C8        1.0  0.3507171730144521  0.7307955751959128  0.41528708799006603  1.0000
  C   C9        1.0  0.3772019083390957  0.9623043603833563  0.9796183253828942  1.0000
  C   C10       1.0  0.6227878874478637  0.0376779356735781  0.020375706747010763  1.0000
  O   O1        1.0  0.2990439827744709  0.4086170426818966  0.9155623211988766  1.0000
  O   O2        1.0  0.7009622843492807  0.5913789486446674  0.0844394327954134  1.0000
  O   O3        1.0  0.19110745314987557  0.42093113250809466  0.6404940145745499  1.0000
  O   O4        1.0  0.8088957859181181  0.5790702371004957  0.3595107570814804  1.0000
  O   O5        1.0  0.6384522476086902  0.3589038363500876  0.7310535445281444  1.0000
  O   O6        1.0  0.3615581831499527  0.6411004587563198  0.2689403616415049  1.0000
  O   O7        1.0  0.5385910674859035  0.2759936667756264  0.43737599066661653  1.0000
  O   O8        1.0  0.4613996558170471  0.7239967876086766  0.5626197006455129  1.0000
  O   O9        1.0  0.3002347319003817  0.7970206143597025  0.8935486351373567  1.0000
  O   O10       1.0  0.6997617636587067  0.2029942521932426  0.10646005210755054  1.0000
  O   O11       1.0  0.2732385759631129  0.0693472504965698  0.034311281270412095  1.0000
  O   O12       1.0  0.7267449001523121  0.9306606097473987  0.965702798297464  1.0000
  O   O13       1.0  0.8763630300958739  0.7097039809289643  0.7171959262139822  1.0000
  O   O14       1.0  0.12363498421019158  0.29030017865169083  0.28279845356962596  1.0000
