data_image0
_chemical_formula_structural       Dy2NiH14C12N2O18
_chemical_formula_sum              "Dy2 Ni1 H14 C12 N2 O18"
_cell_length_a       6.980691574418621
_cell_length_b       8.203096618042752
_cell_length_c       9.174005088476799
_cell_angle_alpha    95.14206158774341
_cell_angle_beta     90.952870489971
_cell_angle_gamma    83.99825758479575

_space_group_name_H-M_alt    "P 1"
_space_group_IT_number       1

loop_
  _space_group_symop_operation_xyz
  'x, y, z'

loop_
  _atom_site_type_symbol
  _atom_site_label
  _atom_site_symmetry_multiplicity
  _atom_site_fract_x
  _atom_site_fract_y
  _atom_site_fract_z
  _atom_site_occupancy
  Dy  Dy1       1.0  0.2986482606099017  0.38412161686038365  0.7533895668793634  1.0000
  Dy  Dy2       1.0  0.7013418254736975  0.6158797585203645  0.246612969866888  1.0000
  Ni  Ni1       1.0  5.042140288133348e-07  0.9999939245131272  3.681917668512224e-06  1.0000
  H   H1        1.0  0.009441128999760915  0.8914258929751141  0.5803860185001711  1.0000
  H   H2        1.0  0.990557656020101  0.10854550397422  0.41961267307937794  1.0000
  H   H3        1.0  0.19996588525893336  0.8435295085872029  0.7028270388540322  1.0000
  H   H4        1.0  0.8000395385939072  0.156434362883374  0.2971980030589663  1.0000
  H   H5        1.0  0.9330239111099274  0.7795216151338238  0.8076503760233679  1.0000
  H   H6        1.0  0.0669398162023711  0.22047838937089634  0.19235911068884096  1.0000
  H   H7        1.0  0.6325574292822579  0.8750978993661177  0.7643814344576186  1.0000
  H   H8        1.0  0.3674220628007062  0.12494014243743125  0.23560168042106264  1.0000
  H   H9        1.0  0.719868817530262  0.021595045689949206  0.6603858225450736  1.0000
  H   H10       1.0  0.28016977953475924  0.9784427192340744  0.3396250284577463  1.0000
  H   H11       1.0  0.5682286435261403  0.6148672957451423  0.8772985697607893  1.0000
  H   H12       1.0  0.43174753332563404  0.38513196230737634  0.1227058765948428  1.0000
  H   H13       1.0  0.36146564790368535  0.7143345338407272  0.8924544039777589  1.0000
  H   H14       1.0  0.638517670161498  0.28566888380745337  0.1075539303546478  1.0000
  C   C1        1.0  0.06898045143473305  0.927251982808613  0.6888104505473012  1.0000
  C   C2        1.0  0.9310431211054038  0.07272202477527401  0.3111813318787142  1.0000
  C   C3        1.0  0.1253494777160711  0.10064255269380601  0.6955178275707895  1.0000
  C   C4        1.0  0.8746730966339413  0.8993442567798694  0.30447797854045433  1.0000
  C   C5        1.0  0.7295071982055318  0.9730537040430249  0.7683046382592735  1.0000
  C   C6        1.0  0.2705009213147136  0.026964523739458502  0.23169637016216885  1.0000
  C   C7        1.0  0.6559503319108374  0.10644517171104438  0.8828862104110157  1.0000
  C   C8        1.0  0.34406504038149416  0.8935731121281519  0.11711551442759571  1.0000
  C   C9        1.0  0.06698464842352789  0.46189240267253956  0.0584189374903872  1.0000
  C   C10       1.0  0.9329803728293271  0.5380846756143712  0.9415659197045019  1.0000
  C   C11       1.0  0.4035755687163347  0.5492508606262092  0.4783393484382615  1.0000
  C   C12       1.0  0.5964198785536964  0.45075562191758684  0.5216649343704702  1.0000
  N   N1        1.0  0.9293843656970607  0.9053500291468736  0.8034626587282504  1.0000
  N   N2        1.0  0.0706172693597793  0.09464709863275542  0.1965361065444853  1.0000
  O   O1        1.0  0.07124229831768501  0.20179113188894598  0.8045609998173974  1.0000
  O   O2        1.0  0.9287633945554319  0.7981778194847207  0.195419780013026  1.0000
  O   O3        1.0  0.23181743971082366  0.1408890269498571  0.5958934672631031  1.0000
  O   O4        1.0  0.7682296475145094  0.8591184673516281  0.40411135584629687  1.0000
  O   O5        1.0  0.49945345831042  0.1925967806884401  0.8669966509449553  1.0000
  O   O6        1.0  0.5005724047339727  0.8074242938630223  0.132998914632509  1.0000
  O   O7        1.0  0.7587541971847075  0.12476788558685571  0.0011646528466898016  1.0000
  O   O8        1.0  0.2412621589563527  0.8752460956315887  0.9988415741526212  1.0000
  O   O9        1.0  0.23956799891028166  0.42025566533755654  0.01969374024088211  1.0000
  O   O10       1.0  0.7604099033687534  0.579733450379166  0.9802900252934209  1.0000
  O   O11       1.0  0.994329092086353  0.4437670707801757  0.18091804517708002  1.0000
  O   O12       1.0  0.0056595930032016725  0.5562173240702749  0.8190675148665534  1.0000
  O   O13       1.0  0.25492870267902384  0.5298342231223216  0.5496519517530061  1.0000
  O   O14       1.0  0.7450687544994208  0.4701795539104552  0.4503519760163358  1.0000
  O   O15       1.0  0.41154377508254925  0.6414371220193189  0.375575536798344  1.0000
  O   O16       1.0  0.5884621786136819  0.3585835322939772  0.6244343183316092  1.0000
  O   O17       1.0  0.43901463176834443  0.6288882376938787  0.8281987624272134  1.0000
  O   O18       1.0  0.5609585069693566  0.3711136459712562  0.1718068569166107  1.0000
