data_image0
_chemical_formula_structural       Zn6H60C48N24
_chemical_formula_sum              "Zn6 H60 C48 N24"
_cell_length_a       14.723739983199012
_cell_length_b       14.72340584926606
_cell_length_c       14.72352098212047
_cell_angle_alpha    109.47105833960153
_cell_angle_beta     109.4712343761763
_cell_angle_gamma    109.47088173352755

_space_group_name_H-M_alt    "P 1"
_space_group_IT_number       1

loop_
  _space_group_symop_operation_xyz
  'x, y, z'

loop_
  _atom_site_type_symbol
  _atom_site_label
  _atom_site_symmetry_multiplicity
  _atom_site_fract_x
  _atom_site_fract_y
  _atom_site_fract_z
  _atom_site_occupancy
  Zn  Zn1       1.0  0.7500079842428918  0.49999943133604313  0.24999864671087846  1.0000
  Zn  Zn2       1.0  0.7500030857157751  0.24999662771667613  0.500000342643105  1.0000
  Zn  Zn3       1.0  0.4999990153836079  0.2499912500169399  0.7499962189667926  1.0000
  Zn  Zn4       1.0  0.4999988382988647  0.7499960331754849  0.24999751327528974  1.0000
  Zn  Zn5       1.0  0.24999847152889734  0.49999395851087064  0.7499966768624448  1.0000
  Zn  Zn6       1.0  0.24999962773792817  0.7499963471081158  0.49999506337749733  1.0000
  H   H1        1.0  0.8515178721221234  0.5906041085945902  0.11562540184438327  1.0000
  H   H2        1.0  0.7390911751314205  0.14848538291798247  0.26411424066638745  1.0000
  H   H3        1.0  0.4093981426634983  0.2609117039846325  0.5250234134092437  1.0000
  H   H4        1.0  0.7390935035353153  0.2641148306048746  0.14848430011916497  1.0000
  H   H5        1.0  0.40939429260789234  0.5250169540559994  0.26090786838552305  1.0000
  H   H6        1.0  0.8515162358723528  0.1156264998747432  0.590605256590628  1.0000
  H   H7        1.0  0.5250320383819798  0.40939664504392675  0.2609051874038785  1.0000
  H   H8        1.0  0.7358786861840229  0.8843680307413421  0.4749712690698973  1.0000
  H   H9        1.0  0.4749695111486289  0.7358816037160238  0.8843679839233333  1.0000
  H   H10       1.0  0.11562593316421714  0.8515170527546303  0.5905994653753054  1.0000
  H   H11       1.0  0.26411329767164904  0.7390834080489981  0.14848277498277465  1.0000
  H   H12       1.0  0.8843707000389213  0.7358909366682908  0.47497446316037906  1.0000
  H   H13       1.0  0.7358807831213949  0.47497244904932484  0.8843684420803015  1.0000
  H   H14       1.0  0.4749721046614965  0.88436534630673  0.7358799297905139  1.0000
  H   H15       1.0  0.8843713025112052  0.4749775050463114  0.7358872252188037  1.0000
  H   H16       1.0  0.5906020491866502  0.8515145350784722  0.11562618559209899  1.0000
  H   H17       1.0  0.14848137551852858  0.7390807578081536  0.2641068683127943  1.0000
  H   H18       1.0  0.26090414270524315  0.4093901392547679  0.5250249395220052  1.0000
  H   H19       1.0  0.2609042578034604  0.5250182054553605  0.4093924811842273  1.0000
  H   H20       1.0  0.11562910049585166  0.5906036905125447  0.8515157057322894  1.0000
  H   H21       1.0  0.2641198090027785  0.1484868277067122  0.7390879182440528  1.0000
  H   H22       1.0  0.5250302594075293  0.2609087260089638  0.4093966033208717  1.0000
  H   H23       1.0  0.1484847516625789  0.2641073296845064  0.7390877176464343  1.0000
  H   H24       1.0  0.5906054549407854  0.11562377515090096  0.8515161197239393  1.0000
  H   H25       1.0  0.4699557891738238  0.30422428778808813  2.3026915130989123e-06  1.0000
  H   H26       1.0  0.8342754418470478  0.5300474674103555  0.5300496429162964  1.0000
  H   H27       1.0  0.6957796384947841  0.16572843372043855  0.6957826592385032  1.0000
  H   H28       1.0  0.6957741499083171  0.6957769982261438  0.16572558532606532  1.0000
  H   H29       1.0  0.4699552418459376  5.373333266150119e-06  0.30422712266599916  1.0000
  H   H30       1.0  0.30422520445120677  0.4699512151695728  1.5170835114393823e-06  1.0000
  H   H31       1.0  0.9999979158446589  0.4699519410703628  0.30422439081717567  1.0000
  H   H32       1.0  0.5300451815015848  0.8342716464453944  0.5300506679555996  1.0000
  H   H33       1.0  0.30422844145811456  3.575804569700514e-06  0.4699527214524863  1.0000
  H   H34       1.0  4.7323799613349716e-07  0.3042192331945656  0.46994775029834557  1.0000
  H   H35       1.0  0.16572704857836837  0.6957785653133756  0.6957745439795033  1.0000
  H   H36       1.0  0.5300438211889114  0.5300485916835952  0.8342722909300022  1.0000
  H   H37       1.0  0.48900848019773235  0.1959023822382305  0.926082342601994  1.0000
  H   H38       1.0  0.7068972623182502  0.5109970136691471  0.4370761908451827  1.0000
  H   H39       1.0  0.8041001271462349  0.2931060147100907  0.7301816121003384  1.0000
  H   H40       1.0  0.7068969994923292  0.4370726883311631  0.5109975678540266  1.0000
  H   H41       1.0  0.8040952866896375  0.7301780568698888  0.29310097386012074  1.0000
  H   H42       1.0  0.48900637210390846  0.9260855780099038  0.19590469697683255  1.0000
  H   H43       1.0  0.7301738255408027  0.8041023061182528  0.29310234598368395  1.0000
  H   H44       1.0  0.5629279807351821  0.07392822675603833  0.2698275468380515  1.0000
  H   H45       1.0  0.2698282816918507  0.5629279737674295  0.07392665710946761  1.0000
  H   H46       1.0  0.9260795986375356  0.4890036566390846  0.19590323484313638  1.0000
  H   H47       1.0  0.43707063595279994  0.7068994715407513  0.510995320223465  1.0000
  H   H48       1.0  0.07392226368746431  0.5629238470221695  0.26982362844952235  1.0000
  H   H49       1.0  0.5629321841985515  0.2698271615365328  0.0739275183469559  1.0000
  H   H50       1.0  0.2698298467579362  0.07392888180230262  0.5629327212476553  1.0000
  H   H51       1.0  0.07392192397057319  0.2698234043652903  0.562927907944463  1.0000
  H   H52       1.0  0.19590201794866838  0.4890047938598839  0.9260824419154757  1.0000
  H   H53       1.0  0.5109942044191128  0.7068988966351597  0.4370774901700474  1.0000
  H   H54       1.0  0.2931035270630815  0.8041019546243576  0.7301762137273188  1.0000
  H   H55       1.0  0.29310254309255845  0.7301810672868709  0.8040989491245442  1.0000
  H   H56       1.0  0.9260745698092521  0.19589519752597753  0.48900188196402883  1.0000
  H   H57       1.0  0.4370727635979249  0.5109977177696193  0.7068999864030163  1.0000
  H   H58       1.0  0.7301773544042616  0.29310738533472847  0.8041060009502915  1.0000
  H   H59       1.0  0.5109951020773166  0.4370785050064682  0.7069008507653933  1.0000
  H   H60       1.0  0.1959039229463853  0.926081917852116  0.48900627657348394  1.0000
  C   C1        1.0  0.6241615082635119  0.36069017840755163  0.9999944681619084  1.0000
  C   C2        1.0  0.7365246890933507  0.37583663503208686  0.37583596325571034  1.0000
  C   C3        1.0  0.6393116488240835  0.2634682065210611  0.6393078406841967  1.0000
  C   C4        1.0  0.6393103597754929  0.6393068365967807  0.2634683161756758  1.0000
  C   C5        1.0  0.6241645216843423  3.4036131565153312e-06  0.3606941050783306  1.0000
  C   C6        1.0  0.36069527184492517  0.624160918079916  3.0929666864832373e-06  1.0000
  C   C7        1.0  0.9999967192487134  0.6241628689556079  0.36069169361426406  1.0000
  C   C8        1.0  0.3758359727712416  0.736534600481818  0.3758406547025005  1.0000
  C   C9        1.0  0.3606929450946052  0.999998532578786  0.6241603204406161  1.0000
  C   C10       1.0  5.46135050392028e-06  0.3606961063050276  0.6241617468454591  1.0000
  C   C11       1.0  0.2634713198279853  0.6393097204814567  0.6393096410910603  1.0000
  C   C12       1.0  0.3758367152659331  0.3758372585854913  0.7365294901499481  1.0000
  C   C13       1.0  0.774372009637638  0.5120869549994467  0.05718656049600693  1.0000
  C   C14       1.0  0.7377149130718621  0.22562722150026085  0.2828117435485283  1.0000
  C   C15       1.0  0.48791423688063407  0.2622835163949943  0.5451035810510517  1.0000
  C   C16       1.0  0.7377147768333215  0.28281385960939776  0.22562614956677868  1.0000
  C   C17       1.0  0.48791161536137656  0.5451003882625969  0.2622795578125833  1.0000
  C   C18       1.0  0.7743729981479106  0.05718656851446013  0.5120868868095059  1.0000
  C   C19       1.0  0.545097206036793  0.487914674831792  0.26228711141367006  1.0000
  C   C20       1.0  0.7171858931024245  0.9428149398001011  0.4549022809962297  1.0000
  C   C21       1.0  0.45489667216359925  0.7171835465286592  0.9428106516416083  1.0000
  C   C22       1.0  0.05718681631497443  0.7743756187325987  0.5120870970765382  1.0000
  C   C23       1.0  0.28281253047170196  0.7377114056178159  0.22562416337206073  1.0000
  C   C24       1.0  0.942815694979707  0.7171924095349594  0.4549046181510621  1.0000
  C   C25       1.0  0.7171906606938023  0.45490292726496045  0.9428160426493122  1.0000
  C   C26       1.0  0.4549022200943326  0.9428151588787587  0.7171913360425181  1.0000
  C   C27       1.0  0.9428096631857696  0.4548981574435442  0.717180362630387  1.0000
  C   C28       1.0  0.5120872148730272  0.774372608936254  0.05718324106741347  1.0000
  C   C29       1.0  0.22562581541625087  0.737714211282345  0.2828099220250737  1.0000
  C   C30       1.0  0.2622832277197418  0.4879114940155276  0.5450990415633115  1.0000
  C   C31       1.0  0.2622808138297684  0.545095854460115  0.4879118903051563  1.0000
  C   C32       1.0  0.057178475135245155  0.5120865436982953  0.774372199545745  1.0000
  C   C33       1.0  0.2828108090470494  0.22562403032348757  0.7377092055881675  1.0000
  C   C34       1.0  0.5450964825795878  0.26228622331382206  0.4879147419921281  1.0000
  C   C35       1.0  0.22562843144973496  0.2828137886600715  0.7377168071228226  1.0000
  C   C36       1.0  0.5120873699939991  0.05718483244415732  0.7743696644006945  1.0000
  C   C37       1.0  0.5318958859577378  0.2780897695035307  4.435807539990496e-06  1.0000
  C   C38       1.0  0.7462015812358586  0.4681133750982837  0.46811453141396003  1.0000
  C   C39       1.0  0.7219163868622686  0.2538050786223421  0.7219187707394283  1.0000
  C   C40       1.0  0.7219119329860532  0.7219156482731818  0.2538017487311209  1.0000
  C   C41       1.0  0.5318941319386284  5.804313502681679e-06  0.27809185306114875  1.0000
  C   C42       1.0  0.27808729898001866  0.5318898345937768  1.6363431072562324e-06  1.0000
  C   C43       1.0  8.652998033811419e-07  0.5318919371539225  0.2780885675295154  1.0000
  C   C44       1.0  0.4681059739718521  0.7461976653147319  0.46810841306476925  1.0000
  C   C45       1.0  0.27809027669037784  3.7381924755145653e-06  0.5318905737443629  1.0000
  C   C46       1.0  0.9999987209406738  0.27808319034054557  0.5318873637265895  1.0000
  C   C47       1.0  0.25380059447928  0.7219154096517856  0.7219125406767193  1.0000
  C   C48       1.0  0.46810542723634535  0.46810825276931917  0.7461980326512858  1.0000
  N   N1        1.0  0.7158115068802431  0.451784138039116  0.09286501855753937  1.0000
  N   N2        1.0  0.7359755307046357  0.28418706253040676  0.37705372300386847  1.0000
  N   N3        1.0  0.5482186798900057  0.2640240247728867  0.6410844394034426  1.0000
  N   N4        1.0  0.7359788682829135  0.377057768803894  0.2841913411671798  1.0000
  N   N5        1.0  0.5482199537032386  0.6410846831895043  0.26402238048893184  1.0000
  N   N6        1.0  0.7158101206856388  0.09286645118565666  0.4517865439011431  1.0000
  N   N7        1.0  0.6410763115946807  0.5482080789076846  0.2640205782700279  1.0000
  N   N8        1.0  0.6229458902387605  0.907133647249232  0.35892195342756866  1.0000
  N   N9        1.0  0.35891742850618147  0.6229413953308055  0.9071336871683542  1.0000
  N   N10       1.0  0.09286372777557245  0.7158106425050477  0.45178392277800583  1.0000
  N   N11       1.0  0.37705478731670156  0.7359759521608494  0.2841906554557598  1.0000
  N   N12       1.0  0.9071343735560828  0.6229484722749842  0.35892130652062093  1.0000
  N   N13       1.0  0.6229465212020597  0.35892300000102745  0.9071334542774566  1.0000
  N   N14       1.0  0.35892382599548245  0.9071339859546725  0.6229453230960545  1.0000
  N   N15       1.0  0.907136145152087  0.35892016778313957  0.6229395725134668  1.0000
  N   N16       1.0  0.45178766592397324  0.7158111124657368  0.09286568338364998  1.0000
  N   N17       1.0  0.28418480378248717  0.7359723938687849  0.37705217115157563  1.0000
  N   N18       1.0  0.2640210836364786  0.5482125642158024  0.641078610028643  1.0000
  N   N19       1.0  0.26402005972597214  0.6410772453193091  0.5482103144887421  1.0000
  N   N20       1.0  0.09286465899261724  0.4517914795741617  0.7158142634945434  1.0000
  N   N21       1.0  0.37705382901616236  0.28418882903898174  0.7359756396338993  1.0000
  N   N22       1.0  0.6410766124743715  0.2640230185259326  0.5482110139582588  1.0000
  N   N23       1.0  0.2841888698122119  0.3770551682907096  0.7359759329136112  1.0000
  N   N24       1.0  0.45178630534462605  0.09286670244255628  0.7158097146631944  1.0000
