data_image0
_chemical_formula_structural       CoH10C8S2N4O6
_chemical_formula_sum              "Co1 H10 C8 S2 N4 O6"
_cell_length_a       6.928132594465796
_cell_length_b       6.851034590515138
_cell_length_c       7.343479201404285
_cell_angle_alpha    86.50337023054053
_cell_angle_beta     106.32091601065366
_cell_angle_gamma    116.02132683187666

_space_group_name_H-M_alt    "P 1"
_space_group_IT_number       1

loop_
  _space_group_symop_operation_xyz
  'x, y, z'

loop_
  _atom_site_type_symbol
  _atom_site_label
  _atom_site_symmetry_multiplicity
  _atom_site_fract_x
  _atom_site_fract_y
  _atom_site_fract_z
  _atom_site_occupancy
  Co  Co1       1.0  0.9999984891323878  0.999999983012735  0.9999996430150019  1.0000
  H   H1        1.0  0.924797049264399  0.029773804670952586  0.6000785737773314  1.0000
  H   H2        1.0  0.07520839504808657  0.9702308368648644  0.3999237531763454  1.0000
  H   H3        1.0  0.5726989716905069  0.38165598565732484  0.6076332436340053  1.0000
  H   H4        1.0  0.4273019592892737  0.6183454741810549  0.3923653416755286  1.0000
  H   H5        1.0  0.8082261832944725  0.40077066981830706  0.13203693774907066  1.0000
  H   H6        1.0  0.19176802817121094  0.599228987096879  0.8679628144353371  1.0000
  H   H7        1.0  0.6948801035208023  0.6746230002837876  0.12167434258281425  1.0000
  H   H8        1.0  0.30512150350262607  0.32538019452872646  0.8783216479118606  1.0000
  H   H9        1.0  0.646359024206028  0.6393312448930217  0.8952820395330433  1.0000
  H   H10       1.0  0.35363578956665265  0.36066723107756365  0.1047069689447753  1.0000
  C   C1        1.0  0.7528872784606265  0.19995887137362436  0.6287187927347873  1.0000
  C   C2        1.0  0.24712185566760064  0.8000413850480184  0.37127357289443097  1.0000
  C   C3        1.0  0.6722722339541747  0.40325727528156813  0.3614759713988818  1.0000
  C   C4        1.0  0.32773320239517995  0.5967412121914178  0.6385182750752065  1.0000
  C   C5        1.0  0.7921713170820655  0.34421070836017253  0.27050338206866803  1.0000
  C   C6        1.0  0.20781685887630633  0.6557950346687917  0.7295030226553506  1.0000
  C   C7        1.0  0.8840013264170425  0.2034758351266461  0.35407079549587916  1.0000
  C   C8        1.0  0.11599667185273427  0.7965222988888812  0.645928513806453  1.0000
  S   S1        1.0  0.7358337806103921  0.11866104368640147  0.8489880667187109  1.0000
  S   S2        1.0  0.2641686884702636  0.8813434564664318  0.1510162853662678  1.0000
  N   N1        1.0  0.8588733135014411  0.13813079320468796  0.5327418458283688  1.0000
  N   N2        1.0  0.14112610661073433  0.8618706496464269  0.4672563824961671  1.0000
  N   N3        1.0  0.6565964925874185  0.32858652201021954  0.5395980731924368  1.0000
  N   N4        1.0  0.34340083362027224  0.671412954062596  0.4604078711645484  1.0000
  O   O1        1.0  0.571893285096998  0.5234620236307849  0.2904960078613001  1.0000
  O   O2        1.0  0.42810611574504526  0.4765425499559796  0.7095048911523917  1.0000
  O   O3        1.0  0.9900271512425366  0.13041005145381487  0.2831796549324324  1.0000
  O   O4        1.0  0.009971118084472135  0.8695812840481735  0.7168280084980408  1.0000
  O   O5        1.0  0.7653431566756979  0.7140923586236595  0.014970591040253105  1.0000
  O   O6        1.0  0.2346571640339548  0.2859041280964973  0.9850306574962885  1.0000
