data_image0
_chemical_formula_structural       Zn4H80C88N16O16
_chemical_formula_sum              "Zn4 H80 C88 N16 O16"
_cell_length_a       10.291414699354137
_cell_length_b       16.29676349786955
_cell_length_c       20.067692537412125
_cell_angle_alpha    89.9995052221397
_cell_angle_beta     89.99948138111029
_cell_angle_gamma    92.4190369132083

_space_group_name_H-M_alt    "P 1"
_space_group_IT_number       1

loop_
  _space_group_symop_operation_xyz
  'x, y, z'

loop_
  _atom_site_type_symbol
  _atom_site_label
  _atom_site_symmetry_multiplicity
  _atom_site_fract_x
  _atom_site_fract_y
  _atom_site_fract_z
  _atom_site_occupancy
  Zn  Zn1       1.0  0.3583618436029923  0.9589800417382576  0.7724608309116192  1.0000
  Zn  Zn2       1.0  0.1416516978854006  0.5410177942605612  0.2724581157413368  1.0000
  Zn  Zn3       1.0  0.6416396054189873  0.04101775165926109  0.22753922136573826  1.0000
  Zn  Zn4       1.0  0.8583558682464769  0.4589849325964935  0.7275429331314314  1.0000
  H   H1        1.0  0.26399449910597633  0.8911528352428276  0.9018812479577534  1.0000
  H   H2        1.0  0.2360138618757404  0.608845379614344  0.40187463227084663  1.0000
  H   H3        1.0  0.7360046489446007  0.1088388098550723  0.0981178077195111  1.0000
  H   H4        1.0  0.7639811410969842  0.3911585317839865  0.5981234267467244  1.0000
  H   H5        1.0  0.3582935913905559  0.8443637634421748  0.0061633611848819  1.0000
  H   H6        1.0  0.14171712710906798  0.655638264743203  0.5061577304603873  1.0000
  H   H7        1.0  0.6417036128578673  0.1556278749105289  0.9938371894371231  1.0000
  H   H8        1.0  0.8582816562738104  0.34436381765260654  0.4938413251815064  1.0000
  H   H9        1.0  0.7236523052253363  0.9646348381009061  0.9431078804210813  1.0000
  H   H10       1.0  0.7763528689356605  0.5353710942021479  0.443108064788106  1.0000
  H   H11       1.0  0.27634064677391734  0.03536722407331181  0.0568931684880525  1.0000
  H   H12       1.0  0.2236437563389515  0.4646272965130152  0.5568914891850199  1.0000
  H   H13       1.0  0.6089567562174453  0.008117824736210399  0.8418372427815299  1.0000
  H   H14       1.0  0.8910502291474175  0.49188362300986194  0.3418372120555944  1.0000
  H   H15       1.0  0.3910360528821357  0.9918817807966465  0.1581662977034384  1.0000
  H   H16       1.0  0.10894668188085889  0.5081196809600285  0.6581623418998176  1.0000
  H   H17       1.0  0.7710675516767368  0.9574529549468237  0.0497544625167876  1.0000
  H   H18       1.0  0.7289386433442288  0.5425512333766278  0.5497507051170487  1.0000
  H   H19       1.0  0.22892986689605982  0.0425423683525281  0.9502450914651347  1.0000
  H   H20       1.0  0.2710601757350304  0.4574514631620303  0.45025084208960203  1.0000
  H   H21       1.0  0.8124429720670038  0.863526709459208  0.0107467194915074  1.0000
  H   H22       1.0  0.6875679325946467  0.6364797728897784  0.5107459911798031  1.0000
  H   H23       1.0  0.18754865085963962  0.13646920778658259  0.989252834501862  1.0000
  H   H24       1.0  0.31243772545884946  0.3635235613817187  0.4892560543220981  1.0000
  H   H25       1.0  0.4628557936792532  0.7872117915487848  0.0679955368469152  1.0000
  H   H26       1.0  0.03715750047182101  0.7127864848424253  0.5679974715154827  1.0000
  H   H27       1.0  0.5371437829881175  0.212787223422815  0.9320050137439607  1.0000
  H   H28       1.0  0.9628441628517094  0.28721499348775137  0.4320040756887735  1.0000
  H   H29       1.0  0.529207798306608  0.8473446086265284  0.13392552388422269  1.0000
  H   H30       1.0  0.970794481557064  0.6526512577161654  0.6339273496223186  1.0000
  H   H31       1.0  0.47079062788419906  0.1526513322008611  0.8660735317798184  1.0000
  H   H32       1.0  0.029205237964305308  0.3473502138688147  0.366075692526671  1.0000
  H   H33       1.0  0.592523835998051  0.7058709529231707  0.1445698414265166  1.0000
  H   H34       1.0  0.9074832868591757  0.7941278815081817  0.6445699836704577  1.0000
  H   H35       1.0  0.4074767482873228  0.29412867957646677  0.8554302108464711  1.0000
  H   H36       1.0  0.092514453163659  0.20587296918875356  0.3554320618585152  1.0000
  H   H37       1.0  0.6479428654767574  0.7025862262983222  0.0602645651717353  1.0000
  H   H38       1.0  0.8520638944424448  0.797414162381237  0.5602664378669573  1.0000
  H   H39       1.0  0.3520546245298917  0.2974103253119083  0.9397354871191581  1.0000
  H   H40       1.0  0.1479377688628176  0.2025873159377483  0.4397371025908754  1.0000
  H   H41       1.0  0.9029194793339599  0.8735800724372496  0.12133866045561352  1.0000
  H   H42       1.0  0.5970852608055921  0.6264208552864048  0.6213359321132472  1.0000
  H   H43       1.0  0.09707509500371002  0.12641646907618306  0.8786598969019224  1.0000
  H   H44       1.0  0.40291352257271745  0.3735812271065981  0.3786636218420369  1.0000
  H   H45       1.0  0.754895521833362  0.8957013263509239  0.15884946947911524  1.0000
  H   H46       1.0  0.7451043217358304  0.6042936391875172  0.6588491946350105  1.0000
  H   H47       1.0  0.2451059271931797  0.10429646704938728  0.8411500844848447  1.0000
  H   H48       1.0  0.25488852309666044  0.39570658051057706  0.3411528509075552  1.0000
  H   H49       1.0  0.7335999818219393  0.6076995535005878  0.1389727972902222  1.0000
  H   H50       1.0  0.7664070292754843  0.8922956588338095  0.6389759055923534  1.0000
  H   H51       1.0  0.26640535476781935  0.3922982533649345  0.8610282516048146  1.0000
  H   H52       1.0  0.2335925831247962  0.107703970303028  0.3610231500561198  1.0000
  H   H53       1.0  0.8865518180134375  0.5185860404402406  0.195661380235606  1.0000
  H   H54       1.0  0.6134473508397635  0.9814085116445738  0.6956640846348137  1.0000
  H   H55       1.0  0.1134498810338656  0.48141605204957466  0.8043396686530357  1.0000
  H   H56       1.0  0.3865502106053001  0.01858926827934229  0.3043359676516459  1.0000
  H   H57       1.0  0.1421091210829886  0.7145815379289003  0.2381336856669662  1.0000
  H   H58       1.0  0.35789695286578654  0.7854111292042063  0.7381376077119128  1.0000
  H   H59       1.0  0.8578992741347875  0.2854187357111613  0.7618598885114594  1.0000
  H   H60       1.0  0.6420988076996182  0.21458910062986553  0.2618589563764857  1.0000
  H   H61       1.0  2.5956919181197933e-05  0.8141251982527747  0.18695688565684074  1.0000
  H   H62       1.0  0.49998595018804803  0.6858686746488802  0.6869608363500532  1.0000
  H   H63       1.0  0.9999823668464743  0.18587384706520282  0.8130381834661974  1.0000
  H   H64       1.0  0.5000107465386777  0.3141309443883528  0.3130372226784601  1.0000
  H   H65       1.0  0.8527665898891995  0.9272928406543527  0.8415873177501966  1.0000
  H   H66       1.0  0.6472453757739843  0.5727154769415393  0.3415958177340316  1.0000
  H   H67       1.0  0.14724111915147386  0.07271234284965539  0.158410242919949  1.0000
  H   H68       1.0  0.352755494173728  0.42728906875687034  0.6584142007891458  1.0000
  H   H69       1.0  0.6653695536235773  0.8235871287256417  0.840399138640926  1.0000
  H   H70       1.0  0.8346356306263517  0.6764211786784884  0.340400065576965  1.0000
  H   H71       1.0  0.3346342320661791  0.17641742711434458  0.1596044018012819  1.0000
  H   H72       1.0  0.1653670402832077  0.3235809171601359  0.6596044715031653  1.0000
  H   H73       1.0  0.7026781924387819  0.6793181642625612  0.8049246217793992  1.0000
  H   H74       1.0  0.7973304862810339  0.8206893233794548  0.3049202364178427  1.0000
  H   H75       1.0  0.2973206623459816  0.32068514642453744  0.1950784203652205  1.0000
  H   H76       1.0  0.20267985266126226  0.1793109569582327  0.69508031414356  1.0000
  H   H77       1.0  0.1035900766505335  0.744986481897527  0.7657414145786703  1.0000
  H   H78       1.0  0.3964149837532531  0.7550138558382926  0.2657459928337573  1.0000
  H   H79       1.0  0.896402589645284  0.25501066705273695  0.2342541529008386  1.0000
  H   H80       1.0  0.6035925109265037  0.24498764269668533  0.7342565509836234  1.0000
  C   C1        1.0  0.36623599875814256  0.9051951481317103  0.912855316844066  1.0000
  C   C2        1.0  0.13377039586120532  0.5948060074995991  0.4128527633733867  1.0000
  C   C3        1.0  0.6337603407810731  0.09479832933990907  0.0871422438931972  1.0000
  C   C4        1.0  0.8662255790240181  0.4051979072783283  0.5871433023883199  1.0000
  C   C5        1.0  0.4207666964283305  0.878454781518016  0.971300467417514  1.0000
  C   C6        1.0  0.07924154269493039  0.621545727819722  0.4712974842006403  1.0000
  C   C7        1.0  0.5792237045741899  0.12153683326427968  0.028698588280242604  1.0000
  C   C8        1.0  0.9207564116979512  0.3784588078518425  0.5286985815543019  1.0000
  C   C9        1.0  0.5544367484364797  0.8964394143401789  0.9847336259806455  1.0000
  C   C10       1.0  0.9455732084311347  0.6035611574242522  0.4847325482755309  1.0000
  C   C11       1.0  0.44555390257766453  0.10355649952602158  0.015267921268588199  1.0000
  C   C12       1.0  0.0544265111085025  0.39644031417191883  0.5152685006198823  1.0000
  C   C13       1.0  0.6217258101502452  0.9461854487192412  0.936611670263801  1.0000
  C   C14       1.0  0.8782841639493456  0.5538175026015395  0.4366117497940181  1.0000
  C   C15       1.0  0.37826516235046637  0.05381599256693188  0.0633883820253089  1.0000
  C   C16       1.0  0.12171357610545643  0.4461833481149782  0.5633868075411854  1.0000
  C   C17       1.0  0.558754899615778  0.9706197199939339  0.8797138104558968  1.0000
  C   C18       1.0  0.9412540663673922  0.5293820211464677  0.3797132677625186  1.0000
  C   C19       1.0  0.4412417970744115  0.029379899020916898  0.12028823507977651  1.0000
  C   C20       1.0  0.058741837042880704  0.47062066529538527  0.6202867845107817  1.0000
  C   C21       1.0  0.7538616943041702  0.8903562595025108  0.05073292467002231  1.0000
  C   C22       1.0  0.7461454189407349  0.6096473070324038  0.5507311129199906  1.0000
  C   C23       1.0  0.24613975471780242  0.1096415338950081  0.9492671276073352  1.0000
  C   C24       1.0  0.2538513849116555  0.3903541544557712  0.44927043429564867  1.0000
  C   C25       1.0  0.5538776840526651  0.8136960027358882  0.0883478467974115  1.0000
  C   C26       1.0  0.9461285611668089  0.6863040705450845  0.5883485573190583  1.0000
  C   C27       1.0  0.44611876259850897  0.18629931717826756  0.9116546970671635  1.0000
  C   C28       1.0  0.0538712297929749  0.3136986293535741  0.4116544848255046  1.0000
  C   C29       1.0  0.6400076374715837  0.742450976080782  0.1045261360077703  1.0000
  C   C30       1.0  0.8599983826669091  0.7575501438122103  0.6045272517898326  1.0000
  C   C31       1.0  0.3599831921659984  0.25754800858641164  0.8954724213500144  1.0000
  C   C32       1.0  0.1400042525462766  0.24245133788356546  0.3954747937255405  1.0000
  C   C33       1.0  0.798096665957253  0.8603994669824786  0.11843876653551179  1.0000
  C   C34       1.0  0.7019109358345333  0.6395996609312176  0.6184384479943006  1.0000
  C   C35       1.0  0.20190298217136873  0.13960077631680426  0.8815592924839564  1.0000
  C   C36       1.0  0.2980886765566098  0.3603999682000278  0.381561604280968  1.0000
  C   C37       1.0  0.851628978383374  0.721040255028278  0.1558310676501549  1.0000
  C   C38       1.0  0.6483777594426386  0.7789553821191646  0.6558355127978501  1.0000
  C   C39       1.0  0.1483734425328365  0.2789575417376398  0.8441689846249217  1.0000
  C   C40       1.0  0.3516200163131061  0.22104608274300827  0.34416503778872004  1.0000
  C   C41       1.0  0.8227504589730047  0.6351542026620436  0.1597980076462093  1.0000
  C   C42       1.0  0.6772542981117767  0.8648419973733751  0.6597987321741314  1.0000
  C   C43       1.0  0.17725095430693466  0.3648429765646454  0.840204536200332  1.0000
  C   C44       1.0  0.3227444495518981  0.1351594708655881  0.3402003234699791  1.0000
  C   C45       1.0  0.9079348169925155  0.5845428502022616  0.1912320920421777  1.0000
  C   C46       1.0  0.5920721367738153  0.9154505502725457  0.6912328623357666  1.0000
  C   C47       1.0  0.09207149150060448  0.415454960037259  0.8087679602237899  1.0000
  C   C48       1.0  0.40792556756635173  0.08454968628993238  0.3087651966882561  1.0000
  C   C49       1.0  0.0501932223036476  0.6939938716727667  0.215293776867675  1.0000
  C   C50       1.0  0.4498151425828425  0.8059978303863318  0.7153001174604725  1.0000
  C   C51       1.0  0.9498160733608073  0.30600517701641644  0.7847007939396917  1.0000
  C   C52       1.0  0.5501805822496522  0.1940017852825022  0.2846979415703217  1.0000
  C   C53       1.0  0.9707132755975965  0.7492592997459154  0.1854145618230163  1.0000
  C   C54       1.0  0.5292937490280919  0.7507335518814459  0.6854202562283548  1.0000
  C   C55       1.0  0.029292203900958196  0.2507409637665531  0.8145829988693976  1.0000
  C   C56       1.0  0.4706999962830452  0.24926544288535266  0.3145792977493898  1.0000
  C   C57       1.0  0.10122229678901822  0.9050036594074057  0.8059278468182215  1.0000
  C   C58       1.0  0.3987877512709588  0.5949944047229535  0.3059340230268504  1.0000
  C   C59       1.0  0.8987782518547791  0.0949953589829633  0.1940637341292657  1.0000
  C   C60       1.0  0.6012178353304237  0.4050077012264665  0.6940695174196634  1.0000
  C   C61       1.0  0.9891100760123451  0.84277482133308  0.8039451977606547  1.0000
  C   C62       1.0  0.5109002071407646  0.657226542407457  0.3039532483328315  1.0000
  C   C63       1.0  0.0108916231125846  0.1572272712042988  0.1960473798002766  1.0000
  C   C64       1.0  0.4891062441880862  0.3427737244342381  0.6960512887448402  1.0000
  C   C65       1.0  0.8654715920319519  0.8642708581857618  0.8253833518764537  1.0000
  C   C66       1.0  0.6345385839785251  0.6357351780498419  0.3253889820889526  1.0000
  C   C67       1.0  0.1345330941821175  0.1357324727509166  0.1746127138669777  1.0000
  C   C68       1.0  0.3654651302499802  0.36426814946247543  0.6746170499246632  1.0000
  C   C69       1.0  0.7620044468123055  0.8061335948307757  0.8251127122916913  1.0000
  C   C70       1.0  0.7380048694573632  0.6938742835682844  0.32511446681508  1.0000
  C   C71       1.0  0.2379963160691076  0.19386910845307884  0.1748873399702262  1.0000
  C   C72       1.0  0.26200370426511915  0.3061290608000178  0.6748890736201716  1.0000
  C   C73       1.0  0.7819911190646066  0.7256811389770517  0.8051191165703316  1.0000
  C   C74       1.0  0.7180135970414411  0.774325104672627  0.3051184125958102  1.0000
  C   C75       1.0  0.21800471289812154  0.27432031914551663  0.1948819323341908  1.0000
  C   C76       1.0  0.28199389765201494  0.22567639387074218  0.6948826362813918  1.0000
  C   C77       1.0  0.9055567755712133  0.7032337098954358  0.7841528687112245  1.0000
  C   C78       1.0  0.5944442943192244  0.7967702991073793  0.2841555747803852  1.0000
  C   C79       1.0  0.09443509739901398  0.29676650645384234  0.2158456886398525  1.0000
  C   C80       1.0  0.40556611605692433  0.2032312095411868  0.7158454740899813  1.0000
  C   C81       1.0  0.008074727348585506  0.7623425707404294  0.7827694439728035  1.0000
  C   C82       1.0  0.49192818433306945  0.7376594114852607  0.2827741958004566  1.0000
  C   C83       1.0  0.9919199898933116  0.23765642741715703  0.21722612349550025  1.0000
  C   C84       1.0  0.5080773665628017  0.2623420803157117  0.7172278497080811  1.0000
  C   C85       1.0  0.928383920712946  0.6169534970666817  0.7622512446053661  1.0000
  C   C86       1.0  0.5716185939641393  0.8830519896218972  0.26224947168744  1.0000
  C   C87       1.0  0.07160600844142101  0.38304671252900846  0.23775030263063712  1.0000
  C   C88       1.0  0.4283957397081295  0.1169501466571177  0.7377515771716077  1.0000
  N   N1        1.0  0.4326365087272138  0.9500890747602639  0.8663877805090506  1.0000
  N   N2        1.0  0.0673727170510929  0.5499132236410277  0.36638584813788105  1.0000
  N   N3        1.0  0.5673588231437634  0.04990378515253718  0.1336157599934467  1.0000
  N   N4        1.0  0.9326263878046605  0.4500943861663487  0.6336132074840819  1.0000
  N   N5        1.0  0.6159009774137516  0.86888622854552  0.0395805686120241  1.0000
  N   N6        1.0  0.8841100492150957  0.6311144059332534  0.539578463100824  1.0000
  N   N7        1.0  0.38409852779693676  0.13111155810121033  0.9604219752368549  1.0000
  N   N8        1.0  0.11588855553978313  0.3688846056587565  0.4604240807459092  1.0000
  N   N9        1.0  0.7689003065492771  0.7725074740191717  0.1261899061563483  1.0000
  N   N10       1.0  0.7311090612146173  0.727490959399944  0.6261933262871793  1.0000
  N   N11       1.0  0.2310972906241346  0.2274909200671829  0.8738091495011061  1.0000
  N   N12       1.0  0.2688935382793645  0.27250990813898557  0.3738087192304036  1.0000
  N   N13       1.0  0.0212049775126957  0.612285935731883  0.2189318157785181  1.0000
  N   N14       1.0  0.4787993259905506  0.887703869541987  0.7189349625672108  1.0000
  N   N15       1.0  0.9788023386303876  0.38771249205526453  0.781064249975806  1.0000
  N   N16       1.0  0.5211972635831189  0.11229390702752078  0.28106259815455553  1.0000
  O   O1        1.0  0.2017996642452147  0.8850795207117842  0.7711135145277481  1.0000
  O   O2        1.0  0.298216531836097  0.6149134272510892  0.2711140414890351  1.0000
  O   O3        1.0  0.7981970325591449  0.11492009837301957  0.22887607317305483  1.0000
  O   O4        1.0  0.7017973732513384  0.3850813391738086  0.7288820242626385  1.0000
  O   O5        1.0  0.09466823564454781  0.9684643991905945  0.8406037760771882  1.0000
  O   O6        1.0  0.4053393759139681  0.5315357253524979  0.3406153453504643  1.0000
  O   O7        1.0  0.9053370653036338  0.03153279356565259  0.1593888014923479  1.0000
  O   O8        1.0  0.5946576421943064  0.4684694210403535  0.6593926799260217  1.0000
  O   O9        1.0  0.8268164128220334  0.5667855803406496  0.7651483511884082  1.0000
  O   O10       1.0  0.673183097344257  0.9332192495417145  0.2651477498987306  1.0000
  O   O11       1.0  0.17317067209263837  0.4332158474663217  0.23485269773659923  1.0000
  O   O12       1.0  0.32683116487132935  0.06678165841241679  0.7348552922183273  1.0000
  O   O13       1.0  0.03790438907925871  0.597408839526743  0.7414408304929765  1.0000
  O   O14       1.0  0.46210032347899943  0.9025948385901258  0.24143760015653024  1.0000
  O   O15       1.0  0.9620844610369661  0.40258952423841515  0.2585592218117654  1.0000
  O   O16       1.0  0.5379170330472718  0.0974091502730019  0.7585619537488526  1.0000
