data_image0
_chemical_formula_structural       Na4H60C32S8N8O8
_chemical_formula_sum              "Na4 H60 C32 S8 N8 O8"
_cell_length_a       10.166094175117003
_cell_length_b       10.123877710378403
_cell_length_c       13.6535
_cell_angle_alpha    103.30287048306
_cell_angle_beta     102.33939538539516
_cell_angle_gamma    114.23601050944093

_space_group_name_H-M_alt    "P 1"
_space_group_IT_number       1

loop_
  _space_group_symop_operation_xyz
  'x, y, z'

loop_
  _atom_site_type_symbol
  _atom_site_label
  _atom_site_symmetry_multiplicity
  _atom_site_fract_x
  _atom_site_fract_y
  _atom_site_fract_z
  _atom_site_occupancy
  Na  Na1       1.0  0.03497972186830368  0.4621833900790762  0.7973278008280931  1.0000
  Na  Na2       1.0  0.1666622716260164  0.23817191767499676  0.7022979685821726  1.0000
  Na  Na3       1.0  0.9650213212985079  0.5378186278887398  0.2026723432470803  1.0000
  Na  Na4       1.0  0.8333386660697785  0.7618277811894316  0.29770396027615226  1.0000
  H   H1        1.0  0.4285788787403604  0.1439942887478054  0.121425830961023  1.0000
  H   H2        1.0  0.521002050268109  0.3063871842032455  0.3789307405121534  1.0000
  H   H3        1.0  0.5714220589554344  0.8560054101166228  0.8785739006584947  1.0000
  H   H4        1.0  0.4790014574707159  0.6936136742128696  0.6210695978838318  1.0000
  H   H5        1.0  0.2379527572447273  0.9911372452773293  0.09065657030959783  1.0000
  H   H6        1.0  0.399763867331096  0.1455353329473681  0.4090369762486504  1.0000
  H   H7        1.0  0.7620491873740748  0.0088624535870991  0.909344053942313  1.0000
  H   H8        1.0  0.6002390842107131  0.8544643659170603  0.5909623433968534  1.0000
  H   H9        1.0  0.2491522669811204  0.2512644158369639  0.12080528650063373  1.0000
  H   H10       1.0  0.628625610404427  0.1268317641445549  0.3785456034012284  1.0000
  H   H11       1.0  0.7508492269116829  0.7487364425791512  0.8791961962823084  1.0000
  H   H12       1.0  0.37137432036835344  0.8731679347198735  0.6214547004117676  1.0000
  H   H13       1.0  0.12360074996775691  0.1140987270073097  0.9913067225542491  1.0000
  H   H14       1.0  0.6224276557325652  0.13072090052178  0.5077428454796973  1.0000
  H   H15       1.0  0.8764001877280378  0.8859009718571116  0.008693741478204259  1.0000
  H   H16       1.0  0.37757126811720804  0.8692787983426484  0.49225729811384167  1.0000
  H   H17       1.0  0.45446715082324124  0.3706727300450297  0.05165673298991183  1.0000
  H   H18       1.0  0.8180208028482099  0.4030323391324515  0.449030848000433  1.0000
  H   H19       1.0  0.545528196060495  0.629325809267705  0.9483433760206383  1.0000
  H   H20       1.0  0.18197857172756218  0.5969662001802831  0.5509691694750103  1.0000
  H   H21       1.0  0.2326716055086919  0.12152565559888019  0.8315051425384468  1.0000
  H   H22       1.0  0.7907254910443839  0.4013243194891416  0.668429660422909  1.0000
  H   H23       1.0  0.7673278745380969  0.8784752028172349  0.16849601980558052  1.0000
  H   H24       1.0  0.20927388353138804  0.598674219823593  0.33157035705252724  1.0000
  H   H25       1.0  0.418399149502136  0.2756683407609586  0.8567067209236257  1.0000
  H   H26       1.0  0.919459884386356  0.562943793965573  0.6442613751674315  1.0000
  H   H27       1.0  0.5816014429386769  0.724334836758544  0.14329428168258576  1.0000
  H   H28       1.0  0.08054049711242328  0.4370547453471616  0.3557388025274619  1.0000
  H   H29       1.0  0.42348842462087083  0.0280576723076038  0.8488318319339216  1.0000
  H   H30       1.0  0.6808939350812011  0.576156885503579  0.6519994210511372  1.0000
  H   H31       1.0  0.5765110554259181  0.9719431861085113  0.1511685979971774  1.0000
  H   H32       1.0  0.3191049887685722  0.4238428133608494  0.3480007225424019  1.0000
  H   H33       1.0  0.5324591381042794  0.1698882375968793  0.9814486232533142  1.0000
  H   H34       1.0  0.6884482800416691  0.5519222551267191  0.5195496924404637  1.0000
  H   H35       1.0  0.4675429119855394  0.8301137803709295  0.018552413454259026  1.0000
  H   H36       1.0  0.3115516507311185  0.4480774437377093  0.4804498789595969  1.0000
  H   H37       1.0  0.5947691106637621  0.2009746589257446  0.7195893848807345  1.0000
  H   H38       1.0  0.9811187993531192  0.8749443679130451  0.7808129468752228  1.0000
  H   H39       1.0  0.40522981318601137  0.7990250399386767  0.28040856147400467  1.0000
  H   H40       1.0  0.018880575222645694  0.1250541713996824  0.2191870706002206  1.0000
  H   H41       1.0  0.622577906000444  0.0704045001240132  0.7786799700166185  1.0000
  H   H42       1.0  0.7919233437658306  0.8435680586610133  0.7208377814118663  1.0000
  H   H43       1.0  0.3774220247723363  0.9295951987404081  0.22131886897051345  1.0000
  H   H44       1.0  0.20807401696391992  0.15643048065172138  0.2791626480375911  1.0000
  H   H45       1.0  0.6983893240760182  0.1072167877113017  0.6753097966362561  1.0000
  H   H46       1.0  0.9327087212163434  0.0242207157565488  0.8248497829207935  1.0000
  H   H47       1.0  0.3016116136197766  0.8927829111531267  0.32468847015739044  1.0000
  H   H48       1.0  0.06729120955644417  0.9757789831078724  0.17515198571807394  1.0000
  H   H49       1.0  0.23063777093469892  0.5681095967564289  0.049856762295270605  1.0000
  H   H50       1.0  0.017477692929887188  0.1813295341484817  0.4501677754939949  1.0000
  H   H51       1.0  0.7693626105640803  0.4318889425563057  0.95014561263843  1.0000
  H   H52       1.0  0.9825221323718765  0.8186678456125589  0.5498313834504104  1.0000
  H   H53       1.0  0.34380355998401063  0.5165941937060552  0.13167167587976542  1.0000
  H   H54       1.0  0.8845711729163029  0.2131198033548003  0.36837333020079654  1.0000
  H   H55       1.0  0.6561972722407673  0.48340318605498567  0.8683276432840971  1.0000
  H   H56       1.0  0.11542931405350025  0.7868810550613148  0.631627992362688  1.0000
  H   H57       1.0  0.8433854640509891  0.25954709357773  0.8886154110147191  1.0000
  H   H58       1.0  0.8713282575706032  0.9549441582939265  0.6119717649821793  1.0000
  H   H59       1.0  0.15661512838983063  0.7404560839417725  0.11138266193975001  1.0000
  H   H60       1.0  0.1286716732021844  0.0450555405704947  0.3880285388308167  1.0000
  C   C1        1.0  0.3105689796612126  0.0764214138572967  0.06215248254020621  1.0000
  C   C2        1.0  0.5135221162153912  0.24742745928590887  0.4378616881046113  1.0000
  C   C3        1.0  0.6894309511115679  0.9235782850071316  0.9378478212727902  1.0000
  C   C4        1.0  0.48647826528338817  0.7525710800268186  0.5621384895902894  1.0000
  C   C5        1.0  0.24516513138416232  0.1835987768110456  0.043719669064266505  1.0000
  C   C6        1.0  0.6389439685505067  0.2003577774252463  0.4558448187904959  1.0000
  C   C7        1.0  0.7548347993886182  0.8164009220533828  0.9562813671616653  1.0000
  C   C8        1.0  0.36105641294827245  0.7996407618874883  0.5441560913173334  1.0000
  C   C9        1.0  0.33710480246906377  0.2929839261876381  0.9922553491977766  1.0000
  C   C10       1.0  0.8000539534119184  0.344652390061448  0.5079323225636259  1.0000
  C   C11       1.0  0.6628941213807168  0.7070157726767832  0.007745526808704963  1.0000
  C   C12       1.0  0.19994642808686078  0.6553461492512795  0.49206858754420324  1.0000
  C   C13       1.0  0.34825633181294796  0.1992388100418125  0.8921695586721654  1.0000
  C   C14       1.0  0.8073758436377363  0.45662797791948145  0.6082430724702237  1.0000
  C   C15       1.0  0.6517431482338408  0.8007620483743025  0.10783160367186183  1.0000
  C   C16       1.0  0.19262453786104317  0.5433705613932531  0.3917571052246772  1.0000
  C   C17       1.0  0.4168773242821473  0.0980841585798089  0.91982558505336  1.0000
  C   C18       1.0  0.6788814979207559  0.4978001798712127  0.5808452748046166  1.0000
  C   C19       1.0  0.5831237188846643  0.901917859388  0.08017529143474894  1.0000
  C   C20       1.0  0.321119439775039  0.5021995189932156  0.4191551892278369  1.0000
  C   C21       1.0  0.22464320308336028  0.839386715257234  0.9062630880673626  1.0000
  C   C22       1.0  0.43411266978217367  0.318686549007424  0.5935352496623736  1.0000
  C   C23       1.0  0.7753562769634286  0.160614143158881  0.09373514462493655  1.0000
  C   C24       1.0  0.565887260990614  0.6813131498569973  0.4064635893247512  1.0000
  C   C25       1.0  0.2652130721213908  0.3931367249871798  0.9695541303655875  1.0000
  C   C26       1.0  0.9226242645333685  0.2951708406800222  0.5304151465317944  1.0000
  C   C27       1.0  0.7347858517283897  0.6068629738772486  0.030446013227951582  1.0000
  C   C28       1.0  0.07737511004240363  0.7048276986327124  0.4695856033565846  1.0000
  C   C29       1.0  0.6761720650832858  0.1597444793893814  0.745610842472246  1.0000
  C   C30       1.0  0.9144403524269649  0.93077098415678  0.7545813942070226  1.0000
  C   C31       1.0  0.3238294288095176  0.8402563790267408  0.25438771065896765  1.0000
  C   C32       1.0  0.08555857142280839  0.0692287147076485  0.24541874938651634  1.0000
  S   S1        1.0  0.241210581091714  0.7520979829362133  0.7889023199152733  1.0000
  S   S2        1.0  0.4653058942086333  0.4541465372971558  0.7108495157347505  1.0000
  S   S3        1.0  0.7587884482290832  0.24790403503160258  0.21109603889512132  1.0000
  S   S4        1.0  0.5346946982321796  0.5458566402223468  0.2891522192843965  1.0000
  S   S5        1.0  0.08631928087204699  0.729639785752525  0.9511735359926661  1.0000
  S   S6        1.0  0.2789812091960684  0.1344047962493988  0.5481250694025732  1.0000
  S   S7        1.0  0.9136778400737455  0.2703645513186714  0.04882345000860509  1.0000
  S   S8        1.0  0.7210192777737275  0.8655960621667161  0.4518747883350472  1.0000
  N   N1        1.0  0.31836851408196754  0.9926840872353537  0.9626679864085477  1.0000
  N   N2        1.0  0.5304362309963652  0.3555788456615048  0.537590230228183  1.0000
  N   N3        1.0  0.6816329798108356  0.0073167711807685  0.0373320315485302  1.0000
  N   N4        1.0  0.4695652628964453  0.6444220127546103  0.46240905531595905  1.0000
  N   N5        1.0  0.28541177004630214  0.5040003027719351  0.055923008629129425  1.0000
  N   N6        1.0  0.9473517842593324  0.2300121524136571  0.444129907191993  1.0000
  N   N7        1.0  0.7145865976064628  0.4959982365407996  0.9440775810397924  1.0000
  N   N8        1.0  0.05264814651344806  0.7699875464507642  0.5558703966210032  1.0000
  O   O1        1.0  0.18977733645562006  0.3708617369709302  0.8759184558305153  1.0000
  O   O2        1.0  0.9938315920050159  0.31234612035189  0.6237903751044629  1.0000
  O   O3        1.0  0.8102215873941533  0.6291379618934911  0.12408022293715958  1.0000
  O   O4        1.0  0.0061686840227466195  0.6876500998574571  0.3762093901347755  1.0000
  O   O5        1.0  0.817189001079278  0.2869600551442062  0.8240075051647224  1.0000
  O   O6        1.0  0.9634304240017215  0.9931455888090355  0.6767121789694742  1.0000
  O   O7        1.0  0.18281360520755632  0.7130431223752963  0.1759894234027897  1.0000
  O   O8        1.0  0.03656849984805181  0.0068541100553858  0.32328796462406484  1.0000
