data_image0
_chemical_formula_structural       Cs4H12C44N24O8
_chemical_formula_sum              "Cs4 H12 C44 N24 O8"
_cell_length_a       6.807884968002102
_cell_length_b       10.943232878286777
_cell_length_c       19.83918476433479
_cell_angle_alpha    104.88974134114987
_cell_angle_beta     92.54009545771669
_cell_angle_gamma    100.85238608692549

_space_group_name_H-M_alt    "P 1"
_space_group_IT_number       1

loop_
  _space_group_symop_operation_xyz
  'x, y, z'

loop_
  _atom_site_type_symbol
  _atom_site_label
  _atom_site_symmetry_multiplicity
  _atom_site_fract_x
  _atom_site_fract_y
  _atom_site_fract_z
  _atom_site_occupancy
  Cs  Cs1       1.0  0.18879863965823768  0.8252529768804137  0.9678206582569824  1.0000
  Cs  Cs2       1.0  0.8112022051795974  0.17474249384803636  0.03218137318931008  1.0000
  Cs  Cs3       1.0  0.695171583053181  0.32682246835126694  0.39968480368924003  1.0000
  Cs  Cs4       1.0  0.3048317208996919  0.6731758967962235  0.6003151576542646  1.0000
  H   H1        1.0  0.3939343649065918  0.2952560268295342  0.17593828506113593  1.0000
  H   H2        1.0  0.6060662869902698  0.7047433111616642  0.8240632793031748  1.0000
  H   H3        1.0  0.514368533240379  0.20079317837509328  0.22033155489176431  1.0000
  H   H4        1.0  0.4856324423956335  0.7992071255706461  0.7796696470175843  1.0000
  H   H5        1.0  0.25082532109898636  0.20967839539554228  0.2295738702595144  1.0000
  H   H6        1.0  0.749175043846371  0.7903199746735581  0.770426040669555  1.0000
  H   H7        1.0  0.736731411396093  0.8645515412526875  0.5283897919560372  1.0000
  H   H8        1.0  0.2632683336616991  0.13544489543167507  0.47160933196530386  1.0000
  H   H9        1.0  0.0025583709685505188  0.862421387821193  0.530327124867348  1.0000
  H   H10       1.0  0.9974434542836548  0.13757698027899318  0.4696733152414863  1.0000
  H   H11       1.0  0.8516031937184253  0.804242017938229  0.593037437831036  1.0000
  H   H12       1.0  0.14839686588160106  0.19575538519256233  0.4069618276078869  1.0000
  C   C1        1.0  0.22397316320085284  0.7559294976291114  0.1727527789617155  1.0000
  C   C2        1.0  0.7760220333505712  0.24406211371226766  0.827247602847464  1.0000
  C   C3        1.0  0.1502230148692192  0.4880092832918662  0.19440070365217102  1.0000
  C   C4        1.0  0.8497783558456574  0.5119832856364964  0.8056009284485764  1.0000
  C   C5        1.0  0.22320796391920078  0.5124716332338436  0.35178866713687984  1.0000
  C   C6        1.0  0.7767932986683164  0.4875296386339869  0.648214188207717  1.0000
  C   C7        1.0  0.3321038456715966  0.8058898214494403  0.4291863277287502  1.0000
  C   C8        1.0  0.6678971391613258  0.1941104820044116  0.5708143702080404  1.0000
  C   C9        1.0  0.3366332084997835  0.9547011727550014  0.31603283168505664  1.0000
  C   C10       1.0  0.6633573957963108  0.045294312739642385  0.6839665034479336  1.0000
  C   C11       1.0  0.24074958633305235  0.7288650303540434  0.23797824917624394  1.0000
  C   C12       1.0  0.7592436056406696  0.2711294857401185  0.7620230107438101  1.0000
  C   C13       1.0  0.20797739077299576  0.6032345648498065  0.248250658906258  1.0000
  C   C14       1.0  0.7920161065460503  0.3967609181826645  0.7517512465039429  1.0000
  C   C15       1.0  0.24019272076179723  0.6163296619477734  0.3213884605903558  1.0000
  C   C16       1.0  0.7597984482403888  0.3836677598829397  0.6786146853856889  1.0000
  C   C17       1.0  0.2921756917198621  0.7506913757848253  0.35639108175826795  1.0000
  C   C18       1.0  0.7078199133843338  0.2493060371878144  0.6436106279217737  1.0000
  C   C19       1.0  0.2926448676137666  0.8200099169077929  0.3046988871851183  1.0000
  C   C20       1.0  0.7073496285134767  0.1799884625126396  0.6953004189425227  1.0000
  C   C21       1.0  0.3728386428338624  0.20920504462276307  0.19560305757574523  1.0000
  C   C22       1.0  0.6271634785667571  0.7907942909076265  0.8043985319957866  1.0000
  C   C23       1.0  0.7228092852631534  0.8205587745090668  0.08266114474411519  1.0000
  C   C24       1.0  0.2771923032990955  0.1794521603501167  0.9173365237187096  1.0000
  C   C25       1.0  0.6637147351453975  0.5432403163873119  0.10236183061889645  1.0000
  C   C26       1.0  0.33628349665966084  0.456764822254094  0.8976349635311889  1.0000
  C   C27       1.0  0.7053690281984332  0.5676230495586411  0.2585863722372749  1.0000
  C   C28       1.0  0.2946228273052966  0.4323849992504094  0.7414092085118182  1.0000
  C   C29       1.0  0.8094347678294865  0.8550790552334958  0.3379404491712703  1.0000
  C   C30       1.0  0.1905607087121197  0.144922221558673  0.6620572656189123  1.0000
  C   C31       1.0  0.805779162200494  0.013101747920373396  0.2323771467697567  1.0000
  C   C32       1.0  0.19423139953763507  0.986905306878789  0.7676231559085733  1.0000
  C   C33       1.0  0.7281775568987141  0.7883776999499472  0.14684446833427228  1.0000
  C   C34       1.0  0.2718216093361505  0.2116303385226387  0.8531532543411228  1.0000
  C   C35       1.0  0.7000265277373573  0.6611548016791601  0.1551120665674758  1.0000
  C   C36       1.0  0.2999632015873956  0.3388513181735036  0.8448847178568851  1.0000
  C   C37       1.0  0.7241508601856878  0.6712865858436671  0.22816634562989432  1.0000
  C   C38       1.0  0.27583446062779865  0.32871954139140763  0.7718303631728102  1.0000
  C   C39       1.0  0.7687543712650607  0.8045051334374518  0.26493528810594563  1.0000
  C   C40       1.0  0.23123964496970467  0.19549614532363074  0.735061897504458  1.0000
  C   C41       1.0  0.7702849621235116  0.8771879981679047  0.21482947228534488  1.0000
  C   C42       1.0  0.2297171155281319  0.12282003685873377  0.7851698127221521  1.0000
  C   C43       1.0  0.8541295521065562  0.8148291712909453  0.5394675435656706  1.0000
  C   C44       1.0  0.1458734465009854  0.18516822691822907  0.46053177228769454  1.0000
  N   N1        1.0  0.2084582284239289  0.7758817449653108  0.11784914648634266  1.0000
  N   N2        1.0  0.7915382170995426  0.22411373265367013  0.8821523053657426  1.0000
  N   N3        1.0  0.1021304624936619  0.3937372480831414  0.1484085870860027  1.0000
  N   N4        1.0  0.8978849120315072  0.606262063824353  0.8515917174328321  1.0000
  N   N5        1.0  0.20798962878480146  0.4236616458037829  0.375197240082066  1.0000
  N   N6        1.0  0.7920241270446127  0.5763328363310053  0.6248048767116072  1.0000
  N   N7        1.0  0.3628649567443105  0.8505556098750092  0.4898297509504769  1.0000
  N   N8        1.0  0.6371418969067335  0.149444684227511  0.5101715517877492  1.0000
  N   N9        1.0  0.3731447176570839  0.06648978859816879  0.32369310139239343  1.0000
  N   N10       1.0  0.6268429016469309  0.9335057042775214  0.6763087031889297  1.0000
  N   N11       1.0  0.31194338536958804  0.09720582753423196  0.13275285064235476  1.0000
  N   N12       1.0  0.6880572849210933  0.9027935094731914  0.8672477057768542  1.0000
  N   N13       1.0  0.7214083400860004  0.8476278153509538  0.029320832472450216  1.0000
  N   N14       1.0  0.27859132443516893  0.1523773227972072  0.9706780027750666  1.0000
  N   N15       1.0  0.6376034620137148  0.4422036370769362  0.06130002323251917  1.0000
  N   N16       1.0  0.3624093636628913  0.5578014823671964  0.938702566687851  1.0000
  N   N17       1.0  0.6882512447493168  0.4811026752034947  0.2838443026535628  1.0000
  N   N18       1.0  0.3117513495824582  0.518902458514944  0.7161550869809472  1.0000
  N   N19       1.0  0.8464668286219066  0.896537907520667  0.3986417014065322  1.0000
  N   N20       1.0  0.15353270510108524  0.1034623974102118  0.6013579633779356  1.0000
  N   N21       1.0  0.8337431479639504  0.12608883582285557  0.2503797460445368  1.0000
  N   N22       1.0  0.1662689016717564  0.8739182155317305  0.7496195738958986  1.0000
  N   N23       1.0  0.8053305050769238  0.6810437299817806  0.49280582737683415  1.0000
  N   N24       1.0  0.19467070948462606  0.3189527042417737  0.507193321751721  1.0000
  O   O1        1.0  0.447476495515751  0.05085358609883171  0.10231233006752656  1.0000
  O   O2        1.0  0.5525245077109985  0.9491467163712384  0.8976873599241624  1.0000
  O   O3        1.0  0.1309348352714252  0.05714274883992939  0.11282117440345726  1.0000
  O   O4        1.0  0.8690658258223536  0.9428565886593817  0.8871798859883026  1.0000
  O   O5        1.0  0.6260530667104831  0.6272327412709727  0.47662554043466066  1.0000
  O   O6        1.0  0.3739469836926403  0.3727646623516989  0.52337422897682  1.0000
  O   O7        1.0  0.9462475673038069  0.6270763030306411  0.4737057318238625  1.0000
  O   O8        1.0  0.05375331432167477  0.3729191657302592  0.5262942837322127  1.0000
