data_image0
_chemical_formula_structural       GdH8C3N9O5
_chemical_formula_sum              "Gd1 H8 C3 N9 O5"
_cell_length_a       6.555628826487409
_cell_length_b       6.555412434782381
_cell_length_c       7.395662972761288
_cell_angle_alpha    99.05851323303254
_cell_angle_beta     99.06136873173466
_cell_angle_gamma    119.18530690254825

_space_group_name_H-M_alt    "P 1"
_space_group_IT_number       1

loop_
  _space_group_symop_operation_xyz
  'x, y, z'

loop_
  _atom_site_type_symbol
  _atom_site_label
  _atom_site_symmetry_multiplicity
  _atom_site_fract_x
  _atom_site_fract_y
  _atom_site_fract_z
  _atom_site_occupancy
  Gd  Gd1       1.0  0.9088956598721581  0.9088931830409808  0.7831422611239987  1.0000
  H   H1        1.0  0.7440437001017132  0.604129931214203  0.3552638067267468  1.0000
  H   H2        1.0  0.6041304142727527  0.7440333411286064  0.3552647778554104  1.0000
  H   H3        1.0  0.6516528156960603  0.1525440222441361  0.8035086714815378  1.0000
  H   H4        1.0  0.007929259599002656  0.5259806028702202  0.5728120999784565  1.0000
  H   H5        1.0  0.5259937800864449  0.007934740348893908  0.5728067026352619  1.0000
  H   H6        1.0  0.1525400135652221  0.6516377633126709  0.8035143890604531  1.0000
  H   H7        1.0  0.1429964077615438  0.1429729535810722  0.4856779868338067  1.0000
  H   H8        1.0  0.4475431738143668  0.4476578412583193  0.5943572624156844  1.0000
  C   C1        1.0  0.0004563481435866265  0.21572422309295552  0.25721164341368313  1.0000
  C   C2        1.0  0.21567377189010267  0.0004470210426106009  0.2572090511655176  1.0000
  C   C3        1.0  0.430920003637894  0.4309617339066137  0.739227794493907  1.0000
  N   N1        1.0  0.9149524499185514  0.1727486264100122  0.06921958031374224  1.0000
  N   N2        1.0  0.1727464313309142  0.9149156188950016  0.06922659882653906  1.0000
  N   N3        1.0  0.7965429663471255  0.29456137460876874  0.054291971748384106  1.0000
  N   N4        1.0  0.29458943159917084  0.7965371090300479  0.05428535560995585  1.0000
  N   N5        1.0  0.8123216221677082  0.40271367616700354  0.22420999745723694  1.0000
  N   N6        1.0  0.40274718850459124  0.8123091690538046  0.22420642975833976  1.0000
  N   N7        1.0  0.9409168756072432  0.3586703436218245  0.35686486547690077  1.0000
  N   N8        1.0  0.3586487466817304  0.9408723313073609  0.3568274195111344  1.0000
  N   N9        1.0  0.129147497201707  0.12918451746421772  0.34342871664943436  1.0000
  O   O1        1.0  0.5977130770418883  0.5976990453715204  0.8780446839843776  1.0000
  O   O2        1.0  0.23985263103069346  0.2398602899453408  0.7449025484656746  1.0000
  O   O3        1.0  0.7156710031200859  0.7156574551698398  0.44293970929000187  1.0000
  O   O4        1.0  0.6466912814691526  0.0383652550228248  0.6944784931937776  1.0000
  O   O5        1.0  0.038378284079350185  0.6466823729450297  0.6944722026174333  1.0000
