data_image0
_chemical_formula_structural       Zn16H32C96S16O60
_chemical_formula_sum              "Zn16 H32 C96 S16 O60"
_cell_length_a       19.667921838688063
_cell_length_b       19.66731251779642
_cell_length_c       33.376585139634614
_cell_angle_alpha    79.20001311258243
_cell_angle_beta     79.195526018981
_cell_angle_gamma    63.958975219290465

_space_group_name_H-M_alt    "P 1"
_space_group_IT_number       1

loop_
  _space_group_symop_operation_xyz
  'x, y, z'

loop_
  _atom_site_type_symbol
  _atom_site_label
  _atom_site_symmetry_multiplicity
  _atom_site_fract_x
  _atom_site_fract_y
  _atom_site_fract_z
  _atom_site_occupancy
  Zn  Zn1       1.0  0.055792173940425016  0.4000583249599644  0.4784380108023498  1.0000
  Zn  Zn2       1.0  0.9833660260122343  0.482444929269967  0.5606874340008544  1.0000
  Zn  Zn3       1.0  0.0597879351458772  0.5594456025513421  0.4826675160233123  1.0000
  Zn  Zn4       1.0  0.9018579008035986  0.5555733310189268  0.4789506518974278  1.0000
  Zn  Zn5       1.0  0.6936669558666537  0.3497578486822803  0.27185125583248043  1.0000
  Zn  Zn6       1.0  0.6890870938582836  0.1894208311022254  0.26720085682151046  1.0000
  Zn  Zn7       1.0  0.7669447996662201  0.26790322603756783  0.19037826316627357  1.0000
  Zn  Zn8       1.0  0.8479079501492991  0.19388141179968704  0.2713344676079005  1.0000
  Zn  Zn9       1.0  0.2675255155867262  0.7666675017842904  0.6892958304654612  1.0000
  Zn  Zn10      1.0  0.3498897421804301  0.6942491875702359  0.7715875209319094  1.0000
  Zn  Zn11      1.0  0.19429872590596628  0.8481515868966125  0.7710988251208448  1.0000
  Zn  Zn12      1.0  0.19058756579509864  0.6901574203239703  0.7673456557992181  1.0000
  Zn  Zn13      1.0  0.5605413519982109  0.06096669084724472  0.9828258180003148  1.0000
  Zn  Zn14      1.0  0.4004171966289078  0.056135175028970294  0.978172375555971  1.0000
  Zn  Zn15      1.0  0.5561152795831177  0.9020327795167375  0.9787013541592772  1.0000
  Zn  Zn16      1.0  0.48218015644496864  0.9830255526949757  0.059651844740173515  1.0000
  H   H1        1.0  0.7482219210222425  0.4529325198319255  0.3504702903490228  1.0000
  H   H2        1.0  0.0018731202898293997  0.29704999151294953  0.39949332571112  1.0000
  H   H3        1.0  0.20074524888138262  0.7006515443766973  0.5982918636000676  1.0000
  H   H4        1.0  0.0492224844459344  0.549407130648909  0.6516711927308093  1.0000
  H   H5        1.0  0.28590604781469864  0.5109663892283223  0.409369183984694  1.0000
  H   H6        1.0  0.46343935425697663  0.23934113842296512  0.34091366359654535  1.0000
  H   H7        1.0  0.7719438221643599  0.546922484416399  0.6482717220854327  1.0000
  H   H8        1.0  0.4787331862664247  0.7028583833925593  0.6013888654796914  1.0000
  H   H9        1.0  0.047150345543059316  0.2712951103659336  0.6485809053758514  1.0000
  H   H10       1.0  0.2031588459903944  0.9780818693117154  0.6017161900155158  1.0000
  H   H11       1.0  0.8008401908764995  0.778815887917858  0.4022944512248259  1.0000
  H   H12       1.0  0.9493581995786758  0.9705855531968837  0.3479978084543872  1.0000
  H   H13       1.0  0.6516018654572947  0.1517972794852511  0.04935116294096528  1.0000
  H   H14       1.0  0.5984772432894802  0.09811255618002687  0.20068686878887118  1.0000
  H   H15       1.0  0.7027803550328501  0.4787990389070059  0.10129284280827022  1.0000
  H   H16       1.0  0.5469742948928698  0.7718993079547191  0.14833778868945297  1.0000
  H   H17       1.0  0.0864212880614303  0.10884566418993556  0.21015968833851423  1.0000
  H   H18       1.0  0.1629230635531229  0.14141665298168968  0.040117662248803795  1.0000
  H   H19       1.0  0.2971488674521297  0.0018382028289139042  0.8995754058563533  1.0000
  H   H20       1.0  0.45283505553119596  0.7482741489051608  0.8504808108090884  1.0000
  H   H21       1.0  0.4490143908859495  0.4712306052454591  0.8475726413452378  1.0000
  H   H22       1.0  0.30065223124296386  0.27934667111667727  0.9021949541493514  1.0000
  H   H23       1.0  0.964182263608734  0.7391011708879841  0.8405410304024772  1.0000
  H   H24       1.0  0.7863168654552907  0.010572750678726196  0.9091513456485671  1.0000
  H   H25       1.0  0.8086813586799265  0.5276548199630114  0.4181911309624268  1.0000
  H   H26       1.0  0.941161390659353  0.22243856227278522  0.3317936177189793  1.0000
  H   H27       1.0  0.13644910677858493  0.6367368182552012  0.5270672710158237  1.0000
  H   H28       1.0  0.1134735253601065  0.6133991949192888  0.7228881022256745  1.0000
  H   H29       1.0  0.7230657964090029  0.2228379900942556  0.11342371425666899  1.0000
  H   H30       1.0  0.5269334476884142  0.027157988049815084  0.1366106437381518  1.0000
  H   H31       1.0  0.22222496353641222  0.9414986111948097  0.8319119755943376  1.0000
  H   H32       1.0  0.5278136163281603  0.8084947911356721  0.9181553588079724  1.0000
  C   C1        1.0  0.06144783291112081  0.3154264577661933  0.5617874221766853  1.0000
  C   C2        1.0  0.06958812599063442  0.5697679158812575  0.5696575325781055  1.0000
  C   C3        1.0  0.1841498162858031  0.43898579444194746  0.4386913234272925  1.0000
  C   C4        1.0  0.9381980633869489  0.6840245845458739  0.43860130348789284  1.0000
  C   C5        1.0  0.9303361039081964  0.43032105431636586  0.430328193393791  1.0000
  C   C6        1.0  0.8160462739550027  0.5612140569972085  0.5615438900204452  1.0000
  C   C7        1.0  0.565317389074103  0.31119728246486045  0.3115306864247316  1.0000
  C   C8        1.0  0.6805203795259374  0.18022787373335084  0.18034273739348813  1.0000
  C   C9        1.0  0.6886051058708418  0.4344492161589599  0.18821958235369607  1.0000
  C   C10       1.0  0.9341746624991886  0.18854733168351606  0.1887971836925857  1.0000
  C   C11       1.0  0.8196640951024109  0.31967258688509753  0.3196314288240387  1.0000
  C   C12       1.0  0.8119001183024183  0.06539530961214268  0.31160516559439333  1.0000
  C   C13       1.0  0.43459986579274107  0.6886410262527745  0.6882327506182051  1.0000
  C   C14       1.0  0.3195974092455529  0.8197571898015211  0.819689606548792  1.0000
  C   C15       1.0  0.188914672906968  0.933919366401348  0.6884440546393336  1.0000
  C   C16       1.0  0.06584136953494381  0.8110795391556069  0.811367045926545  1.0000
  C   C17       1.0  0.18039386779172165  0.6803164707438684  0.6802877138427305  1.0000
  C   C18       1.0  0.31172031211195156  0.5657856427114966  0.8113659524405605  1.0000
  C   C19       1.0  0.4380910956123429  0.18459324584275547  0.9384514851308695  1.0000
  C   C20       1.0  0.43041942191405985  0.9302814768384808  0.9303820739878716  1.0000
  C   C21       1.0  0.6844951600857812  0.9387945648359589  0.9384634224241282  1.0000
  C   C22       1.0  0.5612372931722194  0.8162085770678331  0.061534772252123594  1.0000
  C   C23       1.0  0.569590672687724  0.06968786414528705  0.06967891262327439  1.0000
  C   C24       1.0  0.31521169449330694  0.06178270853835243  0.061403097099272906  1.0000
  C   C25       1.0  0.9010830563448097  0.4029421248453248  0.4018873592565411  1.0000
  C   C26       1.0  0.8490602675799792  0.34713092151133657  0.34798555149138377  1.0000
  C   C27       1.0  0.8283352938462727  0.44784897358512415  0.3879021848256413  1.0000
  C   C28       1.0  0.9218302150443237  0.302232912996324  0.36197036308426084  1.0000
  C   C29       1.0  0.8038144476725151  0.41892195780196306  0.3611961802708593  1.0000
  C   C30       1.0  0.9463487850706613  0.33112923771867736  0.38869012323191754  1.0000
  C   C31       1.0  0.0984676993931259  0.5986170738672031  0.5975571977992188  1.0000
  C   C32       1.0  0.1514640734434352  0.6514949223233443  0.6524021824668083  1.0000
  C   C33       1.0  0.14190121534768  0.6419501754793512  0.5820863882518806  1.0000
  C   C34       1.0  0.1080323230477447  0.6081404100240134  0.6678703246996704  1.0000
  C   C35       1.0  0.1675266283243459  0.6675134306289793  0.6099213812013176  1.0000
  C   C36       1.0  0.0824142891058628  0.5825755899416903  0.6400406944843625  1.0000
  C   C37       1.0  0.30330962573341946  0.45411277579144377  0.4013175282562925  1.0000
  C   C38       1.0  0.4460455456908648  0.29619545591273777  0.34894530965598136  1.0000
  C   C39       1.0  0.2588419832600195  0.4137251330214652  0.41380104432433745  1.0000
  C   C40       1.0  0.49058444840132853  0.33650877051380945  0.33647410849567894  1.0000
  C   C41       1.0  0.37785837099283986  0.3389123661908115  0.3725431824207845  1.0000
  C   C42       1.0  0.3714695401250268  0.41142812745680873  0.3776909510073522  1.0000
  C   C43       1.0  0.7266886796472748  0.5759343957476588  0.6286018379999732  1.0000
  C   C44       1.0  0.5239570271452153  0.6737983803426885  0.6210787298958138  1.0000
  C   C45       1.0  0.7411382384905282  0.5862446876764762  0.5861954119735274  1.0000
  C   C46       1.0  0.5094948605886671  0.6634979227381167  0.6634986394752785  1.0000
  C   C47       1.0  0.6029981835451251  0.6419337366188674  0.6083217349676816  1.0000
  C   C48       1.0  0.6476521544444154  0.6077691921045058  0.641355869757362  1.0000
  C   C49       1.0  0.07622690121540639  0.2260494722342231  0.6289122439508362  1.0000
  C   C50       1.0  0.17414277890607366  0.023337213796573095  0.6213910687841775  1.0000
  C   C51       1.0  0.0865551913909783  0.2405164401410715  0.5865017873473376  1.0000
  C   C52       1.0  0.1638395758374642  0.008843708108841514  0.66380527717196  1.0000
  C   C53       1.0  0.1422967950294165  0.10236722191403659  0.6086428916453955  1.0000
  C   C54       1.0  0.10809442024908122  0.1470020063542279  0.6416893413800507  1.0000
  C   C55       1.0  0.8449769938717395  0.799610375236107  0.39764387867644047  1.0000
  C   C56       1.0  0.9052283055995288  0.9497908736281957  0.3526317741976399  1.0000
  C   C57       1.0  0.9137387838543916  0.7587086057076249  0.41369412189661864  1.0000
  C   C58       1.0  0.8364277950625267  0.9907010688404654  0.3365797178683323  1.0000
  C   C59       1.0  0.9084624552721152  0.8802042033642437  0.3748587884098526  1.0000
  C   C60       1.0  0.8418101876607267  0.8691560990103043  0.375399324268848  1.0000
  C   C61       1.0  0.6525694806511171  0.15232378296147428  0.15148549113594356  1.0000
  C   C62       1.0  0.597558125559985  0.09754773006840615  0.09854664415735924  1.0000
  C   C63       1.0  0.6679318685196023  0.16786825629165497  0.10810803101760767  1.0000
  C   C64       1.0  0.5821489612187348  0.08204087673237836  0.1419274935209103  1.0000
  C   C65       1.0  0.6400418258317089  0.14007593920238995  0.0825173663602712  1.0000
  C   C66       1.0  0.6100669343681205  0.10980857338394402  0.1675216941678315  1.0000
  C   C67       1.0  0.673716177810185  0.5239505762323375  0.12103566615709123  1.0000
  C   C68       1.0  0.5759928838041972  0.7267118131509561  0.128621171306655  1.0000
  C   C69       1.0  0.6634159340222752  0.509367275655663  0.1634664650427737  1.0000
  C   C70       1.0  0.586306772230401  0.7412717338558749  0.08620490854921307  1.0000
  C   C71       1.0  0.607768988289415  0.6476443531565436  0.14135580103180698  1.0000
  C   C72       1.0  0.6419144346711506  0.6030204468199116  0.10830445031221098  1.0000
  C   C73       1.0  0.07954047628329872  0.12500670091375093  0.17768980087055297  1.0000
  C   C74       1.0  0.16982231711880053  0.12517038585217927  0.07257800063588601  1.0000
  C   C75       1.0  0.0086981010142537  0.1637480754807683  0.16369443445108803  1.0000
  C   C76       1.0  0.2406902750036863  0.08648983800600965  0.08655322662474418  1.0000
  C   C77       1.0  0.1111180956160425  0.13921273901135578  0.1057048081022955  1.0000
  C   C78       1.0  0.13826929571725802  0.11090181143012497  0.1445659011158682  1.0000
  C   C79       1.0  0.3470465441561501  0.849098852501818  0.8480638568101354  1.0000
  C   C80       1.0  0.40298340861000537  0.9010085428541641  0.9019704998709202  1.0000
  C   C81       1.0  0.3022026025085722  0.9218694164866149  0.8620603360836654  1.0000
  C   C82       1.0  0.44782846896246303  0.8282696472968355  0.8879638798968372  1.0000
  C   C83       1.0  0.33118411451220453  0.9463024165022629  0.8887788289347968  1.0000
  C   C84       1.0  0.4188241672479762  0.8038254170841695  0.8612544632709529  1.0000
  C   C85       1.0  0.4049846274365692  0.4502807965688191  0.8522907574455303  1.0000
  C   C86       1.0  0.34475604821932393  0.3001928930832348  0.8975138895519451  1.0000
  C   C87       1.0  0.33620189550882884  0.491085157016748  0.8362587191269527  1.0000
  C   C88       1.0  0.4135326167889133  0.2593487115998699  0.9135428161829324  1.0000
  C   C89       1.0  0.3415772930258997  0.36967023700609036  0.8751767613101649  1.0000
  C   C90       1.0  0.40823834038086204  0.3807378248796311  0.8745756398444442  1.0000
  C   C91       1.0  0.9466440840898187  0.7959319656358088  0.8486570690245402  1.0000
  C   C92       1.0  0.8037447715301269  0.9537345892853892  0.901083363515717  1.0000
  C   C93       1.0  0.9911567593089715  0.8363093719005547  0.8362878332077842  1.0000
  C   C94       1.0  0.7592231583716899  0.9133977246513892  0.9135198874576602  1.0000
  C   C95       1.0  0.8719558076042092  0.9110569003389062  0.8774780623206767  1.0000
  C   C96       1.0  0.8783910606489442  0.838563627209403  0.8722533226434663  1.0000
  S   S1        1.0  0.2993778717832641  0.3240900374224508  0.39701541555125164  1.0000
  S   S2        1.0  0.45000755056901914  0.42618124882839226  0.35324724744361896  1.0000
  S   S3        1.0  0.6592403858046723  0.6344181164574536  0.5616705358600314  1.0000
  S   S4        1.0  0.5914088412294802  0.6152863536728861  0.6880004307836244  1.0000
  S   S5        1.0  0.1348062129300942  0.15859811799158052  0.5619935784642536  1.0000
  S   S6        1.0  0.1156186676917486  0.0907394769192891  0.6883363364702291  1.0000
  S   S7        1.0  0.9746632911976576  0.804270755703449  0.40190132959259023  1.0000
  S   S8        1.0  0.7755928395984668  0.9450559944024518  0.3483726893919155  1.0000
  S   S9        1.0  0.6152433687401598  0.5913023891975014  0.187989529161932  1.0000
  S   S10       1.0  0.6344651429709529  0.6593555884580058  0.06166514887674166  1.0000
  S   S11       1.0  0.0130073926554175  0.18315454290220148  0.11046356328954232  1.0000
  S   S12       1.0  0.23639014132566422  0.06705470133601919  0.1397865092427892  1.0000
  S   S13       1.0  0.27534385298106656  0.44546799063326853  0.8481068976025411  1.0000
  S   S14       1.0  0.47445595739496577  0.3048980965785547  0.9016394762778221  1.0000
  S   S15       1.0  0.9505084155083452  0.9258930988402272  0.8531628062656296  1.0000
  S   S16       1.0  0.799831054576572  0.8237681288538353  0.8966719362705363  1.0000
  O   O1        1.0  0.0003392174860792004  0.49898733863285133  0.500336507128594  1.0000
  O   O2        1.0  0.07798646675772862  0.3153430824638122  0.5228047537992637  1.0000
  O   O3        1.0  0.0313281177577096  0.5312699443010372  0.5852807023832511  1.0000
  O   O4        1.0  0.1566804909959671  0.5055985440067515  0.4499514300852284  1.0000
  O   O5        1.0  0.0254929831522261  0.37371836728588903  0.5813227910657447  1.0000
  O   O6        1.0  0.1532512114661841  0.3918764507651175  0.4468439114137084  1.0000
  O   O7        1.0  0.0854532204816749  0.5859160587231146  0.5305280726700728  1.0000
  O   O8        1.0  0.004696004776206999  0.6565452960361283  0.45016758967270226  1.0000
  O   O9        1.0  0.8866986317063521  0.4970095795241887  0.4419161967541285  1.0000
  O   O10       1.0  0.8912642355877551  0.6530644821874743  0.44656217681023946  1.0000
  O   O11       1.0  0.9956486202245569  0.3877391904738804  0.4417558353987587  1.0000
  O   O12       1.0  0.8743369665566334  0.5255196887475433  0.5810422737772569  1.0000
  O   O13       1.0  0.8159641289413813  0.5776310768348623  0.5225264257791763  1.0000
  O   O14       1.0  0.749005779602328  0.2503680967338085  0.2503442673225393  1.0000
  O   O15       1.0  0.5959133951101167  0.35859664829471427  0.30319041073749986  1.0000
  O   O16       1.0  0.6649936783155895  0.16456505871618535  0.21871008875572778  1.0000
  O   O17       1.0  0.724384700048688  0.3760777975588141  0.16870250766123013  1.0000
  O   O18       1.0  0.5929825459458655  0.2444716123505728  0.3004446642233134  1.0000
  O   O19       1.0  0.672445825527902  0.4343952404661807  0.22721918938443508  1.0000
  O   O20       1.0  0.7196050511298681  0.21944074042292533  0.16432039158232206  1.0000
  O   O21       1.0  0.8756236448983331  0.22427893378768712  0.16931696337822905  1.0000
  O   O22       1.0  0.8632314120919419  0.25291365778841174  0.3081041838803317  1.0000
  O   O23       1.0  0.9342168401113967  0.17238086325371438  0.2277259383753217  1.0000
  O   O24       1.0  0.7543338376452766  0.36223685094942937  0.3082318816136578  1.0000
  O   O25       1.0  0.7453305553494474  0.09298966948151134  0.3001580930039154  1.0000
  O   O26       1.0  0.8590651275701404  0.0961206728555766  0.30349486455486385  1.0000
  O   O27       1.0  0.251024425555741  0.749639250168194  0.7496594933478775  1.0000
  O   O28       1.0  0.3763352923882266  0.7246711522828309  0.6687185634645657  1.0000
  O   O29       1.0  0.3622075870919303  0.7544084433873268  0.8082931124818202  1.0000
  O   O30       1.0  0.17252798218976306  0.9339478333562142  0.7274635544356655  1.0000
  O   O31       1.0  0.43471274214760314  0.6720215171844472  0.7272220668242753  1.0000
  O   O32       1.0  0.22462177448994683  0.8756480821257355  0.6689230907178967  1.0000
  O   O33       1.0  0.25288580967633584  0.8633080033876086  0.8081428737752674  1.0000
  O   O34       1.0  0.09696534995470071  0.8580386025447737  0.8034181506732382  1.0000
  O   O35       1.0  0.16436779354306452  0.664371589251985  0.7194197915483045  1.0000
  O   O36       1.0  0.09322957898286431  0.7447328282444658  0.7998007920546328  1.0000
  O   O37       1.0  0.2188559471685281  0.7186050053066638  0.664642565708526  1.0000
  O   O38       1.0  0.3587399596111069  0.5965752600147384  0.8032683297702193  1.0000
  O   O39       1.0  0.2450018450894476  0.5933169053899761  0.8000167359178362  1.0000
  O   O40       1.0  0.4996527422965685  0.0009939356818620478  0.9997002114490955  1.0000
  O   O41       1.0  0.5050011658555177  0.15678429663106644  0.9494900273157897  1.0000
  O   O42       1.0  0.3877618676480807  0.9956166920815122  0.9418118280508807  1.0000
  O   O43       1.0  0.6536382582382032  0.891563158963663  0.9466402880903148  1.0000
  O   O44       1.0  0.39068618719137055  0.1541903133853779  0.9468320986303526  1.0000
  O   O45       1.0  0.6569646060387555  0.005295924579861824  0.9497614267028638  1.0000
  O   O46       1.0  0.4971253453459924  0.8867315079295395  0.941924835686777  1.0000
  O   O47       1.0  0.5773152485144379  0.8162863597436923  0.022506638222545  1.0000
  O   O48       1.0  0.5302784003855477  0.030703033632313758  0.08569582386189717  1.0000
  O   O49       1.0  0.5256980140945019  0.8745883783952664  0.0810312117242518  1.0000
  O   O50       1.0  0.585311318135588  0.08517296127867985  0.0313089011469927  1.0000
  O   O51       1.0  0.3151479312525964  0.07812454138205992  0.0225068333517129  1.0000
  O   O52       1.0  0.3737526580705293  0.025880756186637637  0.08091932494716757  1.0000
  O   O53       1.0  0.7813041881879741  0.5176515880876165  0.39932847956617934  1.0000
  O   O54       1.0  0.9687657211291948  0.23236975734005247  0.35056307001416076  1.0000
  O   O55       1.0  0.1597491423204787  0.6597169918050483  0.541480620320165  1.0000
  O   O56       1.0  0.0902402046320461  0.5903481659918058  0.7084835886814745  1.0000
  O   O57       1.0  0.7085263979625298  0.20853107146037086  0.09029774262995008  1.0000
  O   O58       1.0  0.5415042347326987  0.041433190044735155  0.15973425318546217  1.0000
  O   O59       1.0  0.23237910932058276  0.9689017443021298  0.8506860957891149  1.0000
  O   O60       1.0  0.5176235809886053  0.7811813632529052  0.8993457522224589  1.0000
