data_image0
_chemical_formula_structural       Ag2H14C12S2N4O8F6
_chemical_formula_sum              "Ag2 H14 C12 S2 N4 O8 F6"
_cell_length_a       6.036165619261758
_cell_length_b       9.589804547507812
_cell_length_c       10.657134022323872
_cell_angle_alpha    115.68364626258519
_cell_angle_beta     97.16792291625146
_cell_angle_gamma    91.9067703547144

_space_group_name_H-M_alt    "P 1"
_space_group_IT_number       1

loop_
  _space_group_symop_operation_xyz
  'x, y, z'

loop_
  _atom_site_type_symbol
  _atom_site_label
  _atom_site_symmetry_multiplicity
  _atom_site_fract_x
  _atom_site_fract_y
  _atom_site_fract_z
  _atom_site_occupancy
  Ag  Ag1       1.0  0.7833579538267016  0.7479994482228632  0.5608863091715223  1.0000
  Ag  Ag2       1.0  0.2166490760120325  0.2519981628956032  0.4391167821815075  1.0000
  H   H1        1.0  0.20911014771827752  0.4656753258089665  0.1611883607730107  1.0000
  H   H2        1.0  0.7908896551096093  0.5343175031747266  0.838816070508145  1.0000
  H   H3        1.0  0.19945231332627603  0.15576930845671907  0.09899737760724041  1.0000
  H   H4        1.0  0.8005598683102804  0.8442295420181549  0.9010056328860971  1.0000
  H   H5        1.0  0.8653882729214929  0.10240270068761248  0.22824624007454739  1.0000
  H   H6        1.0  0.1346201719888569  0.8975926524628761  0.7717522997074513  1.0000
  H   H7        1.0  0.5866810194014961  0.26865937144400925  0.38421470447528355  1.0000
  H   H8        1.0  0.41331726898765453  0.7313347552088983  0.6157769984778412  1.0000
  H   H9        1.0  0.927652761370162  0.5815591971624697  0.31552175351255585  1.0000
  H   H10       1.0  0.07234772545279358  0.4184395785258132  0.6844738310475336  1.0000
  H   H11       1.0  0.8969176701408231  0.862534513117282  0.36860997932021183  1.0000
  H   H12       1.0  0.10308435680942547  0.13746312208757416  0.6313852605578207  1.0000
  H   H13       1.0  0.1374473868321076  0.811272854092948  0.4048705406149722  1.0000
  H   H14       1.0  0.8625543716578222  0.18872243386723397  0.5951256233494748  1.0000
  C   C1        1.0  0.10540855896053358  0.3974991792780571  0.19444997122203495  1.0000
  C   C2        1.0  0.8946012117373313  0.6025078090478144  0.8055523522058368  1.0000
  C   C3        1.0  0.0989146923361375  0.24076549133815206  0.1653866676849134  1.0000
  C   C4        1.0  0.9010917223072424  0.7592413857996687  0.8346210043392192  1.0000
  C   C5        1.0  0.9315482121628949  0.2132303878106256  0.2362810204359605  1.0000
  C   C6        1.0  0.0684435001823331  0.7867647013160807  0.7637199838800585  1.0000
  C   C7        1.0  0.8390715817793718  0.3560557901721708  0.3070511547915801  1.0000
  C   C8        1.0  0.16093119459638672  0.6439337526356753  0.692939042372146  1.0000
  C   C9        1.0  0.6643559698556275  0.3769668389808415  0.38927572543050115  1.0000
  C   C10       1.0  0.3356547010119825  0.623033331618366  0.6107126891619361  1.0000
  C   C11       1.0  0.540067202802952  0.24344991195524554  0.8969917309861088  1.0000
  C   C12       1.0  0.45993072233708426  0.7565557269136746  0.10301203262962835  1.0000
  S   S1        1.0  0.5343499079093165  0.10796177976529717  0.7072862826529376  1.0000
  S   S2        1.0  0.46564514397632445  0.8920333195014507  0.2927177771447306  1.0000
  N   N1        1.0  0.5908682467533879  0.5084693882393905  0.4691210728191351  1.0000
  N   N2        1.0  0.4091300810771301  0.4915397714965478  0.5308813046669841  1.0000
  N   N3        1.0  0.9500780593665114  0.46477239361811934  0.27863706570165203  1.0000
  N   N4        1.0  0.049930920629577685  0.5352276427941688  0.7213605596939702  1.0000
  O   O1        1.0  0.7174464647312037  0.013450035562101397  0.7115165700364374  1.0000
  O   O2        1.0  0.282546032811112  0.9865519717955064  0.28849193367113185  1.0000
  O   O3        1.0  0.30891422516684497  0.0259445996503729  0.6658718745821661  1.0000
  O   O4        1.0  0.6910848447495966  0.9740564227783322  0.33412919533538604  1.0000
  O   O5        1.0  0.5733551277203048  0.21032148897605646  0.6410404495564493  1.0000
  O   O6        1.0  0.42664225866420225  0.7896794441759526  0.35896609601854135  1.0000
  O   O7        1.0  0.9742177947499044  0.7876073245505067  0.3952322116849913  1.0000
  O   O8        1.0  0.025780887155235594  0.21239026683164036  0.6047627740707002  1.0000
  F   F1        1.0  0.3655955478676489  0.33238052487966735  0.9132130468083732  1.0000
  F   F2        1.0  0.6343993043573947  0.6676274398663367  0.08678767102573914  1.0000
  F   F3        1.0  0.7332128695584431  0.3387651069851144  0.9497954481658372  1.0000
  F   F4        1.0  0.2667798496632372  0.6612241696239207  0.05020519206806978  1.0000
  F   F5        1.0  0.5230199958891079  0.16215025882397777  0.9732614097257511  1.0000
  F   F6        1.0  0.4769465558477819  0.8378584958237595  0.026737619811655094  1.0000
