data_image0
_chemical_formula_structural       Cu4H32C48N20
_chemical_formula_sum              "Cu4 H32 C48 N20"
_cell_length_a       7.966484502604948
_cell_length_b       10.224182671014209
_cell_length_c       13.115805389906615
_cell_angle_alpha    90.00002190219956
_cell_angle_beta     106.06491169332192
_cell_angle_gamma    90.00017756544463

_space_group_name_H-M_alt    "P 1"
_space_group_IT_number       1

loop_
  _space_group_symop_operation_xyz
  'x, y, z'

loop_
  _atom_site_type_symbol
  _atom_site_label
  _atom_site_symmetry_multiplicity
  _atom_site_fract_x
  _atom_site_fract_y
  _atom_site_fract_z
  _atom_site_occupancy
  Cu  Cu1       1.0  0.09544708682670938  0.5070529648904554  0.3925122586706706  1.0000
  Cu  Cu2       1.0  0.4045521914929323  0.0070514485021533  0.10748871047191237  1.0000
  Cu  Cu3       1.0  0.9045513942501839  0.4929482281614099  0.6074873752550188  1.0000
  Cu  Cu4       1.0  0.5954476002444619  0.9929487664782498  0.8925119036189811  1.0000
  H   H1        1.0  0.47058873237617843  0.9416759244328928  0.33445495662344626  1.0000
  H   H2        1.0  0.029404616947303494  0.4416774339269125  0.16554287827145228  1.0000
  H   H3        1.0  0.529411059361216  0.05832429054751033  0.6655456574674403  1.0000
  H   H4        1.0  0.9705886302807513  0.5583247371913059  0.834454361340093  1.0000
  H   H5        1.0  0.376489267931909  0.029869953705414797  0.4861910725232832  1.0000
  H   H6        1.0  0.12350095424912406  0.5298733156127255  0.013806112161688599  1.0000
  H   H7        1.0  0.623507902480149  0.9701302612713291  0.5138075812361861  1.0000
  H   H8        1.0  0.8764962073697614  0.4701298335835205  0.986191015251137  1.0000
  H   H9        1.0  0.04115800275540948  0.2975798913870591  0.2716130044790148  1.0000
  H   H10       1.0  0.4588477720332093  0.797575368928378  0.22838684874009366  1.0000
  H   H11       1.0  0.95883786578932  0.702418367441645  0.7283861954619012  1.0000
  H   H12       1.0  0.5411572491467067  0.20242093376561604  0.7716153964893094  1.0000
  H   H13       1.0  0.14123747617470878  0.1952363453497838  0.12419054504908895  1.0000
  H   H14       1.0  0.3587678416787696  0.6952306706971143  0.3758084373300575  1.0000
  H   H15       1.0  0.8587610049000246  0.8047638696287862  0.8758090888760888  1.0000
  H   H16       1.0  0.641234558169323  0.30476269777334863  0.6241918475663795  1.0000
  H   H17       1.0  0.3037640747194316  0.3445022356191529  0.0019718971440667895  1.0000
  H   H18       1.0  0.19623798435206646  0.8444952447371893  0.4980265912870294  1.0000
  H   H19       1.0  0.6962370144876217  0.6555009135823938  0.9980274075918059  1.0000
  H   H20       1.0  0.8037618073853278  0.1555049702432143  0.5019740228038572  1.0000
  H   H21       1.0  0.2708459841767449  0.4140893684937481  0.816537267347023  1.0000
  H   H22       1.0  0.22914686646556953  0.9140842652695369  0.6834588755812163  1.0000
  H   H23       1.0  0.7291472674511394  0.5859128026246551  0.18346073543861507  1.0000
  H   H24       1.0  0.7708542315260087  0.0859120374193409  0.31654195549923253  1.0000
  H   H25       1.0  0.019638114220867895  0.04315963309782941  0.715336140337463  1.0000
  H   H26       1.0  0.48037269904125407  0.5431630142507231  0.784664393600181  1.0000
  H   H27       1.0  0.9803655919008702  0.9568386257407301  0.28466436155316893  1.0000
  H   H28       1.0  0.519631002678487  0.45683426651435616  0.21533534511583943  1.0000
  H   H29       1.0  0.054056014037321576  0.9922145553234786  0.9061642035198217  1.0000
  H   H30       1.0  0.44595418107785173  0.4922141113982618  0.5938378951858709  1.0000
  H   H31       1.0  0.945947692090911  0.0077866377349594005  0.09383629837234506  1.0000
  H   H32       1.0  0.5540482055815584  0.5077841474380947  0.4061601001908598  1.0000
  C   C1        1.0  0.1700210862149305  0.23431244972130835  0.4845892154032326  1.0000
  C   C2        1.0  0.32997526939374205  0.7343124030546947  0.015409815493725904  1.0000
  C   C3        1.0  0.8299773992617928  0.7656887433307418  0.5154111816965566  1.0000
  C   C4        1.0  0.6700258242044939  0.26568683385387704  0.9845902524141791  1.0000
  C   C5        1.0  0.14208194109567523  0.258568669851087  0.6391591735096256  1.0000
  C   C6        1.0  0.35791546014065984  0.7585678764239034  0.8608399633020838  1.0000
  C   C7        1.0  0.8579165399790509  0.7414315451274902  0.3608404604155524  1.0000
  C   C8        1.0  0.6420856334554087  0.241430382411366  0.13916010460530254  1.0000
  C   C9        1.0  0.37306421375342314  0.019085674611510207  0.32196139155577436  1.0000
  C   C10       1.0  0.12693250084594607  0.5190842321200506  0.17803839308790967  1.0000
  C   C11       1.0  0.6269368842489697  0.9809155184438227  0.6780394395272537  1.0000
  C   C12       1.0  0.8730633633054408  0.4809169609283399  0.8219600436804554  1.0000
  C   C13       1.0  0.32411627221146927  0.06983198978559102  0.40713052126969257  1.0000
  C   C14       1.0  0.17587673919152988  0.5698335604943027  0.09286713943757967  1.0000
  C   C15       1.0  0.6758822044655941  0.9301692032660893  0.5928683494819111  1.0000
  C   C16       1.0  0.8241204356246853  0.4301686106292168  0.9071322774970054  1.0000
  C   C17       1.0  0.20899464153065841  0.1761073339180186  0.3928271185060197  1.0000
  C   C18       1.0  0.2910014523123292  0.6761072356789484  0.10717108798512237  1.0000
  C   C19       1.0  0.7910025288835668  0.8238938591320207  0.6071715352539613  1.0000
  C   C20       1.0  0.7089983350252351  0.323892979301263  0.8928287629316782  1.0000
  C   C21       1.0  0.139009366422357  0.2203493912863621  0.28844029886329986  1.0000
  C   C22       1.0  0.36099214369137655  0.7203465786511672  0.2115580589613799  1.0000
  C   C23       1.0  0.8609878083873778  0.7796498456172786  0.7115591180697434  1.0000
  C   C24       1.0  0.6390102605652004  0.2796507021126402  0.7884429891112034  1.0000
  C   C25       1.0  0.1919704517190155  0.16353218083759907  0.206482852420919  1.0000
  C   C26       1.0  0.3080321134285242  0.6635292779245888  0.2935156626237116  1.0000
  C   C27       1.0  0.8080280293557177  0.836468034140978  0.7935167815042589  1.0000
  C   C28       1.0  0.691970282028393  0.33646800283884915  0.7064838591006859  1.0000
  C   C29       1.0  0.2390054180594062  0.2800864705610309  0.9364061095379907  1.0000
  C   C30       1.0  0.2609986052292754  0.7800823663371759  0.5635933716926829  1.0000
  C   C31       1.0  0.7609956843449833  0.7199157005677819  0.06359548471963446  1.0000
  C   C32       1.0  0.7390024839691235  0.21991687057120396  0.4364059330411293  1.0000
  C   C33       1.0  0.22231201631650777  0.3188288867901293  0.8323188528416807  1.0000
  C   C34       1.0  0.2776882726973112  0.8188278066391065  0.6676823076949603  1.0000
  C   C35       1.0  0.7776890728818909  0.6811703501182507  0.1676804518921314  1.0000
  C   C36       1.0  0.722311519037923  0.1811714302680016  0.33231830639541465  1.0000
  C   C37       1.0  0.14690733851270468  0.23166777405030806  0.7497670549153952  1.0000
  C   C38       1.0  0.35309385816439226  0.7316669165992665  0.7502319413973452  1.0000
  C   C39       1.0  0.853095070150189  0.7683324409335626  0.2502347563328228  1.0000
  C   C40       1.0  0.6469085372990121  0.2683332983840503  0.2497675803286015  1.0000
  C   C41       1.0  0.08348211838040949  0.1124875164737347  0.7769171125002856  1.0000
  C   C42       1.0  0.4165224745099535  0.6124887568456217  0.7230831725850563  1.0000
  C   C43       1.0  0.9165202770829874  0.8875126985095818  0.22308240922566103  1.0000
  C   C44       1.0  0.5834799121516168  0.3875104800640302  0.27691482279219304  1.0000
  C   C45       1.0  0.10237150282602406  0.08432198801530431  0.8832028354294221  1.0000
  C   C46       1.0  0.3976316592595308  0.5843221540665979  0.6167972030336414  1.0000
  C   C47       1.0  0.8976309014370397  0.9156782269683817  0.11679821264470283  1.0000
  C   C48       1.0  0.6023681236782037  0.4156780609134357  0.38320188470906646  1.0000
  N   N1        1.0  0.11622586049395517  0.35936394607404765  0.48951647331406173  1.0000
  N   N2        1.0  0.38377235432056966  0.8593650061990203  0.010482906129091392  1.0000
  N   N3        1.0  0.8837726249827608  0.6406372469780026  0.5104839237857277  1.0000
  N   N4        1.0  0.616228739279826  0.14063520878283955  0.9895171617793252  1.0000
  N   N5        1.0  0.09629706715052316  0.37482826220530546  0.5893431947893574  1.0000
  N   N6        1.0  0.40370085255349847  0.8748285819270054  0.9106568275019596  1.0000
  N   N7        1.0  0.9037001120590415  0.6251709746985199  0.4106569853177787  1.0000
  N   N8        1.0  0.5963015517095654  0.12517163305668083  0.08934422057217262  1.0000
  N   N9        1.0  0.18876039669231656  0.1685527146540338  0.5768553575571076  1.0000
  N   N10       1.0  0.31123791278284324  0.6685518369648663  0.9231439015495295  1.0000
  N   N11       1.0  0.8112393906474081  0.8314484783994727  0.4231444933602048  1.0000
  N   N12       1.0  0.688765797743052  0.3314483780204611  0.07685736351621837  1.0000
  N   N13       1.0  0.310499378082035  0.06477920269782092  0.22144680687312499  1.0000
  N   N14       1.0  0.18950014668898513  0.5647789381939745  0.2785526966498537  1.0000
  N   N15       1.0  0.6895004092533624  0.9352200342091026  0.7785530440431642  1.0000
  N   N16       1.0  0.8104983299815842  0.4352193206378275  0.7214461741002083  1.0000
  N   N17       1.0  0.1822980922756229  0.16452215800637052  0.9630488782266082  1.0000
  N   N18       1.0  0.31770412696108946  0.6645191574010029  0.5369525539618181  1.0000
  N   N19       1.0  0.8177016994596115  0.8354770789007374  0.03695173586376646  1.0000
  N   N20       1.0  0.6822982728978173  0.3354791014359151  0.4630477309371912  1.0000
