data_image0
_chemical_formula_structural       Mn2H32C32N12O12
_chemical_formula_sum              "Mn2 H32 C32 N12 O12"
_cell_length_a       6.935217515034955
_cell_length_b       7.905666221522798
_cell_length_c       16.107810041542038
_cell_angle_alpha    90.31998164201615
_cell_angle_beta     90.000324741317
_cell_angle_gamma    89.99982512385675

_space_group_name_H-M_alt    "P 1"
_space_group_IT_number       1

loop_
  _space_group_symop_operation_xyz
  'x, y, z'

loop_
  _atom_site_type_symbol
  _atom_site_label
  _atom_site_symmetry_multiplicity
  _atom_site_fract_x
  _atom_site_fract_y
  _atom_site_fract_z
  _atom_site_occupancy
  Mn  Mn1       1.0  0.5000011443789987  0.4999988857812242  0.5000000737488718  1.0000
  Mn  Mn2       1.0  1.8648335284999993e-06  1.0156639996425747e-09  0.5000005708466373  1.0000
  H   H1        1.0  0.6893869186415316  0.63541716210451  0.35236362424021184  1.0000
  H   H2        1.0  0.1893839542110882  0.864581566185443  0.6476377592105962  1.0000
  H   H3        1.0  0.3106168120359811  0.36458314552280774  0.6476377687957466  1.0000
  H   H4        1.0  0.8106183345532757  0.1354149435474454  0.3523630071659056  1.0000
  H   H5        1.0  0.6622330657430454  0.7571377100645976  0.4317820965123289  1.0000
  H   H6        1.0  0.16222804693234139  0.742859819660197  0.5682185984118249  1.0000
  H   H7        1.0  0.3377692230145329  0.24286259446266467  0.5682186756983894  1.0000
  H   H8        1.0  0.8377727999184472  0.2571354251430833  0.4317821660181877  1.0000
  H   H9        1.0  0.7757176292613437  0.0035680696902317998  0.6657146892756314  1.0000
  H   H10       1.0  0.27572158100184657  0.496425033421403  0.3342828902804839  1.0000
  H   H11       1.0  0.22427600798619102  0.9964360234386477  0.3342848471118457  1.0000
  H   H12       1.0  0.7242850335082097  0.5035702082725921  0.6657172533330209  1.0000
  H   H13       1.0  0.5453337619344084  0.0777351445874359  0.6372316634719295  1.0000
  H   H14       1.0  0.04533403155792119  0.42226741793160744  0.36276847591148703  1.0000
  H   H15       1.0  0.4546584333854114  0.9222664062727547  0.3627653857303557  1.0000
  H   H16       1.0  0.95466825720559  0.577734157730916  0.6372335398909568  1.0000
  H   H17       1.0  0.9536492379339875  0.828214175702847  0.7681625320789249  1.0000
  H   H18       1.0  0.453644351322133  0.671787658934747  0.23183701384893138  1.0000
  H   H19       1.0  0.0463415154658833  0.17178737205728115  0.23183389629812004  1.0000
  H   H20       1.0  0.5463637051029054  0.32821264868704253  0.7681643791922639  1.0000
  H   H21       1.0  0.026905095928761107  0.6781336448099043  0.8972720431455838  1.0000
  H   H22       1.0  0.5269026456086864  0.8218680321087178  0.1027295715519045  1.0000
  H   H23       1.0  0.9730885413064743  0.3218704390132601  0.1027256307714168  1.0000
  H   H24       1.0  0.47309820123261664  0.17813480538520576  0.8972718253700405  1.0000
  H   H25       1.0  0.7683995853300943  0.577859752517192  0.9914366631847782  1.0000
  H   H26       1.0  0.26839517033453575  0.9221412910980008  0.0085624321973015  1.0000
  H   H27       1.0  0.2315969357499768  0.42213927467836504  0.008561623780245496  1.0000
  H   H28       1.0  0.731608560348917  0.0778602876645849  0.9914402044303825  1.0000
  H   H29       1.0  0.4207288536163958  0.6244688935663164  0.9572840259211971  1.0000
  H   H30       1.0  0.9207268583044765  0.8755317541499466  0.04271419669824889  1.0000
  H   H31       1.0  0.5792662255314339  0.37553012122346274  0.0427117777481172  1.0000
  H   H32       1.0  0.0792768723835025  0.12446729474972781  0.9572884360399526  1.0000
  C   C1        1.0  0.6264671565483725  0.843215970309281  0.5781693503093734  1.0000
  C   C2        1.0  0.1264907915080684  0.6567639573451346  0.4218343349296632  1.0000
  C   C3        1.0  0.3735336902915165  0.1567830661864562  0.42183079913137067  1.0000
  C   C4        1.0  0.8735172649192364  0.3432350853451995  0.5781670561667978  1.0000
  C   C5        1.0  0.627347002794757  0.9632073739769424  0.6527856485961365  1.0000
  C   C6        1.0  0.1273470118660072  0.5367927655448952  0.3472131032728214  1.0000
  C   C7        1.0  0.3726480763649462  0.036794183083372914  0.3472126422566219  1.0000
  C   C8        1.0  0.8726581607318736  0.4632050122176708  0.6527882858754026  1.0000
  C   C9        1.0  0.6418754864583532  0.8101128467479628  0.7897946897596029  1.0000
  C   C10       1.0  0.14186592283268604  0.6898847226542274  0.2102034725670521  1.0000
  C   C11       1.0  0.35811526694972434  0.1898887072159782  0.21020298026442666  1.0000
  C   C12       1.0  0.8581392497584092  0.31011684990270544  0.7897979224153886  1.0000
  C   C13       1.0  0.8372379458587533  0.7843820708644886  0.8078720994892805  1.0000
  C   C14       1.0  0.3372367020313689  0.7156175317114162  0.19212716065126753  1.0000
  C   C15       1.0  0.16275857520180642  0.21562327478454088  0.1921249555524653  1.0000
  C   C16       1.0  0.6627684705660853  0.2843827790159637  0.8078748532099309  1.0000
  C   C17       1.0  0.8764572514248884  0.6996248399761102  0.8810698425241836  1.0000
  C   C18       1.0  0.37645040866902246  0.8003759272067371  0.11892951452801268  1.0000
  C   C19       1.0  0.1235363858208132  0.3003779851194112  0.11892907109506719  1.0000
  C   C20       1.0  0.6235547639343794  0.199625654655911  0.8810737429249044  1.0000
  C   C21       1.0  0.7281004279158838  0.6429136851541984  0.9345187759614075  1.0000
  C   C22       1.0  0.2281013256078168  0.8570874584464651  0.06547960101494248  1.0000
  C   C23       1.0  0.27189753507367  0.357086603869064  0.06547889212661319  1.0000
  C   C24       1.0  0.7719009631493279  0.14291537904561116  0.9345217959087504  1.0000
  C   C25       1.0  0.5348244207210229  0.6681010552151889  0.9162909160030421  1.0000
  C   C26       1.0  0.034815556735303205  0.8318993179093539  0.0837069909784702  1.0000
  C   C27       1.0  0.46516921653372373  0.3318967101545028  0.08370798983724367  1.0000
  C   C28       1.0  0.9651867320277816  0.1681047907179831  0.9162956495369414  1.0000
  C   C29       1.0  0.4917350067783701  0.7533450147584804  0.84227940241918  1.0000
  C   C30       1.0  0.9917335544784862  0.7466529245466094  0.1577196090838342  1.0000
  C   C31       1.0  0.5082600723672002  0.24665526496275453  0.1577164031948683  1.0000
  C   C32       1.0  0.0082730600384906  0.25334992224564706  0.8422836503155648  1.0000
  N   N1        1.0  0.547547675733057  0.8885060581177912  0.7264165185240258  1.0000
  N   N2        1.0  0.04755076781734151  0.6114930113072887  0.2735801756909523  1.0000
  N   N3        1.0  0.4524459615167373  0.11149677007963281  0.27358301591871026  1.0000
  N   N4        1.0  0.9524544047823797  0.38850603448863563  0.7264218362255049  1.0000
  N   N5        1.0  0.3536475809475448  0.8778948724026279  0.7380608075277095  1.0000
  N   N6        1.0  0.8536479553263306  0.6221021521249951  0.26193724681598946  1.0000
  N   N7        1.0  0.6463460562944834  0.12210541662616954  0.2619368605550676  1.0000
  N   N8        1.0  0.1463572172692906  0.3778968905690192  0.7380641442769755  1.0000
  N   N9        1.0  0.3178829008969118  0.7982289304097068  0.8071844040022993  1.0000
  N   N10       1.0  0.817880632394939  0.7017694567505404  0.19281480732197304  1.0000
  N   N11       1.0  0.6821107363478022  0.20176756072281424  0.19281263742276875  1.0000
  N   N12       1.0  0.1821245402020892  0.2982333869416537  0.8071878312521932  1.0000
  O   O1        1.0  0.5434260868307988  0.7019719965801273  0.5859395510106324  1.0000
  O   O2        1.0  0.043430365724376  0.7980473160868515  0.4140559226937625  1.0000
  O   O3        1.0  0.45657620192493914  0.2980270399137694  0.4140605984318526  1.0000
  O   O4        1.0  0.956577690702929  0.20195172660348254  0.5859454684026915  1.0000
  O   O5        1.0  0.7083602353891794  0.8962788835296751  0.5122567580391503  1.0000
  O   O6        1.0  0.20835321085759523  0.6037273485933881  0.4877372331391569  1.0000
  O   O7        1.0  0.29164349527830075  0.10372014986047162  0.4877427705815904  1.0000
  O   O8        1.0  0.7916505198226105  0.39626916113765287  0.5122635332390857  1.0000
  O   O9        1.0  0.5988680145435552  0.6662630113785543  0.398056634340115  1.0000
  O   O10       1.0  0.09886167290378718  0.8337384876517648  0.6019463962654611  1.0000
  O   O11       1.0  0.40113571613212434  0.33373602821540527  0.6019441359276099  1.0000
  O   O12       1.0  0.9011391739383683  0.16625928391252393  0.3980537512305417  1.0000
