data_image0
_chemical_formula_structural       Zn16H32C96S16O56
_chemical_formula_sum              "Zn16 H32 C96 S16 O56"
_cell_length_a       19.66510873025509
_cell_length_b       19.67032231824553
_cell_length_c       33.37187508557155
_cell_angle_alpha    79.1628736322328
_cell_angle_beta     79.180803391087
_cell_angle_gamma    63.94056857723049

_space_group_name_H-M_alt    "P 1"
_space_group_IT_number       1

loop_
  _space_group_symop_operation_xyz
  'x, y, z'

loop_
  _atom_site_type_symbol
  _atom_site_label
  _atom_site_symmetry_multiplicity
  _atom_site_fract_x
  _atom_site_fract_y
  _atom_site_fract_z
  _atom_site_occupancy
  Zn  Zn1       1.0  0.055949026010267716  0.4001943245739881  0.4784186188141248  1.0000
  Zn  Zn2       1.0  0.9831442348456109  0.4825246946903688  0.5606955142929166  1.0000
  Zn  Zn3       1.0  0.05981716943156812  0.559355058833745  0.4822865100994633  1.0000
  Zn  Zn4       1.0  0.9016561698563237  0.5561126811006716  0.4791920461207795  1.0000
  Zn  Zn5       1.0  0.694426897186041  0.34983959010993715  0.2720949162193945  1.0000
  Zn  Zn6       1.0  0.689916047497455  0.1899149337756329  0.26706581365225895  1.0000
  Zn  Zn7       1.0  0.7676651967318265  0.2678629957741662  0.1908334072538054  1.0000
  Zn  Zn8       1.0  0.8493567950198442  0.19528205672141727  0.2723020961202566  1.0000
  Zn  Zn9       1.0  0.2667817156550711  0.7662733635406128  0.68918922290095  1.0000
  Zn  Zn10      1.0  0.3487675638387273  0.6941354504746043  0.7715920223897896  1.0000
  Zn  Zn11      1.0  0.1938646980590519  0.8472877584054784  0.7708789637718354  1.0000
  Zn  Zn12      1.0  0.1893214284474567  0.6888163678103254  0.7663900690078692  1.0000
  Zn  Zn13      1.0  0.5603982793850975  0.06044653311589332  0.9833837830972455  1.0000
  Zn  Zn14      1.0  0.4011355426880315  0.054998060909952046  0.9781106663061365  1.0000
  Zn  Zn15      1.0  0.5544925589540101  0.9014225266289273  0.9779265018931936  1.0000
  Zn  Zn16      1.0  0.48373086923633934  0.9838976633654328  0.06032276446847356  1.0000
  H   H1        1.0  0.9539006553696371  0.2486317309898637  0.3512906145433661  1.0000
  H   H2        1.0  0.7467446375700603  0.45558531621071574  0.3511155704461189  1.0000
  H   H3        1.0  0.0009609303542248001  0.29768675642101533  0.3994098210185868  1.0000
  H   H4        1.0  0.09745737861496911  0.5973509543107411  0.7000483418095413  1.0000
  H   H5        1.0  0.20109156349619892  0.7010811448019469  0.5966540144338096  1.0000
  H   H6        1.0  0.0498484059012654  0.5498186546069731  0.6514212188225343  1.0000
  H   H7        1.0  0.2862187583165863  0.5106966865545742  0.40923767201662287  1.0000
  H   H8        1.0  0.4639581526626274  0.23917741429153244  0.3406710945963951  1.0000
  H   H9        1.0  0.7715625656916317  0.5470155880451841  0.6485355405475488  1.0000
  H   H10       1.0  0.4783417575122186  0.7029845404449093  0.6015199306732271  1.0000
  H   H11       1.0  0.04716135796810051  0.27130520394133123  0.6485809220866656  1.0000
  H   H12       1.0  0.203135969070189  0.978138238235097  0.6016094239175658  1.0000
  H   H13       1.0  0.8006970822988962  0.7792621031709572  0.40220252139303614  1.0000
  H   H14       1.0  0.9493804432902097  0.970906272681333  0.34779117789654634  1.0000
  H   H15       1.0  0.5498949969493552  0.04990994533031312  0.1526227731854775  1.0000
  H   H16       1.0  0.6533267861122667  0.15343246187064363  0.04900949914399891  1.0000
  H   H17       1.0  0.5985288039885007  0.09839719281604424  0.200213932163642  1.0000
  H   H18       1.0  0.7028427579907159  0.4786940293976373  0.10144776413177674  1.0000
  H   H19       1.0  0.5469699221043242  0.7719674544447204  0.14832918344222176  1.0000
  H   H20       1.0  0.0869746794885771  0.10845967698875116  0.21010101543233617  1.0000
  H   H21       1.0  0.16344842243410804  0.14117492954626704  0.04000553526413599  1.0000
  H   H22       1.0  0.5014009592195806  0.7959700493300942  0.8987667087725201  1.0000
  H   H23       1.0  0.29453939203246193  0.0031857690264586614  0.8987765352049024  1.0000
  H   H24       1.0  0.4523358328665807  0.7490001613163882  0.8506382014737214  1.0000
  H   H25       1.0  0.44895384300814817  0.47096360052316294  0.8477462662865065  1.0000
  H   H26       1.0  0.30083733926432643  0.27885493718190446  0.9023185706902056  1.0000
  H   H27       1.0  0.9637816307966389  0.7390181670150682  0.8407421395330416  1.0000
  H   H28       1.0  0.7859660045922325  0.010554553978046662  0.9093580545085302  1.0000
  H   H29       1.0  0.810071519673862  0.5275598939894265  0.4188660989679036  1.0000
  H   H30       1.0  0.1354518652998564  0.6356282937881944  0.5267618071348251  1.0000
  H   H31       1.0  0.7233077014965518  0.2231421762778965  0.11457966161652418  1.0000
  H   H32       1.0  0.2223791733980676  0.9398789773744411  0.831113671538823  1.0000
  C   C1        1.0  0.06140044296539322  0.3155574620390311  0.5617989955564227  1.0000
  C   C2        1.0  0.06939217443215989  0.5695559426481438  0.5695861682147125  1.0000
  C   C3        1.0  0.18439902152943694  0.438868373143208  0.43850106733355426  1.0000
  C   C4        1.0  0.9380389254535189  0.6843660666641828  0.43854370399282766  1.0000
  C   C5        1.0  0.9306277249826496  0.4302841762011837  0.4304890228745819  1.0000
  C   C6        1.0  0.8158258614715237  0.5613471115131716  0.561770108625808  1.0000
  C   C7        1.0  0.5657121642085344  0.3111548602068551  0.3113893573282525  1.0000
  C   C8        1.0  0.6804994117942442  0.1803603484397698  0.18068125650650296  1.0000
  C   C9        1.0  0.6886470000506791  0.43440101619273014  0.18836156496647047  1.0000
  C   C10       1.0  0.9346149620472204  0.18846578368353326  0.1889588215168061  1.0000
  C   C11       1.0  0.8188972690349416  0.3206362602295131  0.31975545052713966  1.0000
  C   C12       1.0  0.812052636618546  0.06596798724201841  0.3114881236701804  1.0000
  C   C13       1.0  0.4339621507430849  0.6889279683613835  0.6883106967916391  1.0000
  C   C14       1.0  0.3197099021000511  0.8192841673178323  0.8194078104964573  1.0000
  C   C15       1.0  0.1889658424503651  0.9336914563611248  0.6883474413887214  1.0000
  C   C16       1.0  0.0655210135605415  0.8108240823722925  0.8112719449480607  1.0000
  C   C17       1.0  0.1806930521574017  0.680705489333839  0.6797827107896451  1.0000
  C   C18       1.0  0.3115947925339242  0.5655528920601753  0.8113299414823132  1.0000
  C   C19       1.0  0.4382207061992318  0.18406233934943825  0.9386206629009948  1.0000
  C   C20       1.0  0.42946456266727756  0.9311580885118079  0.9302935345655284  1.0000
  C   C21       1.0  0.6838844669519304  0.9389130623879609  0.9385533579732127  1.0000
  C   C22       1.0  0.5611400532397397  0.8164296465635347  0.06145944310532767  1.0000
  C   C23       1.0  0.5700675600824782  0.07017207096754419  0.0692752629578095  1.0000
  C   C24       1.0  0.3159144785182164  0.06168873309340482  0.06128846741753341  1.0000
  C   C25       1.0  0.900971440356301  0.40342121201672404  0.40220475187244625  1.0000
  C   C26       1.0  0.8475801285138829  0.3493558163788038  0.3484541538961352  1.0000
  C   C27       1.0  0.828239450654273  0.4486890901778082  0.3884278520702367  1.0000
  C   C28       1.0  0.9196817192667339  0.30417588426643505  0.3619500069413917  1.0000
  C   C29       1.0  0.8024627209372213  0.42070494608099557  0.36153879611013207  1.0000
  C   C30       1.0  0.9454657224578754  0.3314292843513086  0.388471336497595  1.0000
  C   C31       1.0  0.09839693434333441  0.5984851382321993  0.5971613789782779  1.0000
  C   C32       1.0  0.15198450566708033  0.6520023129241467  0.6510898086348788  1.0000
  C   C33       1.0  0.1416849924068515  0.6417092035390369  0.5814064831792081  1.0000
  C   C34       1.0  0.10920361013961612  0.609193590843809  0.6669397864177924  1.0000
  C   C35       1.0  0.16801171823846062  0.6680181432205784  0.6088566254623089  1.0000
  C   C36       1.0  0.08304763294432861  0.5830701246296428  0.6400371578711486  1.0000
  C   C37       1.0  0.3036381162168951  0.4538481740442677  0.40119168578911507  1.0000
  C   C38       1.0  0.4464304010085486  0.29600722375199257  0.34876950914174637  1.0000
  C   C39       1.0  0.2591192841841661  0.4135304208032268  0.4136474059601056  1.0000
  C   C40       1.0  0.49089493869820433  0.3363609239842946  0.336339745647713  1.0000
  C   C41       1.0  0.3782037867886174  0.3386974555443133  0.3723846648756606  1.0000
  C   C42       1.0  0.37183224847516533  0.4111585471442751  0.3775814820761099  1.0000
  C   C43       1.0  0.7263080206273499  0.576075064863453  0.6288485368903025  1.0000
  C   C44       1.0  0.523580792672405  0.673975467358844  0.6212124377573289  1.0000
  C   C45       1.0  0.7409119084513593  0.5863411434659012  0.5864336392039959  1.0000
  C   C46       1.0  0.5090172871007397  0.6637671160325451  0.6636104066827997  1.0000
  C   C47       1.0  0.6026730601658271  0.6420963174551632  0.6084863727846468  1.0000
  C   C48       1.0  0.647241980345612  0.6079562455780516  0.6415664457975438  1.0000
  C   C49       1.0  0.0762369413050692  0.22605695823219207  0.6289082640610815  1.0000
  C   C50       1.0  0.174141002084454  0.02334862052290992  0.6213024084763319  1.0000
  C   C51       1.0  0.08649290656207852  0.24063762002334235  0.5864932304443186  1.0000
  C   C52       1.0  0.16390220122780622  0.008766597216514089  0.6637004475304522  1.0000
  C   C53       1.0  0.1422837291816705  0.10242673414811782  0.6085788670780232  1.0000
  C   C54       1.0  0.10813400062245651  0.14698540584969777  0.6416447625358046  1.0000
  C   C55       1.0  0.8448513388620215  0.8000216221059233  0.3975304978768007  1.0000
  C   C56       1.0  0.9053193250362739  0.9500329583714732  0.3524474720583584  1.0000
  C   C57       1.0  0.9135977326823763  0.7590407160109222  0.41363019795328887  1.0000
  C   C58       1.0  0.8365978069191513  0.9910244381807869  0.3363816867910785  1.0000
  C   C59       1.0  0.9084739842137851  0.8804463951900984  0.3746913711701296  1.0000
  C   C60       1.0  0.8417677849405365  0.8695096026531673  0.37522575927260254  1.0000
  C   C61       1.0  0.6528466718669393  0.15277706083578835  0.15169047698412896  1.0000
  C   C62       1.0  0.5988237417077046  0.0988736586376503  0.09801172068903698  1.0000
  C   C63       1.0  0.6685380463494398  0.16855253012337795  0.10843169444091669  1.0000
  C   C64       1.0  0.5830184111838862  0.08301961448267285  0.14082870142138396  1.0000
  C   C65       1.0  0.6410778151253212  0.1411360987399703  0.08206980668047238  1.0000
  C   C66       1.0  0.6099437697172618  0.1098772865852311  0.16699809608531516  1.0000
  C   C67       1.0  0.6737654234507177  0.5238874164956326  0.1211556281543906  1.0000
  C   C68       1.0  0.5760107883404544  0.7267234106949019  0.1286505418503765  1.0000
  C   C69       1.0  0.6634838254876386  0.5092998427338102  0.1635756869130063  1.0000
  C   C70       1.0  0.5862820166467773  0.7413307152969114  0.08624714652250988  1.0000
  C   C71       1.0  0.6077859784453423  0.647610036483357  0.14140897541225433  1.0000
  C   C72       1.0  0.6419413830557944  0.6029799381735684  0.10838077634786457  1.0000
  C   C73       1.0  0.08006111121867582  0.12467664751271461  0.1776384278630161  1.0000
  C   C74       1.0  0.17028627480571154  0.124919150136499  0.07248233331026908  1.0000
  C   C75       1.0  0.009115223467723902  0.163458520149355  0.163761028960387  1.0000
  C   C76       1.0  0.24117171954284805  0.0863038014125905  0.08642253608836369  1.0000
  C   C77       1.0  0.11152561695970321  0.13892984178353635  0.1056382996438856  1.0000
  C   C78       1.0  0.138746831843342  0.11056279326889744  0.1444816919861154  1.0000
  C   C79       1.0  0.3466506235338827  0.8489640277430011  0.847704180496308  1.0000
  C   C80       1.0  0.40077458476157807  0.9024144489688551  0.9015445757695203  1.0000
  C   C81       1.0  0.30144509220368587  0.9217070599655273  0.8614586698088331  1.0000
  C   C82       1.0  0.4458800910760985  0.8302863339780305  0.8880746450349761  1.0000
  C   C83       1.0  0.3294450678478142  0.9474842367476344  0.8883650715823846  1.0000
  C   C84       1.0  0.41862100576818767  0.8045240277168448  0.8615196608295933  1.0000
  C   C85       1.0  0.40491429163563464  0.4500422152545696  0.8524407966492831  1.0000
  C   C86       1.0  0.34485979554726504  0.2997808750460893  0.8976244998272592  1.0000
  C   C87       1.0  0.33615104580411537  0.490883679702371  0.8363568465731673  1.0000
  C   C88       1.0  0.41361927209511157  0.2589252364012893  0.9136681438936661  1.0000
  C   C89       1.0  0.3416023563229373  0.3693523224191964  0.8753253538961943  1.0000
  C   C90       1.0  0.4082138630432155  0.3804572495113377  0.8747476314111677  1.0000
  C   C91       1.0  0.9463165840083719  0.7958456665622506  0.8488271185712152  1.0000
  C   C92       1.0  0.8034563792722409  0.9537164024122405  0.9012693056793282  1.0000
  C   C93       1.0  0.9909114152244033  0.8360837075067734  0.8363517320429493  1.0000
  C   C94       1.0  0.7588602161048074  0.9134867631680379  0.9136591224310706  1.0000
  C   C95       1.0  0.8717405073123318  0.9109818250098415  0.8776749024600504  1.0000
  C   C96       1.0  0.8780990232855288  0.838552253818222  0.872447011018302  1.0000
  S   S1        1.0  0.2996915593145388  0.3238918035639387  0.3968310600805438  1.0000
  S   S2        1.0  0.4503551738855976  0.4259548579634824  0.35316580550883  1.0000
  S   S3        1.0  0.6590048281949095  0.6345197143161413  0.5618514141781645  1.0000
  S   S4        1.0  0.590861730087319  0.6155670592911451  0.688202647461317  1.0000
  S   S5        1.0  0.13471554080281586  0.1587582632922633  0.5619390253350288  1.0000
  S   S6        1.0  0.1157068803012606  0.09059244060448893  0.688284166417354  1.0000
  S   S7        1.0  0.974624083583798  0.8045242592221347  0.4017865985623032  1.0000
  S   S8        1.0  0.775623745345449  0.9455098400100326  0.3481378861810071  1.0000
  S   S9        1.0  0.6152606443419374  0.5912899979108559  0.1880726867470841  1.0000
  S   S10       1.0  0.6344038566248501  0.6593851434293542  0.061725127269362155  1.0000
  S   S11       1.0  0.013354191908455002  0.1828903448138632  0.1104872787992548  1.0000
  S   S12       1.0  0.23691603201594094  0.0667653769250691  0.13966770673874146  1.0000
  S   S13       1.0  0.2753397440697825  0.44516578071299756  0.8482304304278541  1.0000
  S   S14       1.0  0.4744847381291422  0.3045520353007164  0.9018228436909225  1.0000
  S   S15       1.0  0.9503501845371077  0.9256886245314463  0.8532586352811223  1.0000
  S   S16       1.0  0.7994438837829351  0.8238698424185461  0.8968316977425843  1.0000
  O   O1        1.0  0.00030224738177509934  0.4990560948187336  0.5003532423033548  1.0000
  O   O2        1.0  0.07762940670901491  0.3155336063326502  0.5227814775305788  1.0000
  O   O3        1.0  0.031041825654476406  0.5312052408297346  0.585356013903656  1.0000
  O   O4        1.0  0.15700110351692592  0.505447508622389  0.4498058961257527  1.0000
  O   O5        1.0  0.0257747510780746  0.37382103673072453  0.5813529323643322  1.0000
  O   O6        1.0  0.15329293882076203  0.3919236697215141  0.4466188831078952  1.0000
  O   O7        1.0  0.0851791808027542  0.5854372885233019  0.5303590007443263  1.0000
  O   O8        1.0  0.0046295029860772  0.6567415226393367  0.45006651936922276  1.0000
  O   O9        1.0  0.887250957495418  0.49700098829274003  0.4422072799195647  1.0000
  O   O10       1.0  0.891063511477988  0.6534350232462675  0.44657528363372717  1.0000
  O   O11       1.0  0.9960251192703282  0.387506816692536  0.4417903402070493  1.0000
  O   O12       1.0  0.8741902464513346  0.5258020678272289  0.5812437917038267  1.0000
  O   O13       1.0  0.8157597297805026  0.5776669889228927  0.5227198383714438  1.0000
  O   O14       1.0  0.7501151259626512  0.25032280959950987  0.25074224891961444  1.0000
  O   O15       1.0  0.596376021319962  0.35842987085960953  0.30331359871802727  1.0000
  O   O16       1.0  0.6647610329525975  0.16462664348755843  0.21904900292977197  1.0000
  O   O17       1.0  0.7243842988255623  0.3759744123135391  0.16888513437108083  1.0000
  O   O18       1.0  0.5931593781634915  0.24465484070015728  0.3001002731778684  1.0000
  O   O19       1.0  0.6725445883986865  0.4343896799684261  0.2273658918105497  1.0000
  O   O20       1.0  0.7197659315619307  0.21957081287137462  0.16488671072610114  1.0000
  O   O21       1.0  0.8760188234662537  0.2241001980063474  0.16944152349851288  1.0000
  O   O22       1.0  0.8626285506190285  0.2548264276851242  0.30877301977623267  1.0000
  O   O23       1.0  0.9347060711842873  0.17269230454841267  0.22789139123943863  1.0000
  O   O24       1.0  0.7532113382416554  0.3640782883255723  0.3085978992742326  1.0000
  O   O25       1.0  0.7455206474088528  0.09330499795060376  0.3000071405024299  1.0000
  O   O26       1.0  0.8590377468836862  0.09677631605465825  0.30363451240573613  1.0000
  O   O27       1.0  0.2501866205910233  0.7488753556654474  0.7495176592945683  1.0000
  O   O28       1.0  0.3758675451168899  0.7246128042402374  0.6686763561482039  1.0000
  O   O29       1.0  0.36247899557632485  0.7539457176726639  0.80804520397038  1.0000
  O   O30       1.0  0.1727193476923787  0.9336434491314023  0.7273725549516428  1.0000
  O   O31       1.0  0.4340045330773208  0.6726432116756059  0.7273081903189151  1.0000
  O   O32       1.0  0.22449114246453664  0.8755610337869372  0.6687677665322481  1.0000
  O   O33       1.0  0.2528900436631218  0.8625496586860423  0.8077557919411191  1.0000
  O   O34       1.0  0.0965464545489141  0.8579360988035422  0.8032747721348414  1.0000
  O   O35       1.0  0.1643281823677754  0.6644310908122434  0.7181831827197698  1.0000
  O   O36       1.0  0.092852467603727  0.7446174667403511  0.7996330612132923  1.0000
  O   O37       1.0  0.21915536555370352  0.7190959786581176  0.6635466339447049  1.0000
  O   O38       1.0  0.3586407198396415  0.5963862484030785  0.8033654428602119  1.0000
  O   O39       1.0  0.2451185281234771  0.5928766375728144  0.7997490684145063  1.0000
  O   O40       1.0  0.49992898789276563  0.0001663175986621476  0.9999592089901981  1.0000
  O   O41       1.0  0.5048745399919597  0.1565898377289087  0.9499218463723479  1.0000
  O   O42       1.0  0.3860009113837465  0.9968532996157436  0.9414544758524174  1.0000
  O   O43       1.0  0.6528647138666273  0.8919169705471077  0.9464971882114172  1.0000
  O   O44       1.0  0.3910450714981267  0.1534732828502783  0.9466898859858404  1.0000
  O   O45       1.0  0.6567012120978007  0.005297304714211671  0.9499028948435182  1.0000
  O   O46       1.0  0.4952567300699117  0.8875452382955654  0.9413385382787922  1.0000
  O   O47       1.0  0.576911971608574  0.8162764710939642  0.0224572250390196  1.0000
  O   O48       1.0  0.5316242434876842  0.03176942690264181  0.08559600197687436  1.0000
  O   O49       1.0  0.5260331525028974  0.8746501775050535  0.08102596497646176  1.0000
  O   O50       1.0  0.5862216737403331  0.08629479851637711  0.030837063146030574  1.0000
  O   O51       1.0  0.3156098466346577  0.07786394890644735  0.02240977802646431  1.0000
  O   O52       1.0  0.3743606656333541  0.026303345515714154  0.08085283858012102  1.0000
  O   O53       1.0  0.782032982026486  0.5181142479096368  0.4000169366059651  1.0000
  O   O54       1.0  0.15902037933157231  0.6589953183439191  0.5408799234988848  1.0000
  O   O55       1.0  0.7090533718935605  0.20910611219887448  0.09113118216643555  1.0000
  O   O56       1.0  0.2320099355411855  0.967960935521184  0.8498516171870492  1.0000
