data_image0
_chemical_formula_structural       Cd2P8H32C20N4O28
_chemical_formula_sum              "Cd2 P8 H32 C20 N4 O28"
_cell_length_a       8.522290772004569
_cell_length_b       9.341072705406482
_cell_length_c       11.801075595766664
_cell_angle_alpha    96.64023312942052
_cell_angle_beta     90.00007550558871
_cell_angle_gamma    90.00008195648176

_space_group_name_H-M_alt    "P 1"
_space_group_IT_number       1

loop_
  _space_group_symop_operation_xyz
  'x, y, z'

loop_
  _atom_site_type_symbol
  _atom_site_label
  _atom_site_symmetry_multiplicity
  _atom_site_fract_x
  _atom_site_fract_y
  _atom_site_fract_z
  _atom_site_occupancy
  Cd  Cd1       1.0  1.6935575217999997e-06  0.9999998338144207  0.9999988060968192  1.0000
  Cd  Cd2       1.0  0.5000025615784692  0.5000008278112488  0.5000014185811423  1.0000
  P   P1        1.0  0.0898604094327666  0.7565095549788479  0.19163200497711588  1.0000
  P   P2        1.0  0.5898610468606477  0.743490000176962  0.3083683499501575  1.0000
  P   P3        1.0  0.9101388467522183  0.24349100817267538  0.8083664976139104  1.0000
  P   P4        1.0  0.4101382093255665  0.2565084192010402  0.6916333505533672  1.0000
  P   P5        1.0  0.4855928624067189  0.2776787423941656  0.22126360124427438  1.0000
  P   P6        1.0  0.9855934127315819  0.2223217129476751  0.2787365541695124  1.0000
  P   P7        1.0  0.5144052203871539  0.7223218295764582  0.7787374442851132  1.0000
  P   P8        1.0  0.014404670059811098  0.7776777753762331  0.7212626997307936  1.0000
  H   H1        1.0  0.27161940523460265  0.41795135947320716  0.8716502664806072  1.0000
  H   H2        1.0  0.7716206354266574  0.08205002056562449  0.6283496236120598  1.0000
  H   H3        1.0  0.728379850950219  0.5820481288515608  0.1283489874203383  1.0000
  H   H4        1.0  0.22837979415423593  0.9179516262334747  0.3716506706086875  1.0000
  H   H5        1.0  0.12544650016479145  0.6238061397075895  0.9522832651625635  1.0000
  H   H6        1.0  0.6254492179816679  0.8761936249338685  0.5477161520532121  1.0000
  H   H7        1.0  0.874552756021579  0.37619335449716124  0.04771768403104909  1.0000
  H   H8        1.0  0.3745523849892436  0.12380586045262727  0.4522822542026859  1.0000
  H   H9        1.0  0.28298914771525563  0.536593995885866  0.286108986424594  1.0000
  H   H10       1.0  0.7829887844559166  0.9634069140041528  0.21388997972475468  1.0000
  H   H11       1.0  0.7170101084720456  0.4634065760856173  0.7138920591054259  1.0000
  H   H12       1.0  0.21700812493956784  0.036591490672179795  0.7861074825458375  1.0000
  H   H13       1.0  0.41721052202597514  0.2732039407355344  0.9745180334113215  1.0000
  H   H14       1.0  0.9172117918517486  0.22679765252992462  0.5254820151258102  1.0000
  H   H15       1.0  0.5827887341596207  0.7267955505292248  0.025482068135957475  1.0000
  H   H16       1.0  0.08278863772589058  0.7732029076824604  0.4745156398195221  1.0000
  H   H17       1.0  0.8872892158125936  0.6738244799443862  0.2831998604475459  1.0000
  H   H18       1.0  0.38728873336809494  0.8261744330455227  0.21680072182964238  1.0000
  H   H19       1.0  0.11271238716157228  0.3261760920288168  0.716801185083753  1.0000
  H   H20       1.0  0.6127128696034344  0.17382398045421607  0.7831992833825012  1.0000
  H   H21       1.0  0.28141178922012233  0.1603856422475829  0.2609087497473297  1.0000
  H   H22       1.0  0.7814124512137042  0.3396145169993616  0.23909203110591193  1.0000
  H   H23       1.0  0.7185874669676336  0.8396127830103949  0.7390946460488621  1.0000
  H   H24       1.0  0.21858680497298613  0.660387126858886  0.7609074154678622  1.0000
  H   H25       1.0  0.3189357696960897  0.9016424632528481  0.9472306003441062  1.0000
  H   H26       1.0  0.8189368878939687  0.598357581823663  0.5527681797956845  1.0000
  H   H27       1.0  0.6810646598855783  0.09835918648624191  0.052770541522967604  1.0000
  H   H28       1.0  0.18106588847207658  0.40164298427042405  0.44723117044359384  1.0000
  H   H29       1.0  0.3246393049540258  0.0041472644868179  0.0677166663212958  1.0000
  H   H30       1.0  0.8246405633979419  0.4958529551297702  0.4322833139297373  1.0000
  H   H31       1.0  0.6753611246282603  0.9958533133655082  0.9322860745020307  1.0000
  H   H32       1.0  0.17536221296826676  0.5041486857910654  0.5677152849996219  1.0000
  C   C1        1.0  0.1899775384974305  0.5615745125427337  0.009417065000683084  1.0000
  C   C2        1.0  0.6899799864363343  0.9384251863017279  0.4905825512370966  1.0000
  C   C3        1.0  0.810019370902239  0.4384260564870459  0.9905831328817314  1.0000
  C   C4        1.0  0.31001926974848715  0.061574302023039706  0.5094167026638559  1.0000
  C   C5        1.0  0.19188795747107423  0.5965928340341692  0.1270363287818341  1.0000
  C   C6        1.0  0.6918913098640471  0.903406867608872  0.3729632895355124  1.0000
  C   C7        1.0  0.8081112987168453  0.40340666605055725  0.8729663157044385  1.0000
  C   C8        1.0  0.3081102931060896  0.09659261483763257  0.627034269074052  1.0000
  C   C9        1.0  0.27968476715104623  0.5103579256142652  0.19368021872005406  1.0000
  C   C10       1.0  0.7796857866159069  0.9896419046105721  0.3063194951438604  1.0000
  C   C11       1.0  0.7203144890343934  0.4896404908237457  0.806320634137144  1.0000
  C   C12       1.0  0.22031229617471126  0.010357580773352  0.693678911110119  1.0000
  C   C13       1.0  0.36537050983547187  0.3930878931427415  0.1417525235627863  1.0000
  C   C14       1.0  0.8653710239967508  0.10691238318651129  0.35824665336862443  1.0000
  C   C15       1.0  0.6346252261651982  0.6069115804794974  0.8582424921045941  1.0000
  C   C16       1.0  0.1346258854035369  0.8930871139565112  0.6417551434700428  1.0000
  C   C17       1.0  0.3571507575930467  0.36280725546425424  0.02357461813374329  1.0000
  C   C18       1.0  0.857152707679745  0.13719301176773513  0.4764253974993551  1.0000
  C   C19       1.0  0.6428508453792715  0.6371965321692273  0.9764216305288116  1.0000
  C   C20       1.0  0.14285124207755465  0.862803249140235  0.5235752626875723  1.0000
  N   N1        1.0  0.2714822225696452  0.4463895243125365  0.9618540450825676  1.0000
  N   N2        1.0  0.7714832440280687  0.05361077775849311  0.5381457485242791  1.0000
  N   N3        1.0  0.7285135134370647  0.5536142691966289  0.03814389886945689  1.0000
  N   N4        1.0  0.22851366536864495  0.9463854831443188  0.4618549116588114  1.0000
  O   O1        1.0  0.9784629984839908  0.8046359726209928  0.10436680273725328  1.0000
  O   O2        1.0  0.4784649832852139  0.6953641487267461  0.3956331274543032  1.0000
  O   O3        1.0  0.021536257700056197  0.1953635127637838  0.8956316035173586  1.0000
  O   O4        1.0  0.5215354462955233  0.3046364232456042  0.6043679180763634  1.0000
  O   O5        1.0  0.21760553137388425  0.8621840645564447  0.2391100730778533  1.0000
  O   O6        1.0  0.717604743388719  0.6378156718084469  0.2608887255789298  1.0000
  O   O7        1.0  0.7823937248104826  0.13781757048182894  0.7608868305569273  1.0000
  O   O8        1.0  0.28239451279826966  0.3621827505095466  0.7391138225709283  1.0000
  O   O9        1.0  0.0022443529401315  0.7060311764244176  0.2983203893249495  1.0000
  O   O10       1.0  0.5022448753119517  0.7939693281792728  0.2016799665875553  1.0000
  O   O11       1.0  0.9977549032518308  0.29397478438076513  0.7016811378871423  1.0000
  O   O12       1.0  0.49775438086992096  0.20602585201853424  0.7983197496140733  1.0000
  O   O13       1.0  0.5052602719250527  0.3443633130763644  0.3421311281568578  1.0000
  O   O14       1.0  0.005260588358730398  0.1556375194972262  0.1578694485014083  1.0000
  O   O15       1.0  0.49474015765629525  0.6556361870092287  0.6578715163300544  1.0000
  O   O16       1.0  0.9947398412207704  0.8443651962486382  0.8421283991167599  1.0000
  O   O17       1.0  0.6346465942129098  0.24318423152183039  0.1533665484941622  1.0000
  O   O18       1.0  0.13464741275298311  0.25681786831260217  0.3466342653098167  1.0000
  O   O19       1.0  0.36535266197517297  0.7568163433896443  0.8466353446821914  1.0000
  O   O20       1.0  0.8653518434336999  0.7431837755456456  0.6533651812639576  1.0000
  O   O21       1.0  0.3808955441216  0.13396923687829337  0.2174231907043946  1.0000
  O   O22       1.0  0.8808963266557368  0.3660321428951931  0.2825769471055466  1.0000
  O   O23       1.0  0.6191048854612973  0.8660302690872757  0.7825811490751775  1.0000
  O   O24       1.0  0.11910410292283297  0.6339694950839316  0.7174208041762071  1.0000
  O   O25       1.0  0.27630414967926936  0.9902083769638422  0.9919362196863162  1.0000
  O   O26       1.0  0.7763073945041866  0.5097905337909905  0.5080641130155854  1.0000
  O   O27       1.0  0.7236974532984704  0.009795431249564501  0.0080659625005595  1.0000
  O   O28       1.0  0.22369772864855966  0.4902089574780605  0.49193598853488396  1.0000
