data_image0
_chemical_formula_structural       Cs4H32C28N4O24
_chemical_formula_sum              "Cs4 H32 C28 N4 O24"
_cell_length_a       6.008976548688989
_cell_length_b       7.081629646390911
_cell_length_c       24.40994939764987
_cell_angle_alpha    89.9978439432043
_cell_angle_beta     93.52635480819893
_cell_angle_gamma    89.99979501837633

_space_group_name_H-M_alt    "P 1"
_space_group_IT_number       1

loop_
  _space_group_symop_operation_xyz
  'x, y, z'

loop_
  _atom_site_type_symbol
  _atom_site_label
  _atom_site_symmetry_multiplicity
  _atom_site_fract_x
  _atom_site_fract_y
  _atom_site_fract_z
  _atom_site_occupancy
  Cs  Cs1       1.0  0.2520899081269902  0.19203893712015221  0.47250893636258684  1.0000
  Cs  Cs2       1.0  0.2479086573641069  0.6920365726633757  0.02749219744909229  1.0000
  Cs  Cs3       1.0  0.7479176613790699  0.8079626208890782  0.5274904422741213  1.0000
  Cs  Cs4       1.0  0.752087223494179  0.30796357315713846  0.972508635421583  1.0000
  H   H1        1.0  0.6934341931414141  0.11747997199041284  0.17389520736207226  1.0000
  H   H2        1.0  0.8065873817853056  0.6174767180336713  0.32609590049948867  1.0000
  H   H3        1.0  0.3065767935499366  0.882504641250392  0.8260964415579719  1.0000
  H   H4        1.0  0.19340855117902583  0.3825163675739842  0.6739000171883021  1.0000
  H   H5        1.0  0.8870045907806202  0.13805398614233155  0.26742589585556686  1.0000
  H   H6        1.0  0.6130117583845944  0.638054248607588  0.23256735611069954  1.0000
  H   H7        1.0  0.11299803752566359  0.8619405117134845  0.7325676694593424  1.0000
  H   H8        1.0  0.38695244328597767  0.3619360125329647  0.7674329768943263  1.0000
  H   H9        1.0  0.3181763189428892  0.8824082797938428  0.3370572380560971  1.0000
  H   H10       1.0  0.1818470639433016  0.3823973916270374  0.16294501372005493  1.0000
  H   H11       1.0  0.681839513455536  0.11758904145148102  0.6629492353959419  1.0000
  H   H12       1.0  0.8181454647859282  0.6176267598697219  0.8370574047981234  1.0000
  H   H13       1.0  0.1258027389697318  0.8620560215586507  0.24263146031747593  1.0000
  H   H14       1.0  0.3742325238148397  0.3620471542308079  0.25736997884682467  1.0000
  H   H15       1.0  0.8742264581579632  0.13792717877639393  0.7573727660969636  1.0000
  H   H16       1.0  0.6257883669049208  0.6379657004889764  0.7426312486266723  1.0000
  H   H17       1.0  0.3913054580446341  0.5276870389144219  0.5935235493388047  1.0000
  H   H18       1.0  0.108658252131562  0.02766680925304139  0.9064798367884419  1.0000
  H   H19       1.0  0.6087004441671836  0.4723074585757272  0.40647580302645975  1.0000
  H   H20       1.0  0.8913276030677793  0.9723319243503635  0.09352288622981317  1.0000
  H   H21       1.0  0.13216922740640058  0.4790958536583573  0.5842701541974546  1.0000
  H   H22       1.0  0.3677984290617857  0.9790897324751877  0.9157331323948693  1.0000
  H   H23       1.0  0.8678300228026147  0.5209085286757966  0.4157274544570199  1.0000
  H   H24       1.0  0.632195775789647  0.020910413296505198  0.08426849336797908  1.0000
  H   H25       1.0  0.7526565165156073  0.33158908664609726  0.4846246136583331  1.0000
  H   H26       1.0  0.7473545252439209  0.8315854215037032  0.0153770289816464  1.0000
  H   H27       1.0  0.24734939000163084  0.6684124713915265  0.5153743290647552  1.0000
  H   H28       1.0  0.2526430229357501  0.16841613641850017  0.9846238301926601  1.0000
  H   H29       1.0  0.7798956424576531  0.30901817657905883  0.5491319618300847  1.0000
  H   H30       1.0  0.7200875266772754  0.8090092285894313  0.9508696290499044  1.0000
  H   H31       1.0  0.22011194438542248  0.6909876178461614  0.4508657783747622  1.0000
  H   H32       1.0  0.27990834115620083  0.19099232925820783  0.04913243261850648  1.0000
  C   C1        1.0  0.39642057919078155  0.9903593337136197  0.20288097628841928  1.0000
  C   C2        1.0  0.1036018182824279  0.49035568052626366  0.2971151295393638  1.0000
  C   C3        1.0  0.603586964374216  0.009622454680311398  0.7971208600725387  1.0000
  C   C4        1.0  0.8963974275872459  0.5096487017821543  0.7028828887170345  1.0000
  C   C5        1.0  0.6115905216381563  0.06671686393991645  0.2095742346717698  1.0000
  C   C6        1.0  0.8884398517520251  0.566712347595512  0.2904200410861505  1.0000
  C   C7        1.0  0.3884170696324816  0.933270573154537  0.7904230960357876  1.0000
  C   C8        1.0  0.11155435747946289  0.43327932557583887  0.7095811751230625  1.0000
  C   C9        1.0  0.7206316828217965  0.07821230774982268  0.26138696016343477  1.0000
  C   C10       1.0  0.7794035690070373  0.5782186714042435  0.2386084922207629  1.0000
  C   C11       1.0  0.27938758402429903  0.9217878382908959  0.7386101450515381  1.0000
  C   C12       1.0  0.2205823079433031  0.4217687654930839  0.7613921828522476  1.0000
  C   C13       1.0  0.611099961751222  0.012363116929741094  0.3064329566911751  1.0000
  C   C14       1.0  0.888924260349512  0.5123580656665323  0.19356224307883704  1.0000
  C   C15       1.0  0.3889192833777954  0.9876412652953234  0.6935661965092946  1.0000
  C   C16       1.0  0.11106159917559917  0.4876434921713011  0.8064400703213932  1.0000
  C   C17       1.0  0.3979642215505094  0.9329539471069235  0.3010266371545568  1.0000
  C   C18       1.0  0.10207865306847452  0.43295698322316395  0.19897822125566475  1.0000
  C   C19       1.0  0.6020483543201182  0.06703913829398538  0.6989724108635683  1.0000
  C   C20       1.0  0.8979222383580138  0.567062932101713  0.8010218712335156  1.0000
  C   C21       1.0  0.2922292401913893  0.9220897375862405  0.24880602223466033  1.0000
  C   C22       1.0  0.2078087498956336  0.4220874948285739  0.2511976523210251  1.0000
  C   C23       1.0  0.7077799880387943  0.07789628722102994  0.7511942020061181  1.0000
  C   C24       1.0  0.7922021281424918  0.5779324203774079  0.7488042364459699  1.0000
  C   C25       1.0  0.272111659638  0.9872322820494116  0.14704887694706764  1.0000
  C   C26       1.0  0.2278906992533152  0.48721722487556446  0.3529526832820977  1.0000
  C   C27       1.0  0.7278742346561485  0.012757979159573591  0.8529501597021321  1.0000
  C   C28       1.0  0.7720968319528795  0.5127815087766618  0.6470492468439841  1.0000
  N   N1        1.0  0.7250077458851011  0.025637634508548494  0.36102670546924276  1.0000
  N   N2        1.0  0.7750213160686387  0.5256000432966699  0.13897169890206126  1.0000
  N   N3        1.0  0.2750098404926504  0.9743879293358542  0.6389716020949476  1.0000
  N   N4        1.0  0.22497455181911624  0.4743902177161982  0.8610303628307389  1.0000
  O   O1        1.0  0.2698937089350224  0.5000173348819669  0.5645690804283274  1.0000
  O   O2        1.0  0.2300769363186959  2.8622326631499993e-05  0.935434726211383  1.0000
  O   O3        1.0  0.7301055369957228  0.4999743384873267  0.435428937900518  1.0000
  O   O4        1.0  0.769915601191002  0.9999743476564045  0.06456687322367567  1.0000
  O   O5        1.0  0.7624280856203073  0.23516588577925276  0.514634089440321  1.0000
  O   O6        1.0  0.7375691232170212  0.7351554046489281  0.9853693730905771  1.0000
  O   O7        1.0  0.2375778208833594  0.7648384964670639  0.4853648532666737  1.0000
  O   O8        1.0  0.2624284162703958  0.26484897743048913  0.014632305271490498  1.0000
  O   O9        1.0  0.3707332649125448  0.058202822304352274  0.10692687066150336  1.0000
  O   O10       1.0  0.1292949486790462  0.5582111328236647  0.3930745977640056  1.0000
  O   O11       1.0  0.6292576269996245  0.9417930872883029  0.893072654492485  1.0000
  O   O12       1.0  0.8707009495094697  0.4417946615171927  0.6069245966667578  1.0000
  O   O13       1.0  0.07823072832991332  0.9168349469182496  0.14408554982995264  1.0000
  O   O14       1.0  0.421760644680738  0.4167797451603901  0.35591580979940557  1.0000
  O   O15       1.0  0.9217601635754633  0.08316237477875887  0.8559139753159852  1.0000
  O   O16       1.0  0.5782302212700046  0.5832006311300189  0.6440861730546883  1.0000
  O   O17       1.0  0.6212449156891111  0.9757837063911761  0.40113833359748696  1.0000
  O   O18       1.0  0.8787480586207079  0.47572273987439206  0.09886222158139185  1.0000
  O   O19       1.0  0.37875260200659266  0.02424044502039639  0.5988653926615297  1.0000
  O   O20       1.0  0.12122777960516373  0.524273169459043  0.9011415723886385  1.0000
  O   O21       1.0  0.9205191112730802  0.08429186612572437  0.36467089108006673  1.0000
  O   O22       1.0  0.5794993612748129  0.5842648527971116  0.13532873468942336  1.0000
  O   O23       1.0  0.0794684458063273  0.9157407581852648  0.6353285812412677  1.0000
  O   O24       1.0  0.420476490009797  0.41572258398745987  0.8646738305231236  1.0000
