data_image0
_chemical_formula_structural       CdH12C12Br2N2O2
_chemical_formula_sum              "Cd1 H12 C12 Br2 N2 O2"
_cell_length_a       4.069141946864101
_cell_length_b       8.121326395768131
_cell_length_c       9.969101153325568
_cell_angle_alpha    84.46688180883554
_cell_angle_beta     82.78712399932378
_cell_angle_gamma    84.89483941944162

_space_group_name_H-M_alt    "P 1"
_space_group_IT_number       1

loop_
  _space_group_symop_operation_xyz
  'x, y, z'

loop_
  _atom_site_type_symbol
  _atom_site_label
  _atom_site_symmetry_multiplicity
  _atom_site_fract_x
  _atom_site_fract_y
  _atom_site_fract_z
  _atom_site_occupancy
  Cd  Cd1       1.0  0.5000005369069528  5.827961118000123e-07  0.999999921931625  1.0000
  H   H1        1.0  0.8755814668027426  0.6173171466706081  0.13832573334506287  1.0000
  H   H2        1.0  0.12441772382183555  0.38268611968240424  0.8616718366401911  1.0000
  H   H3        1.0  0.5155000376245412  0.6041599015574518  0.059856408477010285  1.0000
  H   H4        1.0  0.4844970899572517  0.395840879831596  0.9401434713718615  1.0000
  H   H5        1.0  0.304560958798767  0.41376669213075007  0.24376559539287967  1.0000
  H   H6        1.0  0.6954438073960888  0.5862328444930968  0.7562349744655207  1.0000
  H   H7        1.0  0.669828173074478  0.42550506903103996  0.324241670189501  1.0000
  H   H8        1.0  0.33017868607207396  0.5744969486495819  0.6757585947407279  1.0000
  H   H9        1.0  0.4311757674119931  0.08861468077095942  0.31303149565891175  1.0000
  H   H10       1.0  0.5688219664230801  0.9113823741472162  0.6869706472652622  1.0000
  H   H11       1.0  0.8394690664857265  0.7102218326278092  0.5263565088595497  1.0000
  H   H12       1.0  0.16053341464264992  0.28977646379382815  0.4736442798804034  1.0000
  C   C1        1.0  0.603706673969981  0.6219578588955201  0.15677392940337845  1.0000
  C   C2        1.0  0.3962929158386359  0.378042923794773  0.8432248151428254  1.0000
  C   C3        1.0  0.4739557159508576  0.49808080597814836  0.2733642193184663  1.0000
  C   C4        1.0  0.5260490651984567  0.5019187286921111  0.7266373530076605  1.0000
  C   C5        1.0  0.30848153364387093  0.7637918271380361  0.3183508132608209  1.0000
  C   C6        1.0  0.6915182632339807  0.23620771274410401  0.6816490197997283  1.0000
  C   C7        1.0  0.14722182104015483  0.8872093624228939  0.40835571808894844  1.0000
  C   C8        1.0  0.8527756758167654  0.11278893921062416  0.5916433313854268  1.0000
  C   C9        1.0  0.2376480687140585  0.05107489201839143  0.39302938121569747  1.0000
  C   C10       1.0  0.7623538061610377  0.9489271308741115  0.6069691444489604  1.0000
  C   C11       1.0  0.9099060862256039  0.8373729570440179  0.516064148813747  1.0000
  C   C12       1.0  0.0900866633380133  0.16262410308603853  0.4839362548448419  1.0000
  Br  Br1       1.0  0.9223277000755631  0.18374471380335688  0.10673593783693747  1.0000
  Br  Br2       1.0  0.0776719046875058  0.8162560669333488  0.8932638091769928  1.0000
  N   N1        1.0  0.4730218070446739  0.7867876299530537  0.19926842565632083  1.0000
  N   N2        1.0  0.5269753205371188  0.21321315143599415  0.8007314541925579  1.0000
  O   O1        1.0  0.2860410000202478  0.6035917895426197  0.37197844141206093  1.0000
  O   O2        1.0  0.713963766174608  0.3964077470812344  0.6280221284463393  1.0000
