data_image0
_chemical_formula_structural       H28Pb4C24Br4N8O12
_chemical_formula_sum              "H28 Pb4 C24 Br4 N8 O12"
_cell_length_a       6.588618500482533
_cell_length_b       7.499507321103809
_cell_length_c       19.277023752012308
_cell_angle_alpha    90.23792056473391
_cell_angle_beta     90.00172498561936
_cell_angle_gamma    89.99949575173007

_space_group_name_H-M_alt    "P 1"
_space_group_IT_number       1

loop_
  _space_group_symop_operation_xyz
  'x, y, z'

loop_
  _atom_site_type_symbol
  _atom_site_label
  _atom_site_symmetry_multiplicity
  _atom_site_fract_x
  _atom_site_fract_y
  _atom_site_fract_z
  _atom_site_occupancy
  H   H1        1.0  0.48975236298731767  0.7739764762185928  0.07460429796386593  1.0000
  H   H2        1.0  0.9897726756579032  0.2260293959936064  0.4253979331780542  1.0000
  H   H3        1.0  0.5102577005998299  0.2259933445634701  0.9253919737837539  1.0000
  H   H4        1.0  0.010244976568408498  0.7740160410389977  0.5746302201478388  1.0000
  H   H5        1.0  0.6118574518346378  0.8581473525292578  0.1402388716066127  1.0000
  H   H6        1.0  0.1119112775921707  0.14189078338137756  0.35978216939967933  1.0000
  H   H7        1.0  0.3881313631251402  0.14184294561434288  0.8597731690137143  1.0000
  H   H8        1.0  0.8881852984004083  0.8581732324529979  0.6402477252038781  1.0000
  H   H9        1.0  0.8031292840473654  0.4079839500880453  0.0016192587948183  1.0000
  H   H10       1.0  0.30318853369789167  0.5920101172022851  0.4983791619253994  1.0000
  H   H11       1.0  0.1968549777139827  0.5919944635611288  0.9983905885437641  1.0000
  H   H12       1.0  0.6968321536243066  0.40799340132952017  0.5016106985117406  1.0000
  H   H13       1.0  0.291489112219935  0.20231044795391276  0.16513652175980553  1.0000
  H   H14       1.0  0.7914322991626007  0.7976550370086102  0.3348707889020092  1.0000
  H   H15       1.0  0.7085148804428342  0.797679821816949  0.8348760375575212  1.0000
  H   H16       1.0  0.2085458908684572  0.20232726500064052  0.6651167855081682  1.0000
  H   H17       1.0  0.11962666429501209  0.2288414940258789  0.9895632594942544  1.0000
  H   H18       1.0  0.6196912316933378  0.7711470384644129  0.5104400489233641  1.0000
  H   H19       1.0  0.8803166177007568  0.7711343384971201  0.010445005364729802  1.0000
  H   H20       1.0  0.380365881842792  0.22888288698142395  0.48955474328219867  1.0000
  H   H21       1.0  0.08693516122773559  0.10082342060434972  0.06737151739408632  1.0000
  H   H22       1.0  0.5869763792195996  0.8991645502054838  0.43263673771217287  1.0000
  H   H23       1.0  0.9130369580985728  0.8991775993644852  0.9326395916144468  1.0000
  H   H24       1.0  0.4130427907182934  0.1008485817653124  0.567372416173747  1.0000
  H   H25       1.0  0.23846507504297418  0.018441378913585976  0.9976889651382311  1.0000
  H   H26       1.0  0.738521764927519  0.9815399169105348  0.502315962793901  1.0000
  H   H27       1.0  0.7615009735172648  0.9815473586562505  0.0023272108169223008  1.0000
  H   H28       1.0  0.2615414199946784  0.01846345965050489  0.4976764908895748  1.0000
  Pb  Pb1       1.0  0.2111553291602135  0.7133729023424634  0.21435822030457538  1.0000
  Pb  Pb2       1.0  0.7111512276630377  0.2866068741228958  0.2856454947098187  1.0000
  Pb  Pb3       1.0  0.788821343360688  0.28660888807657164  0.7856386886880318  1.0000
  Pb  Pb4       1.0  0.2888573185012362  0.7133804167680822  0.7143727426925823  1.0000
  C   C1        1.0  0.7110828007129938  0.3897531926626812  0.10947293992192195  1.0000
  C   C2        1.0  0.2110583193625146  0.6102031269480365  0.3905206829379112  1.0000
  C   C3        1.0  0.28890904928724837  0.6102316051209087  0.8905177725381253  1.0000
  C   C4        1.0  0.7889213884310988  0.3897765940713143  0.6094653092964323  1.0000
  C   C5        1.0  0.687643865848557  0.3634018439871838  0.03825355784267261  1.0000
  C   C6        1.0  0.18765131809541907  0.6365884467671564  0.46174992683475596  1.0000
  C   C7        1.0  0.3123586086366076  0.6365866405834736  0.961742898798697  1.0000
  C   C8        1.0  0.8123572270809516  0.3634319192452081  0.5382489212577755  1.0000
  C   C9        1.0  0.37793644527674525  0.2260574095105383  0.05641750651729891  1.0000
  C   C10       1.0  0.877943833765137  0.7739438882794615  0.44358049351256323  1.0000
  C   C11       1.0  0.6220751361670552  0.7739394690893063  0.943596156084155  1.0000
  C   C12       1.0  0.12203739133316562  0.22607046569021352  0.5564063607959966  1.0000
  C   C13       1.0  0.404611303842934  0.2507713290579545  0.12828432054033104  1.0000
  C   C14       1.0  0.9045897135689173  0.7491954783438076  0.3717137171334387  1.0000
  C   C15       1.0  0.5954093840669968  0.7492037958547472  0.8717125227140275  1.0000
  C   C16       1.0  0.09540365426625638  0.2507956724566327  0.6282827658639791  1.0000
  C   C17       1.0  0.8953606584016429  0.4829923605573255  0.13846907488738225  1.0000
  C   C18       1.0  0.3953524169409519  0.5169294306363666  0.36152163983065594  1.0000
  C   C19       1.0  0.1045902119590636  0.5169675623769905  0.8615130888626584  1.0000
  C   C20       1.0  0.6046728241961573  0.48305752192793955  0.638478433882476  1.0000
  C   C21       1.0  0.19429138960316553  0.13892078156223414  0.026615335669923506  1.0000
  C   C22       1.0  0.6943237339210027  0.8610681619315984  0.4733892681804266  1.0000
  C   C23       1.0  0.8056837651050373  0.8610844367546733  0.9733921828724167  1.0000
  C   C24       1.0  0.30568936467869884  0.1389467863131628  0.526611082867909  1.0000
  Br  Br1       1.0  0.8933256734455952  0.9892162815716646  0.19028754573635356  1.0000
  Br  Br2       1.0  0.39330308435503974  0.010772070412436094  0.3096809692116836  1.0000
  Br  Br3       1.0  0.1066297497499775  0.010789959852672788  0.8097013034784057  1.0000
  Br  Br4       1.0  0.6066523380855954  0.9892473344550867  0.6902867367691032  1.0000
  N   N1        1.0  0.5695984331642449  0.3296910653796274  0.15402727518635836  1.0000
  N   N2        1.0  0.06960021582875699  0.670258815478071  0.3459679025728591  1.0000
  N   N3        1.0  0.43039038122743983  0.6703120267288513  0.8459703638506898  1.0000
  N   N4        1.0  0.9304022586881473  0.3297101553141033  0.6540195399051785  1.0000
  N   N5        1.0  0.5235780732070197  0.28074396135031787  0.012450217646254204  1.0000
  N   N6        1.0  0.023607355485381697  0.7192642821549597  0.4875448836984548  1.0000
  N   N7        1.0  0.47643654352788906  0.719249514720353  0.9875525149863693  1.0000
  N   N8        1.0  0.9763966359721364  0.2807646794693426  0.5124431532661406  1.0000
  O   O1        1.0  0.9146152890847643  0.4872208190963434  0.20498356917003246  1.0000
  O   O2        1.0  0.41458081489369647  0.5127715239892366  0.2950122694801963  1.0000
  O   O3        1.0  0.0853689711912224  0.5128175880567838  0.7950024857734734  1.0000
  O   O4        1.0  0.5854140702312803  0.4872452120691477  0.7049797972322909  1.0000
  O   O5        1.0  0.0200369729450856  0.5535084887854326  0.09741488567974703  1.0000
  O   O6        1.0  0.5199663755569829  0.4463724591167447  0.4025903182729068  1.0000
  O   O7        1.0  0.9799594303698029  0.4464736995965879  0.9025747632146736  1.0000
  O   O8        1.0  0.48004216979465747  0.5536605276553601  0.5974216266382089  1.0000
  O   O9        1.0  0.479505213315484  0.8113144615312676  0.12475047544054262  1.0000
  O   O10       1.0  0.9795405700705471  0.18869264972009597  0.3752521411216137  1.0000
  O   O11       1.0  0.5204942257532466  0.1886763766531487  0.8752517120739401  1.0000
  O   O12       1.0  0.020505920358914406  0.8113036321421134  0.6247724120881772  1.0000
