data_image0
_chemical_formula_structural       Al4H14C56N12O44F2
_chemical_formula_sum              "Al4 H14 C56 N12 O44 F2"
_cell_length_a       6.680998658791617
_cell_length_b       19.399632623378526
_cell_length_c       21.938557718771328
_cell_angle_alpha    99.2846815866474
_cell_angle_beta     89.73901363436711
_cell_angle_gamma    89.14929165065617

_space_group_name_H-M_alt    "P 1"
_space_group_IT_number       1

loop_
  _space_group_symop_operation_xyz
  'x, y, z'

loop_
  _atom_site_type_symbol
  _atom_site_label
  _atom_site_symmetry_multiplicity
  _atom_site_fract_x
  _atom_site_fract_y
  _atom_site_fract_z
  _atom_site_occupancy
  Al  Al1       1.0  0.8824409872939966  0.4995417400468369  0.5002395805468467  1.0000
  Al  Al2       1.0  0.38245885694362874  0.4994048849365882  0.498997608479435  1.0000
  Al  Al3       1.0  0.33448524501701377  0.9997382569998692  0.9992418499131616  1.0000
  Al  Al4       1.0  0.8344486378953205  0.9998183053307205  0.00031704590358569776  1.0000
  H   H1        1.0  0.8059126560027464  0.8261157114115323  0.23882141826793904  1.0000
  H   H2        1.0  0.3120780389931141  0.1773469099672838  0.7623001986922019  1.0000
  H   H3        1.0  0.40834305868450826  0.6815642061156383  0.2676511316543113  1.0000
  H   H4        1.0  0.9089144083883409  0.31974061784254104  0.7352176896357747  1.0000
  H   H5        1.0  0.09746182083510749  0.14550283820383925  0.39437199621335856  1.0000
  H   H6        1.0  0.6378694028502919  0.8541424513876735  0.6056448979789407  1.0000
  H   H7        1.0  0.016163359285343393  0.35959823807873903  0.219174789203656  1.0000
  H   H8        1.0  0.7058802821803665  0.6410831817150751  0.7822230382513453  1.0000
  H   H9        1.0  0.9628043559812057  0.35003969926449235  0.10783028342687828  1.0000
  H   H10       1.0  0.7298562124803353  0.651046446383731  0.8946219578844107  1.0000
  H   H11       1.0  0.6367323323592373  0.5124674886080955  0.4238015574214771  1.0000
  H   H12       1.0  0.13271683556722988  0.48736197985715557  0.5757814636520919  1.0000
  H   H13       1.0  0.5816295982924019  0.9822924880371673  0.0737840993700303  1.0000
  H   H14       1.0  0.08370954069066978  0.0171877177893265  0.9257130471720527  1.0000
  C   C1        1.0  0.6295085538430526  0.6094462626591338  0.5682143844795958  1.0000
  C   C2        1.0  0.1336867536794415  0.3896136852689338  0.43090526079613056  1.0000
  C   C3        1.0  0.6303244256090893  0.42478404858690066  0.5768333801016113  1.0000
  C   C4        1.0  0.1329648267690331  0.5746246886982578  0.4227047194686975  1.0000
  C   C5        1.0  0.9384965478681481  0.7948295818640221  0.24505715750387216  1.0000
  C   C6        1.0  0.44351369955987247  0.2081300013400025  0.7564283805764519  1.0000
  C   C7        1.0  0.11120720169858342  0.8011049503630402  0.20957516953263416  1.0000
  C   C8        1.0  0.6142202359926543  0.20117861708662596  0.7923935358057008  1.0000
  C   C9        1.0  0.2788944878794908  0.7591824170869047  0.2196006845146314  1.0000
  C   C10       1.0  0.7802941254566703  0.2426350828735764  0.7830000708996536  1.0000
  C   C11       1.0  0.2755420334362384  0.7126171145826918  0.2611950047316256  1.0000
  C   C12       1.0  0.7774798643518112  0.2890223788838924  0.7411914434863931  1.0000
  C   C13       1.0  0.1022029300762881  0.7058123527138848  0.2962682071838429  1.0000
  C   C14       1.0  0.6065223636640197  0.2961943000878407  0.705418662205872  1.0000
  C   C15       1.0  0.9349472171160399  0.7481068487041967  0.2865505295098743  1.0000
  C   C16       1.0  0.4404048113293086  0.2547349735123987  0.7148653358153823  1.0000
  C   C17       1.0  0.10593431087844611  0.8449453743639737  0.16422258678416307  1.0000
  C   C18       1.0  0.6076278083934812  0.15679605602451122  0.8372467504021159  1.0000
  C   C19       1.0  0.10726256908301218  0.6599230071946993  0.3399597925529462  1.0000
  C   C20       1.0  0.611764214788529  0.34134321567960774  0.6611203815535873  1.0000
  C   C21       1.0  0.12553219312321318  0.6206584413736352  0.377585476697206  1.0000
  C   C22       1.0  0.6278463285663349  0.37954332203045743  0.6226233584623769  1.0000
  C   C23       1.0  0.09067188230456939  0.8810348386625791  0.1240071677048533  1.0000
  C   C24       1.0  0.5889636082431196  0.11978871276149053  0.8765827672793165  1.0000
  C   C25       1.0  0.1060655384631843  0.19264103566796828  0.3735795987506877  1.0000
  C   C26       1.0  0.6307610546899196  0.8067851949691944  0.6261495100199497  1.0000
  C   C27       1.0  0.131789938839006  0.31947015598578343  0.38894121252108954  1.0000
  C   C28       1.0  0.6235698792931287  0.6795638556876471  0.6101830133226968  1.0000
  C   C29       1.0  0.028376446764880797  0.23993928419504584  0.0894078572440336  1.0000
  C   C30       1.0  0.6493736562912247  0.7599473358293239  0.9114238795112682  1.0000
  C   C31       1.0  0.007048024159047398  0.30449859983744443  0.12800638051143662  1.0000
  C   C32       1.0  0.6859718077518194  0.6958793399104055  0.8733958349118041  1.0000
  C   C33       1.0  0.04037355085925041  0.30905837199375  0.19048886855079417  1.0000
  C   C34       1.0  0.6688843452042407  0.6910392454589527  0.8102717954472283  1.0000
  C   C35       1.0  0.09181133777376967  0.2493619169462207  0.2168391794105275  1.0000
  C   C36       1.0  0.6168774757159172  0.7499242355867396  0.7828714390804876  1.0000
  C   C37       1.0  0.0979531419671247  0.18303718474356862  0.17697742592586246  1.0000
  C   C38       1.0  0.5932809736955703  0.8159940065437895  0.8225719467735145  1.0000
  C   C39       1.0  0.12155634924490498  0.2524977194601732  0.2828671119529602  1.0000
  C   C40       1.0  0.6033225987732679  0.7464096138175691  0.7162841043541661  1.0000
  C   C41       1.0  0.11568708695292432  0.18969500669946632  0.3090311690871843  1.0000
  C   C42       1.0  0.6061148343999534  0.8093559970853266  0.6903199704244614  1.0000
  C   C43       1.0  0.1159513051808929  0.12447356548975821  0.2679116245276703  1.0000
  C   C44       1.0  0.5860792112433159  0.8743515221751254  0.7313666472423249  1.0000
  C   C45       1.0  0.11505349397368289  0.1216693625810237  0.2053670948950312  1.0000
  C   C46       1.0  0.5729943913817762  0.8769964821505453  0.7937867855732818  1.0000
  C   C47       1.0  0.14740574581878008  0.31514493835733504  0.32531666428297257  1.0000
  C   C48       1.0  0.5949860675255324  0.6833865782784586  0.6733469221809613  1.0000
  C   C49       1.0  0.10617139014895831  0.2563818835213639  0.4117052595176602  1.0000
  C   C50       1.0  0.6466021114987086  0.7431336988214527  0.5880567385519199  1.0000
  C   C51       1.0  0.07344820655195862  0.17875283136796585  0.1120793036791525  1.0000
  C   C52       1.0  0.6039570476610833  0.8205877128624195  0.8878796933213878  1.0000
  C   C53       1.0  0.5847046262608514  0.07565504426641924  0.9231786171729724  1.0000
  C   C54       1.0  0.0855402006435284  0.9243475631369193  0.07676634368296929  1.0000
  C   C55       1.0  0.588317073878187  0.8905119937977944  0.9300337092869455  1.0000
  C   C56       1.0  0.0819719614548831  0.1089130491486685  0.069678147497612  1.0000
  N   N1        1.0  0.7439298017885816  0.7417023847521949  0.3188345821670993  1.0000
  N   N2        1.0  0.2504469868664572  0.2619519841841438  0.6824223602318255  1.0000
  N   N3        1.0  0.46959980718106215  0.7651878534322237  0.18700165980498434  1.0000
  N   N4        1.0  0.969092980790286  0.23631247965438723  0.8163314706799126  1.0000
  N   N5        1.0  0.09051200640838178  0.2566283841833084  0.47916047823659363  1.0000
  N   N6        1.0  0.6762029745237542  0.7431251418886974  0.5210982024181376  1.0000
  N   N7        1.0  0.12463100245157217  0.058294561003521  0.2930022940798196  1.0000
  N   N8        1.0  0.569564972443473  0.9403281960603849  0.7062025187134537  1.0000
  N   N9        1.0  0.21210119437161984  0.37971833013661893  0.30311364824924414  1.0000
  N   N10       1.0  0.5341591715799509  0.6175021698771985  0.6939702469738335  1.0000
  N   N11       1.0  0.9926257398795784  0.23822481377270324  0.022588894836196995  1.0000
  N   N12       1.0  0.670373369625274  0.7617881692202817  0.9788832746308032  1.0000
  O   O1        1.0  0.46108281471553164  0.4385375109091074  0.5548355989078502  1.0000
  O   O2        1.0  0.965872723891401  0.551940081772081  0.438468178363749  1.0000
  O   O3        1.0  0.802681255113349  0.586901964403751  0.5514817891651518  1.0000
  O   O4        1.0  0.3014288854595009  0.418647946033161  0.43982022476819077  1.0000
  O   O5        1.0  0.7990806723022529  0.44730331708476007  0.5623117219126712  1.0000
  O   O6        1.0  0.3043992540349548  0.5603517252571493  0.44288323303747024  1.0000
  O   O7        1.0  0.96182821555427  0.4120926261270626  0.4492619857194952  1.0000
  O   O8        1.0  0.4622787664025624  0.5803186868537225  0.5580055556449821  1.0000
  O   O9        1.0  0.6339826852594753  0.4930084461454315  0.46192602831467866  1.0000
  O   O10       1.0  0.13229288469388215  0.5061115737377835  0.5372879207959613  1.0000
  O   O11       1.0  0.7567314003167097  0.9180404156422455  0.9432527966688441  1.0000
  O   O12       1.0  0.2544192051231988  0.08472521878560002  0.054060911864233695  1.0000
  O   O13       1.0  0.41480489852476404  0.05572168346719049  0.9394399825831741  1.0000
  O   O14       1.0  0.9143747306210274  0.9402446323714386  0.057436085167132896  1.0000
  O   O15       1.0  0.41505536015961303  0.91470375235771  0.9443889937360267  1.0000
  O   O16       1.0  0.9128890048834393  0.08154506321177733  0.0574861512796829  1.0000
  O   O17       1.0  0.25398609352868107  0.9436769936158245  0.058773357893919395  1.0000
  O   O18       1.0  0.7540901850673903  0.059728433603815696  0.9437727138980349  1.0000
  O   O19       1.0  0.5829484308459882  0.0052689501579124024  0.037548184417787005  1.0000
  O   O20       1.0  0.08475870179846369  0.9942753415784725  0.9619905612147477  1.0000
  O   O21       1.0  0.7010978170707673  0.6831006383566348  0.3299692873271026  1.0000
  O   O22       1.0  0.6361128626925066  0.7948187511432253  0.3304517373224556  1.0000
  O   O23       1.0  0.20346494120656897  0.3210249767467772  0.6723298537696535  1.0000
  O   O24       1.0  0.1475806152272341  0.20896250591587776  0.6697972632221578  1.0000
  O   O25       1.0  0.5136632706176485  0.823606763729849  0.1757892044993383  1.0000
  O   O26       1.0  0.5758540157720587  0.7116531005805413  0.1750106557232556  1.0000
  O   O27       1.0  0.015963675869308205  0.1778759443077433  0.8278466291164505  1.0000
  O   O28       1.0  0.07128924468138112  0.2896232664617457  0.8284454960213595  1.0000
  O   O29       1.0  0.15385596409949903  0.308586906763864  0.5134167992824601  1.0000
  O   O30       1.0  0.017249560118195003  0.204681296157311  0.49616312943592783  1.0000
  O   O31       1.0  0.6242004460793139  0.6904118239276826  0.485578141356143  1.0000
  O   O32       1.0  0.7494821008778488  0.795964565520386  0.5056520910246861  1.0000
  O   O33       1.0  0.9883182465792687  0.016612245274529903  0.27878427394634997  1.0000
  O   O34       1.0  0.2687540379910515  0.050280856909324684  0.32659332963899596  1.0000
  O   O35       1.0  0.6942403234659124  0.9855446001117161  0.7233436351987521  1.0000
  O   O36       1.0  0.43067255705973645  0.9446883830362367  0.6697416536951123  1.0000
  O   O37       1.0  0.1053188723608542  0.4327655862172577  0.3161941513379531  1.0000
  O   O38       1.0  0.3721804065082494  0.3754058341083849  0.274271762126844  1.0000
  O   O39       1.0  0.36796463697889686  0.618521256162751  0.7189585249954291  1.0000
  O   O40       1.0  0.6505119224728304  0.566674839325046  0.6834393749878558  1.0000
  O   O41       1.0  0.8967138662173681  0.28786892796956215  0.0074108344989696  1.0000
  O   O42       1.0  0.06116334768878319  0.18770240415397418  0.9865577278759545  1.0000
  O   O43       1.0  0.7590293800003778  0.7118278426541452  0.9960124974161032  1.0000
  O   O44       1.0  0.5972703016603162  0.812717097983999  0.013443661102058998  1.0000
  F   F1        1.0  0.12547963741755547  0.0586269887352486  0.16945514165245606  1.0000
  F   F2        1.0  0.544102715684744  0.9396344680335817  0.8293539206226725  1.0000
