data_image0
_chemical_formula_structural       Cd2H18C18S2N8O12
_chemical_formula_sum              "Cd2 H18 C18 S2 N8 O12"
_cell_length_a       8.641000178404276
_cell_length_b       9.29286602783607
_cell_length_c       9.675967874029066
_cell_angle_alpha    75.48536881941028
_cell_angle_beta     79.64083183237385
_cell_angle_gamma    78.94739648171775

_space_group_name_H-M_alt    "P 1"
_space_group_IT_number       1

loop_
  _space_group_symop_operation_xyz
  'x, y, z'

loop_
  _atom_site_type_symbol
  _atom_site_label
  _atom_site_symmetry_multiplicity
  _atom_site_fract_x
  _atom_site_fract_y
  _atom_site_fract_z
  _atom_site_occupancy
  Cd  Cd1       1.0  0.0584245731756425  0.11389461937615411  0.1304072029025534  1.0000
  Cd  Cd2       1.0  0.9415773339875244  0.8861120328151061  0.8695883218449724  1.0000
  H   H1        1.0  0.1461585034913782  0.9475842648882066  0.44606241203353386  1.0000
  H   H2        1.0  0.8538434624926341  0.052408803790377996  0.5539323896003125  1.0000
  H   H3        1.0  0.3088649626143578  0.965367941380507  0.6258542779750299  1.0000
  H   H4        1.0  0.6911328841398473  0.03461497909442101  0.3741468209324523  1.0000
  H   H5        1.0  0.43518726986621914  0.20036526019888606  0.5843283043466273  1.0000
  H   H6        1.0  0.56482090128889  0.7996189815442349  0.4156760229115902  1.0000
  H   H7        1.0  0.38640033137158275  0.4039983510620361  0.3652936754469777  1.0000
  H   H8        1.0  0.6136097364263479  0.5959950032572509  0.6347132299731655  1.0000
  H   H9        1.0  0.30685789730403473  0.47603500972422813  0.13266841809191018  1.0000
  H   H10       1.0  0.693153766762059  0.5239560649607073  0.86733571213351  1.0000
  H   H11       1.0  0.10147643239162821  0.48990521361464806  0.19727499673933827  1.0000
  H   H12       1.0  0.8985332083949017  0.5101039300995751  0.8027290328716887  1.0000
  H   H13       1.0  0.3263758143598352  0.3220487494922892  0.8013394885841264  1.0000
  H   H14       1.0  0.6736112155913219  0.6779554891860969  0.19865999300099452  1.0000
  H   H15       1.0  0.4351074797928193  0.3811894518434187  0.9114127139135562  1.0000
  H   H16       1.0  0.5648916978257362  0.6188059119012054  0.08858711175189171  1.0000
  H   H17       1.0  0.6620198195763082  0.18414937781074772  0.8540744083540944  1.0000
  H   H18       1.0  0.3379691928237421  0.8158503461908353  0.1459238343187721  1.0000
  C   C1        1.0  0.19954177112549595  0.04795872491551732  0.4336956006208084  1.0000
  C   C2        1.0  0.8004529436327344  0.9520354007834797  0.566301097031321  1.0000
  C   C3        1.0  0.2915420079849298  0.0585949565059707  0.5334899999937264  1.0000
  C   C4        1.0  0.7084564803492552  0.9413971940374781  0.46652314515370813  1.0000
  C   C5        1.0  0.3597832557890684  0.18857539632309542  0.5100315125128675  1.0000
  C   C6        1.0  0.6402284082770323  0.8114156783618469  0.489972617712553  1.0000
  C   C7        1.0  0.3331871980415785  0.3019962739522839  0.38848639695908105  1.0000
  C   C8        1.0  0.6668198415566026  0.6979946291779128  0.6115102274912091  1.0000
  C   C9        1.0  0.23933145732088693  0.2835616732131285  0.2921672040930687  1.0000
  C   C10       1.0  0.7606471047471574  0.7164369336415959  0.7078422487113586  1.0000
  C   C11       1.0  0.20725796693345439  0.41182490575850755  0.16481731650395662  1.0000
  C   C12       1.0  0.7927427055822279  0.5881750867488762  0.8351883460849125  1.0000
  C   C13       1.0  0.35176999344892584  0.3053104840800955  0.9123553610629287  1.0000
  C   C14       1.0  0.6482174382479258  0.6946982384117036  0.08764086176068991  1.0000
  C   C15       1.0  0.4257205175210713  0.1442682839527691  0.9630279643927722  1.0000
  C   C16       1.0  0.5742795712259864  0.8557350684083502  0.03697590943247058  1.0000
  C   C17       1.0  0.5881903506994847  0.102129962510908  0.9192188018667764  1.0000
  C   C18       1.0  0.41180285774136377  0.8978662970214729  0.08077035777844092  1.0000
  S   S1        1.0  0.16111492617953618  0.3733561602673348  0.003955540904733803  1.0000
  S   S2        1.0  0.838878456704869  0.626651695596891  0.9960534105794422  1.0000
  N   N1        1.0  0.17397419567044642  0.15785170557007427  0.3154430961497283  1.0000
  N   N2        1.0  0.8260198543634728  0.8421459112035093  0.6845610946202499  1.0000
  N   N3        1.0  0.33924242032175306  0.0399170114289475  0.043904045454716815  1.0000
  N   N4        1.0  0.6607503209826647  0.96008161436675  0.9560928597895071  1.0000
  N   N5        1.0  0.9853886147601119  0.8034120138291598  0.2399691502777586  1.0000
  N   N6        1.0  0.014618552184870704  0.1965981105985932  0.7600267486838916  1.0000
  N   N7        1.0  0.7347334325731936  0.2814952486295539  0.13167967935073221  1.0000
  N   N8        1.0  0.2652698552800814  0.7185102778988297  0.8683148803612467  1.0000
  O   O1        1.0  0.93170468171661  0.6830935003694449  0.26802614398528135  1.0000
  O   O2        1.0  0.06829032199600962  0.3169187801362057  0.7319742059400198  1.0000
  O   O3        1.0  0.9194711623195246  0.9196872209296174  0.1500299789809105  1.0000
  O   O4        1.0  0.08054523587493631  0.0803240798169753  0.8499600526465513  1.0000
  O   O5        1.0  0.10043715281737062  0.8208707201270329  0.294540055379656  1.0000
  O   O6        1.0  0.8995698099698258  0.17913379567603732  0.7054593548246545  1.0000
  O   O7        1.0  0.7940441674778642  0.24977166591188654  0.24903921668425263  1.0000
  O   O8        1.0  0.20595111962872187  0.7502258625295254  0.7509575686480332  1.0000
  O   O9        1.0  0.5966358971135933  0.35126430655914487  0.12162888977020705  1.0000
  O   O10       1.0  0.40336549167168567  0.6487388554091283  0.8783603593761883  1.0000
  O   O11       1.0  0.8207383116180227  0.23998147856130464  0.021423162960417033  1.0000
  O   O12       1.0  0.17926787638253924  0.7600342553427312  0.9785704422752843  1.0000
