data_image0
_chemical_formula_structural       Hg2H20C44N12O4F12
_chemical_formula_sum              "Hg2 H20 C44 N12 O4 F12"
_cell_length_a       8.120791576012499
_cell_length_b       10.260742686219364
_cell_length_c       12.583653038239976
_cell_angle_alpha    96.89018614471047
_cell_angle_beta     90.00015931772262
_cell_angle_gamma    89.99986575691536

_space_group_name_H-M_alt    "P 1"
_space_group_IT_number       1

loop_
  _space_group_symop_operation_xyz
  'x, y, z'

loop_
  _atom_site_type_symbol
  _atom_site_label
  _atom_site_symmetry_multiplicity
  _atom_site_fract_x
  _atom_site_fract_y
  _atom_site_fract_z
  _atom_site_occupancy
  Hg  Hg1       1.0  0.9999989084219436  0.49999981862607945  0.5000011631482267  1.0000
  Hg  Hg2       1.0  0.5000001292957987  0.9999990203739628  0.49999841141717394  1.0000
  H   H1        1.0  0.0600552768729159  0.6285657979410572  0.8019968752685716  1.0000
  H   H2        1.0  0.5600541671859387  0.8714298393122772  0.19800079228804182  1.0000
  H   H3        1.0  0.9399464282613507  0.3714327016336654  0.19800442834071677  1.0000
  H   H4        1.0  0.4399438437221405  0.1285686556274328  0.8019981268220421  1.0000
  H   H5        1.0  0.0929164827231403  0.8569558051973374  0.900223032605432  1.0000
  H   H6        1.0  0.5929119242033281  0.6430387992083624  0.09977618459078035  1.0000
  H   H7        1.0  0.9070815281887616  0.14304367605731727  0.09977836577809285  1.0000
  H   H8        1.0  0.40708485529771105  0.3569596957323569  0.9002227345182734  1.0000
  H   H9        1.0  0.1524556313735772  0.003993166702350899  0.6088456622292783  1.0000
  H   H10       1.0  0.6524549780611082  0.49600571873102683  0.3911553347333766  1.0000
  H   H11       1.0  0.8475460737594743  0.9960063145492555  0.3911557361573232  1.0000
  H   H12       1.0  0.34754795847349834  0.5039927746585916  0.6088427895487671  1.0000
  H   H13       1.0  0.27089102802015924  0.4835113601687694  0.306241585662761  1.0000
  H   H14       1.0  0.7708844217357719  0.0164892868598301  0.6937566188669066  1.0000
  H   H15       1.0  0.7291106771167077  0.5164891073977741  0.6937622919972883  1.0000
  H   H16       1.0  0.22911112634783848  0.9835121469284611  0.30623940524487386  1.0000
  H   H17       1.0  0.9231717675259432  0.8013757538373197  0.28693574264013944  1.0000
  H   H18       1.0  0.4231698356477977  0.698622225719582  0.7130612246343164  1.0000
  H   H19       1.0  0.07682870619715489  0.19862470754615194  0.7130649556907046  1.0000
  H   H20       1.0  0.5768306380743837  0.3013762692180961  0.28693769447781403  1.0000
  C   C1        1.0  0.0794657328771819  0.7132183560188139  0.7590160572143321  1.0000
  C   C2        1.0  0.5794638184385473  0.7867782308584313  0.24098173746201482  1.0000
  C   C3        1.0  0.9205335094417677  0.2867811252348176  0.24098534117021597  1.0000
  C   C4        1.0  0.4205354238749094  0.21322026253423587  0.7590163868170451  1.0000
  C   C5        1.0  0.0982557042344325  0.839726856539883  0.8130176068188465  1.0000
  C   C6        1.0  0.5982514646273955  0.6602697008563111  0.18698101399679254  1.0000
  C   C7        1.0  0.9017423066774695  0.16027262471477136  0.18698379156467132  1.0000
  C   C8        1.0  0.4017465462777849  0.3397297742142484  0.8130172050585504  1.0000
  C   C9        1.0  0.1324551181230262  0.9207482569346936  0.6536681039119332  1.0000
  C   C10       1.0  0.632453018157669  0.5792492272071287  0.34633146350035576  1.0000
  C   C11       1.0  0.8675441241959232  0.07925122431894491  0.34633329447261474  1.0000
  C   C12       1.0  0.3675486869698901  0.4207492661835133  0.6536666607807505  1.0000
  C   C13       1.0  0.11537187417795987  0.7944092031426564  0.5984773815474542  1.0000
  C   C14       1.0  0.6153671792687304  0.7055892877967125  0.4015206625105848  1.0000
  C   C15       1.0  0.884626136732713  0.2055912597888749  0.40152411161338375  1.0000
  C   C16       1.0  0.38463452585882146  0.2944092055939294  0.5984774617705286  1.0000
  C   C17       1.0  0.1318761941942128  0.7769985454074514  0.4784093885528479  1.0000
  C   C18       1.0  0.6318731880447571  0.7230008984068093  0.5215879829525393  1.0000
  C   C19       1.0  0.8681218167164673  0.2230019175240726  0.5215921046079901  1.0000
  C   C20       1.0  0.3681297484886342  0.2769985766596861  0.4784102361069175  1.0000
  C   C21       1.0  0.09711710234621757  0.6455719267186382  0.310434019108179  1.0000
  C   C22       1.0  0.5971131948703102  0.8544295378498674  0.689563484033002  1.0000
  C   C23       1.0  0.9028846027885109  0.3544275560789885  0.6895681741104697  1.0000
  C   C24       1.0  0.4028860474373486  0.14557091580451237  0.31043324013659673  1.0000
  C   C25       1.0  0.20069447859672349  0.5477142482186466  0.26005458664663195  1.0000
  C   C26       1.0  0.7006868068284646  0.9522870453095249  0.7399430890794464  1.0000
  C   C27       1.0  0.7993072265384668  0.45228621780187683  0.739948496181377  1.0000
  C   C28       1.0  0.2993099726614403  0.0477163533775169  0.26005391942003814  1.0000
  C   C29       1.0  0.21015270438059017  0.5320312108568501  0.14916588007676526  1.0000
  C   C30       1.0  0.710146687555401  0.967970065505014  0.8508310165786173  1.0000
  C   C31       1.0  0.7898502321640847  0.4679672918089039  0.8508370131976407  1.0000
  C   C32       1.0  0.28985009193038275  0.032035294989768204  0.14916538664344617  1.0000
  C   C33       1.0  0.11967975342553669  0.6100447045833943  0.08734018585071371  1.0000
  C   C34       1.0  0.6196779179615107  0.8899557410474868  0.912657260110379  1.0000
  C   C35       1.0  0.8803219517104138  0.3899537965373554  0.9126619125906219  1.0000
  C   C36       1.0  0.3803225557483216  0.1100486393133835  0.08733984316949522  1.0000
  C   C37       1.0  0.0147145885969451  0.7046785219463843  0.13890395803829855  1.0000
  C   C38       1.0  0.514715271687777  0.7953211184327601  0.861094807911201  1.0000
  C   C39       1.0  0.9852871165390056  0.2953199791743587  0.8610981404030372  1.0000
  C   C40       1.0  0.4852864334361158  0.20468031998851194  0.13890360070185184  1.0000
  C   C41       1.0  0.0037614281258485  0.7246680749193997  0.24965136894586956  1.0000
  C   C42       1.0  0.5037592379226296  0.775330601872838  0.7503472839729783  1.0000
  C   C43       1.0  0.9962390455984715  0.2753314047871953  0.7503492346076615  1.0000
  C   C44       1.0  0.49624246720370724  0.22466887319467327  0.24965093508544106  1.0000
  N   N1        1.0  0.08795116490407649  0.6911920269220315  0.6522122980612864  1.0000
  N   N2        1.0  0.5879484069711508  0.8088055291663133  0.3477864003627432  1.0000
  N   N3        1.0  0.9120468460066035  0.3088084360094996  0.3477891950995515  1.0000
  N   N4        1.0  0.4120520667522526  0.19119198409448043  0.6522124239720741  1.0000
  N   N5        1.0  0.12438713117872877  0.9439217222482411  0.7603545412940776  1.0000
  N   N6        1.0  0.6243846471171467  0.556074793540155  0.23964491789712386  1.0000
  N   N7        1.0  0.8756108797331732  0.056077759006406304  0.23964685708944705  1.0000
  N   N8        1.0  0.375613363789263  0.4439236998535278  0.7603532063809058  1.0000
  N   N9        1.0  0.0839400323978552  0.6618601812539779  0.42416174884137814  1.0000
  N   N10       1.0  0.5839356911381586  0.8381373814594967  0.575836942897695  1.0000
  N   N11       1.0  0.9160579785174008  0.33813930309271706  0.5758412392062341  1.0000
  N   N12       1.0  0.4160635511719377  0.1618611088411299  0.4241595917172775  1.0000
  O   O1        1.0  0.1903111571630518  0.8713061075305788  0.43547707419897835  1.0000
  O   O2        1.0  0.6903086054017322  0.6286942261011532  0.5645228739487538  1.0000
  O   O3        1.0  0.8096880851546756  0.1286943553999365  0.56452441896289  1.0000
  O   O4        1.0  0.3096955625391685  0.37130623218722997  0.43547623472107955  1.0000
  F   F1        1.0  0.307254101897847  0.4376030310746017  0.09684952260320052  1.0000
  F   F2        1.0  0.8072433226103611  0.06240049939355429  0.9031482320136351  1.0000
  F   F3        1.0  0.6927500660514382  0.5623974349438825  0.9031535602268551  1.0000
  F   F4        1.0  0.19274976265015198  0.9376068229120024  0.09684756592792355  1.0000
  F   F5        1.0  0.13036658489178163  0.5917199791771212  0.979342788211014  1.0000
  F   F6        1.0  0.6303646186683237  0.9082784854523137  0.020654486002506207  1.0000
  F   F7        1.0  0.869636351651671  0.4082795051655096  0.02066019984070521  1.0000
  F   F8        1.0  0.36963585504516766  0.0917229498779264  0.9793423329454287  1.0000
  F   F9        1.0  0.9215471360428537  0.7751495733103653  0.07716632351305464  1.0000
  F   F10       1.0  0.4215472467411416  0.7248484104737186  0.9228314358880642  1.0000
  F   F11       1.0  0.0784558005001443  0.22484892780936147  0.922835774929304  1.0000
  F   F12       1.0  0.5784569211997522  0.2751520478146645  0.07716767278176923  1.0000
