data_image0
_chemical_formula_structural       Dy2H30C24S4O30
_chemical_formula_sum              "Dy2 H30 C24 S4 O30"
_cell_length_a       6.941291987990328
_cell_length_b       10.733646012421548
_cell_length_c       12.061713941112513
_cell_angle_alpha    95.98487214091814
_cell_angle_beta     103.23833242958531
_cell_angle_gamma    89.84597368843869

_space_group_name_H-M_alt    "P 1"
_space_group_IT_number       1

loop_
  _space_group_symop_operation_xyz
  'x, y, z'

loop_
  _atom_site_type_symbol
  _atom_site_label
  _atom_site_symmetry_multiplicity
  _atom_site_fract_x
  _atom_site_fract_y
  _atom_site_fract_z
  _atom_site_occupancy
  Dy  Dy1       1.0  0.2865603166975106  0.40316772884654034  0.21388827000277644  1.0000
  Dy  Dy2       1.0  0.7134421974073887  0.5968311183514744  0.7861119356276947  1.0000
  H   H1        1.0  0.5412654341020583  0.778624843892537  0.26661745001575105  1.0000
  H   H2        1.0  0.4587224052854352  0.22137777801776082  0.7333836169498725  1.0000
  H   H3        1.0  0.5119700323110479  0.16075519399165472  0.2673268997815016  1.0000
  H   H4        1.0  0.4880294346108016  0.8392417851634021  0.7326743815725794  1.0000
  H   H5        1.0  0.6555902511036319  0.27747215090316496  0.32545487049723937  1.0000
  H   H6        1.0  0.34440797646047366  0.722530451497903  0.6745442760083054  1.0000
  H   H7        1.0  0.7143104133378557  0.4143184135608066  0.16704284515271445  1.0000
  H   H8        1.0  0.28569362425648137  0.5856804287216022  0.832952590521174  1.0000
  H   H9        1.0  0.62256360076789  0.5515465750683859  0.16744990116993824  1.0000
  H   H10       1.0  0.37744036402713727  0.4484513321979832  0.8325495837870565  1.0000
  H   H11       1.0  0.015834123553865695  0.5721918950812679  0.33971661665471947  1.0000
  H   H12       1.0  0.9841758700776636  0.4278088128628994  0.6602839380003901  1.0000
  H   H13       1.0  0.07303731355014517  0.6473584519497564  0.24744247160069935  1.0000
  H   H14       1.0  0.9269622626217139  0.3526403991978809  0.7525548518760915  1.0000
  H   H15       1.0  0.1477783749941608  0.6431686598586382  0.09914951579145284  1.0000
  H   H16       1.0  0.8522195682340836  0.3568264463378412  0.9008480713296553  1.0000
  H   H17       1.0  0.2347466389641255  0.553002425604639  0.01281912110653853  1.0000
  H   H18       1.0  0.7652587328006105  0.446993605145643  0.9871803799089565  1.0000
  H   H19       1.0  0.628624653862552  0.5525049168426649  0.38930192673831243  1.0000
  H   H20       1.0  0.37137632200929  0.447492058180991  0.6106962409347647  1.0000
  H   H21       1.0  0.4278580368656931  0.5609036285406505  0.4305326770663315  1.0000
  H   H22       1.0  0.5721372963837082  0.43909897545741233  0.5694586184588034  1.0000
  H   H23       1.0  0.4058091440548353  0.744878553999392  0.9820389156093514  1.0000
  H   H24       1.0  0.5941915985733743  0.2551127999491172  0.01796035990431482  1.0000
  H   H25       1.0  0.9897184723853198  0.018942837599112704  0.8490622944817476  1.0000
  H   H26       1.0  0.0102853685181685  0.981052259521789  0.15093857253334164  1.0000
  H   H27       1.0  0.18600118315429628  0.7870424706065576  0.42346682814976344  1.0000
  H   H28       1.0  0.8140116389560959  0.21295448352120866  0.5765321023467466  1.0000
  H   H29       1.0  0.3309491953959878  0.16154901641892394  0.3711627249463163  1.0000
  H   H30       1.0  0.6690563587243259  0.8384526381512457  0.6288414651931121  1.0000
  C   C1        1.0  0.3731712822289807  0.8419854461262088  0.9686903977761221  1.0000
  C   C2        1.0  0.626828009607017  0.1580059088168468  0.03130536631623216  1.0000
  C   C3        1.0  0.18585892099603993  0.8715490534351743  0.9110178461426274  1.0000
  C   C4        1.0  0.8141420256948277  0.1284469842198135  0.08897940198682625  1.0000
  C   C5        1.0  0.13854428479800154  0.9972382429909245  0.8934907283717809  1.0000
  C   C6        1.0  0.8614581564055044  0.0027587302539658002  0.10650929444702942  1.0000
  C   C7        1.0  0.2808079359778262  0.09029862783445  0.9321894747720308  1.0000
  C   C8        1.0  0.7191929013609553  0.9096945988908588  0.06780749913992419  1.0000
  C   C9        1.0  0.4775867675209326  0.06406817440362998  0.990639186044817  1.0000
  C   C10       1.0  0.5224170878199104  0.9359259829959755  0.009355792599912132  1.0000
  C   C11       1.0  0.029833287838535186  0.77251991610499  0.8658470853160484  1.0000
  C   C12       1.0  0.9701647356629051  0.2274780025895993  0.13415408857370886  1.0000
  C   C13       1.0  0.16186329703601388  0.8871961862598496  0.43457587052153474  1.0000
  C   C14       1.0  0.8381348066365532  0.11280360599575093  0.5654246580420905  1.0000
  C   C15       1.0  0.27313801981679825  0.9684573529205593  0.39117961632925363  1.0000
  C   C16       1.0  0.7268630365324212  0.031544312475375605  0.6088306023020281  1.0000
  C   C17       1.0  0.2429612815712474  0.0985695326305205  0.4052166595710603  1.0000
  C   C18       1.0  0.7570339134513446  0.9014321398804626  0.5947861384772893  1.0000
  C   C19       1.0  0.10003382014856747  0.1461219816656509  0.45867137452457035  1.0000
  C   C20       1.0  0.8999587576254483  0.8538871890390142  0.5413259600655992  1.0000
  C   C21       1.0  0.9826700955745976  0.0665191060299577  0.5063977879556277  1.0000
  C   C22       1.0  0.0173235464713173  0.9334788172166953  0.49359616422135133  1.0000
  C   C23       1.0  0.42258866200509  0.9251058975119407  0.32531140160807587  1.0000
  C   C24       1.0  0.5774080857899974  0.0748976463891893  0.6746917781220959  1.0000
  S   S1        1.0  0.2132157859176189  0.24569530790680721  0.9046017708905583  1.0000
  S   S2        1.0  0.7867836955436827  0.7543016704640306  0.09539785418794373  1.0000
  S   S3        1.0  0.06809827521777119  0.3117775442180886  0.4615686949541599  1.0000
  S   S4        1.0  0.9319003168533087  0.6882344279485793  0.5384313656096966  1.0000
  O   O1        1.0  0.07105146052143138  0.6552647504250403  0.865817455984221  1.0000
  O   O2        1.0  0.9289466649602998  0.34473504065424265  0.13418058816603917  1.0000
  O   O3        1.0  0.8535055638900033  0.8055537773982805  0.8277966381490601  1.0000
  O   O4        1.0  0.14648943433964937  0.19444321101411077  0.17220735914571617  1.0000
  O   O5        1.0  0.26536742449484046  0.32749780170159687  0.01283958742627791  1.0000
  O   O6        1.0  0.7346215157173289  0.6724954486643426  0.9871624206267671  1.0000
  O   O7        1.0  0.326780405226465  0.28403844390442157  0.8237979242874475  1.0000
  O   O8        1.0  0.673222269322757  0.7159650893527071  0.17620522278554065  1.0000
  O   O9        1.0  0.9980598484075853  0.23962762659641615  0.8545130014632961  1.0000
  O   O10       1.0  0.0019396110403775047  0.7603674750765564  0.14548064383900797  1.0000
  O   O11       1.0  0.44485546052462144  0.8015425194603836  0.31581959427432343  1.0000
  O   O12       1.0  0.5551453479394367  0.19845258670752494  0.6841891563783449  1.0000
  O   O13       1.0  0.516383612655531  0.9972985436507072  0.28251836595748614  1.0000
  O   O14       1.0  0.48359652850113827  0.0026965956540863  0.717481803548509  1.0000
  O   O15       1.0  0.18465896447958838  0.3531631614928373  0.38440698758233804  1.0000
  O   O16       1.0  0.8153484340188014  0.6468478602799621  0.6155983154855563  1.0000
  O   O17       1.0  0.15001481652170406  0.3656649617135415  0.5810448245336631  1.0000
  O   O18       1.0  0.8499881058105956  0.6343441918345292  0.4189555584231571  1.0000
  O   O19       1.0  0.8558998237354059  0.33314829540478286  0.42567980139651257  1.0000
  O   O20       1.0  0.1441023330982105  0.666878662084578  0.5743196349875818  1.0000
  O   O21       1.0  0.5279906656208837  0.25290934493229855  0.27115095764989416  1.0000
  O   O22       1.0  0.47200446387211764  0.747091392170546  0.7288550615437901  1.0000
  O   O23       1.0  0.5914403624519904  0.4617634143556516  0.16669522868861011  1.0000
  O   O24       1.0  0.40856362425428466  0.5382354306714917  0.8333060039498011  1.0000
  O   O25       1.0  0.10531655279986299  0.571386805390553  0.28659050777025646  1.0000
  O   O26       1.0  0.8946980044386023  0.4286176439472484  0.7134134935320093  1.0000
  O   O27       1.0  0.2333730627500543  0.5700802496337901  0.09354474531281914  1.0000
  O   O28       1.0  0.7666413704947883  0.4299204506214523  0.9064564059527529  1.0000
  O   O29       1.0  0.4959167179943761  0.5124583502425537  0.37880398303895657  1.0000
  O   O30       1.0  0.5040858106499683  0.4875404961712492  0.6211945663159357  1.0000
