data_image0
_chemical_formula_structural       Mn4H20C16O26
_chemical_formula_sum              "Mn4 H20 C16 O26"
_cell_length_a       7.5345543178170455
_cell_length_b       8.867591022010851
_cell_length_c       10.820412219794248
_cell_angle_alpha    89.98267482936008
_cell_angle_beta     89.98676383398518
_cell_angle_gamma    95.75687843369734

_space_group_name_H-M_alt    "P 1"
_space_group_IT_number       1

loop_
  _space_group_symop_operation_xyz
  'x, y, z'

loop_
  _atom_site_type_symbol
  _atom_site_label
  _atom_site_symmetry_multiplicity
  _atom_site_fract_x
  _atom_site_fract_y
  _atom_site_fract_z
  _atom_site_occupancy
  Mn  Mn1       1.0  0.170416355636867  0.26449687412416983  0.8068869830044391  1.0000
  Mn  Mn2       1.0  0.8298684079079166  0.735296879895664  0.3068454437074735  1.0000
  Mn  Mn3       1.0  0.274371143036646  0.26357975502973835  0.2970664943184076  1.0000
  Mn  Mn4       1.0  0.725474917738758  0.7363528768369036  0.7970909096739901  1.0000
  H   H1        1.0  0.4188938736046878  0.0516654850626495  0.743763015424129  1.0000
  H   H2        1.0  0.5807793415553846  0.947702251281946  0.24385786345067825  1.0000
  H   H3        1.0  0.125867999074444  0.22169409753695396  0.5359754412213319  1.0000
  H   H4        1.0  0.8743226374790325  0.7785131040378632  0.0360455909810966  1.0000
  H   H5        1.0  0.9922623870722802  0.444932602336607  0.6773997505223974  1.0000
  H   H6        1.0  0.008083792999620696  0.555372468675195  0.17738313360313634  1.0000
  H   H7        1.0  0.5003610692621976  0.46247398369780535  0.40626658548931965  1.0000
  H   H8        1.0  0.49993067729673146  0.536639250452062  0.9062041985312275  1.0000
  H   H9        1.0  0.2730130686793188  0.8748592779577182  0.6450802041900444  1.0000
  H   H10       1.0  0.7257974189836814  0.12486169697722724  0.14500016188197404  1.0000
  H   H11       1.0  0.09811094924109658  0.9205906473509633  0.4621896057933411  1.0000
  H   H12       1.0  0.9014559985875508  0.07950336885611621  0.962189052484021  1.0000
  H   H13       1.0  0.15146343860375572  0.638247239300583  0.6241846233638383  1.0000
  H   H14       1.0  0.8492490320359208  0.36195483425203895  0.12434535880242237  1.0000
  H   H15       1.0  0.3755070034032073  0.6487302501491499  0.4704034377530064  1.0000
  H   H16       1.0  0.6257406706625517  0.3509083388271534  0.9704865300912003  1.0000
  H   H17       1.0  0.1782538520427863  0.16118128899762504  0.045202658103342196  1.0000
  H   H18       1.0  0.8213384277505328  0.8390225591621815  0.5450626439624457  1.0000
  H   H19       1.0  0.3611596437255074  0.1311956864528625  0.9692898063971283  1.0000
  H   H20       1.0  0.6385067701331337  0.8686299422287079  0.46903659016047766  1.0000
  C   C1        1.0  0.028629537253579022  0.9700478136904352  0.6947568280308615  1.0000
  C   C2        1.0  0.9706760455234615  0.030552683727997014  0.19473088013464226  1.0000
  C   C3        1.0  0.21473229921848266  0.9827984329193316  0.6358924930359109  1.0000
  C   C4        1.0  0.7845654338334924  0.017133720463625903  0.1358705760543231  1.0000
  C   C5        1.0  0.1954949540479873  0.0113955759229185  0.49691152444297854  1.0000
  C   C6        1.0  0.8040485995214013  0.9886369826797933  0.996905349533229  1.0000
  C   C7        1.0  0.366920048761351  0.9872693660847389  0.4265597769087961  1.0000
  C   C8        1.0  0.6327025267363878  0.012724076281223509  0.9264667080148141  1.0000
  C   C9        1.0  0.375766378435813  0.5476198104183253  0.7048534124684308  1.0000
  C   C10       1.0  0.6246748835738316  0.4520638058355502  0.205008774710457  1.0000
  C   C11       1.0  0.2219879765546082  0.5362377129804231  0.6113714692179569  1.0000
  C   C12       1.0  0.778471978393  0.463825238298064  0.11149132047884788  1.0000
  C   C13       1.0  0.2908627096957446  0.540465475439561  0.4790729384888833  1.0000
  C   C14       1.0  0.709798598840422  0.4594597116208162  0.9791953064125634  1.0000
  C   C15       1.0  0.1410324950626958  0.5525294837329399  0.3855036779478738  1.0000
  C   C16       1.0  0.8598404473800159  0.44793133648412464  0.8856717927462014  1.0000
  O   O1        1.0  0.9353034581381579  0.841397008566382  0.6835517594690543  1.0000
  O   O2        1.0  0.0633369258222487  0.15954822575984207  0.18351167382937209  1.0000
  O   O3        1.0  0.9769897611415246  0.08621308059775862  0.7446775903216007  1.0000
  O   O4        1.0  0.02293406101991738  0.9146241296115037  0.24465189407186463  1.0000
  O   O5        1.0  0.3306696045098647  0.1012079159476826  0.6938572528598569  1.0000
  O   O6        1.0  0.669041997174361  0.8983887020811996  0.1938274738911829  1.0000
  O   O7        1.0  0.1288238290154595  0.1524681001187034  0.46509461617574727  1.0000
  O   O8        1.0  0.8707191804545004  0.8475889683534207  0.965087894119051  1.0000
  O   O9        1.0  0.4210406569142648  0.07634439883700853  0.33852013557253696  1.0000
  O   O10       1.0  0.5785821289488736  0.9235192083276189  0.8385842286285268  1.0000
  O   O11       1.0  0.439213532802313  0.8712901442789943  0.4579018003092585  1.0000
  O   O12       1.0  0.5604588848490554  0.12879827833948815  0.9575696109278551  1.0000
  O   O13       1.0  0.5017419939963546  0.6497855068228733  0.6869451512531055  1.0000
  O   O14       1.0  0.4987565271824863  0.3499130706726845  0.18690915849398237  1.0000
  O   O15       1.0  0.3622987094994841  0.45784598373870733  0.7982834842743782  1.0000
  O   O16       1.0  0.6381173338279641  0.5413992986819949  0.298671450313968  1.0000
  O   O17       1.0  0.0963612928858808  0.40545190591689123  0.6341536730856703  1.0000
  O   O18       1.0  0.9038260064020492  0.5947922534456893  0.13428963521057818  1.0000
  O   O19       1.0  0.3932531713488387  0.41670262017558474  0.4532659991361426  1.0000
  O   O20       1.0  0.6067234938470706  0.5827536350958908  0.9532557147206687  1.0000
  O   O21       1.0  0.1372803096518993  0.4714581872095281  0.2873624879206389  1.0000
  O   O22       1.0  0.8630658381083904  0.5288868510172051  0.7874360431553312  1.0000
  O   O23       1.0  0.034084752020376585  0.6492489021494308  0.40970163537369325  1.0000
  O   O24       1.0  0.9673090890311967  0.3516234382690442  0.9098785543427537  1.0000
  O   O25       1.0  0.2291092173928533  0.1435594970714007  0.9630290866410218  1.0000
  O   O26       1.0  0.7705247410168354  0.8560955373121785  0.46278302270293636  1.0000
