data_image0
_chemical_formula_structural       Cu4H20C24N4Cl4
_chemical_formula_sum              "Cu4 H20 C24 N4 Cl4"
_cell_length_a       3.6819590008576637
_cell_length_b       10.574883879998216
_cell_length_c       14.992019684031321
_cell_angle_alpha    89.99992811654973
_cell_angle_beta     90.00024218058469
_cell_angle_gamma    94.63733185382833

_space_group_name_H-M_alt    "P 1"
_space_group_IT_number       1

loop_
  _space_group_symop_operation_xyz
  'x, y, z'

loop_
  _atom_site_type_symbol
  _atom_site_label
  _atom_site_symmetry_multiplicity
  _atom_site_fract_x
  _atom_site_fract_y
  _atom_site_fract_z
  _atom_site_occupancy
  Cu  Cu1       1.0  0.764156903425075  0.062204436887292006  0.4377319419103713  1.0000
  Cu  Cu2       1.0  0.23584516270189235  0.4377985890670929  0.9377308303606994  1.0000
  Cu  Cu3       1.0  0.23583225928054224  0.9377952778541784  0.5622695246640461  1.0000
  Cu  Cu4       1.0  0.7641664818187696  0.5622038575876476  0.0622666340956641  1.0000
  H   H1        1.0  0.7646897493223436  0.8727309418926482  0.0092276138088039  1.0000
  H   H2        1.0  0.23530272486149076  0.6272682935722786  0.5092254398340117  1.0000
  H   H3        1.0  0.23530791309834603  0.12726017812946114  0.9907745197955934  1.0000
  H   H4        1.0  0.764693689964723  0.37273803312091763  0.4907740256768847  1.0000
  H   H5        1.0  0.5675837626886207  0.8123873565964176  0.1516793192484229  1.0000
  H   H6        1.0  0.4324188494315779  0.687610695394767  0.6516773091041941  1.0000
  H   H7        1.0  0.4324117095535201  0.18760567494516073  0.8483248154185361  1.0000
  H   H8        1.0  0.5675955074353427  0.31239173700907236  0.3483221564182699  1.0000
  H   H9        1.0  0.10831030570723502  0.20328238867591614  0.2894392915956487  1.0000
  H   H10       1.0  0.8916891446026015  0.29671988860740595  0.7894396918506317  1.0000
  H   H11       1.0  0.8916891841786172  0.7967153717965517  0.7105615079637674  1.0000
  H   H12       1.0  0.108308938287415  0.7032826292932487  0.2105604406843895  1.0000
  H   H13       1.0  0.16996143109467005  0.17828786384817624  0.1262365091017301  1.0000
  H   H14       1.0  0.8300265074927825  0.3217118303485834  0.626236152633247  1.0000
  H   H15       1.0  0.8300291385908951  0.8217070934664576  0.8737636234324739  1.0000
  H   H16       1.0  0.1699615092690793  0.6782935904580613  0.3737626458518974  1.0000
  H   H17       1.0  0.5247158412713376  0.8543396300389008  0.3159920284721949  1.0000
  H   H18       1.0  0.4752901631995103  0.6456610462912523  0.8159901022381036  1.0000
  H   H19       1.0  0.4752619499927775  0.14565824442811962  0.6840114391613881  1.0000
  H   H20       1.0  0.5247345208476446  0.35433943184359157  0.18400869626936608  1.0000
  C   C1        1.0  0.8750860472664144  0.9907317367131372  0.1241280855805584  1.0000
  C   C2        1.0  0.12491174696801018  0.509270175471791  0.624125226642697  1.0000
  C   C3        1.0  0.12490994709047243  0.009263192101514101  0.8758733809997139  1.0000
  C   C4        1.0  0.87509202162952  0.49073326256721134  0.375872237808899  1.0000
  C   C5        1.0  0.9055897671959486  0.9626650801400773  0.0301474482908404  1.0000
  C   C6        1.0  0.09442499891912359  0.5373349617520875  0.5301492003712625  1.0000
  C   C7        1.0  0.0944141030946639  0.03732885728940262  0.9698553523372694  1.0000
  C   C8        1.0  0.9056042249871086  0.462672142578178  0.4698562683511582  1.0000
  C   C9        1.0  0.6901103520307931  0.9005322525681483  0.18043064426996122  1.0000
  C   C10       1.0  0.30988781410543714  0.5994676864240917  0.6804279096484933  1.0000
  C   C11       1.0  0.30988564233668836  0.09946267624560791  0.8195721563533809  1.0000
  C   C12       1.0  0.6901184057597903  0.40053478872928155  0.3195702218264103  1.0000
  C   C13       1.0  0.9904753877611728  0.11819364387336859  0.2561681126223689  1.0000
  C   C14       1.0  0.009518109566911927  0.38180870677390305  0.7561681353501655  1.0000
  C   C15       1.0  0.00950626173469265  0.8817985102825363  0.743832686929693  1.0000
  C   C16       1.0  0.9904872254490016  0.6182004230780294  0.24383066314287302  1.0000
  C   C17       1.0  0.02490403254395801  0.10319089117309942  0.1651104773984144  1.0000
  C   C18       1.0  0.9750907311891199  0.39681156801217565  0.665109547574218  1.0000
  C   C19       1.0  0.9750914396664072  0.8968021403711791  0.8348896551393281  1.0000
  C   C20       1.0  0.024909440218138536  0.603198538975832  0.33488724985094354  1.0000
  C   C21       1.0  0.6647617409363422  0.9231396871634705  0.27110285996709393  1.0000
  C   C22       1.0  0.33523864821243193  0.5768629754675701  0.7711015070776597  1.0000
  C   C23       1.0  0.33523310750856444  0.07686094771364792  0.7288999406531218  1.0000
  C   C24       1.0  0.6647675716633829  0.4231394996849078  0.2288979584403208  1.0000
  N   N1        1.0  0.8126259186248249  0.030605342802999806  0.3101127529546233  1.0000
  N   N2        1.0  0.18737088656161666  0.4693959722172283  0.8101128944535532  1.0000
  N   N3        1.0  0.18736027066657368  0.9693934375537269  0.6898867125539638  1.0000
  N   N4        1.0  0.8126350722409441  0.5306055543000597  0.1898859040431589  1.0000
  Cl  Cl1       1.0  0.6985338344805286  0.837040617778854  0.4981036854621835  1.0000
  Cl  Cl2       1.0  0.3014617611777482  0.6629608328663184  0.9981008859201168  1.0000
  Cl  Cl3       1.0  0.3014612750058561  0.16296096573615423  0.5018957800500772  1.0000
  Cl  Cl4       1.0  0.6985491001125439  0.33703876788375453  0.0018932434293858998  1.0000
