data_image0
_chemical_formula_structural       Ag4H52C44S4N8O20
_chemical_formula_sum              "Ag4 H52 C44 S4 N8 O20"
_cell_length_a       6.947366826
_cell_length_b       11.52894471573447
_cell_length_c       17.1007
_cell_angle_alpha    104.96001919979446
_cell_angle_beta     90.0
_cell_angle_gamma    90.0

_space_group_name_H-M_alt    "P 1"
_space_group_IT_number       1

loop_
  _space_group_symop_operation_xyz
  'x, y, z'

loop_
  _atom_site_type_symbol
  _atom_site_label
  _atom_site_symmetry_multiplicity
  _atom_site_fract_x
  _atom_site_fract_y
  _atom_site_fract_z
  _atom_site_occupancy
  Ag  Ag1       1.0  0.33878591111550077  0.055637431543153995  0.7709564362789507  1.0000
  Ag  Ag2       1.0  0.8387897380330427  0.9443630261615823  0.7290441696724415  1.0000
  Ag  Ag3       1.0  0.6612087881711659  0.9443621283492334  0.22904752204898668  1.0000
  Ag  Ag4       1.0  0.16121215822496987  0.055636533730798  0.2709556952558074  1.0000
  H   H1        1.0  0.19592890861986226  0.7441921707110098  0.0409707990168613  1.0000
  H   H2        1.0  0.695918341594705  0.2558082869937266  0.4590262983062203  1.0000
  H   H3        1.0  0.8040816240037711  0.2558011044948998  0.9590268026063457  1.0000
  H   H4        1.0  0.3040777970862222  0.7441948641480707  0.5409730220862768  1.0000
  H   H5        1.0  0.3331218946635771  0.9516613427827637  0.0598692706759465  1.0000
  H   H6        1.0  0.8331127670326948  0.0483391149219798  0.4401301657326755  1.0000
  H   H7        1.0  0.6668857591715137  0.04833283023550191  0.9401302415131668  1.0000
  H   H8        1.0  0.16688049285969694  0.9516640362198245  0.55987090897397  1.0000
  H   H9        1.0  0.20228095553277825  0.49235849900600204  0.9017775489233344  1.0000
  H   H10       1.0  0.7022833430560524  0.5076419586987413  0.5982242265708279  1.0000
  H   H11       1.0  0.7977151831481564  0.5076410608863853  0.0982246550904549  1.0000
  H   H12       1.0  0.2977271895675742  0.49235580556894115  0.4017747410825335  1.0000
  H   H13       1.0  0.2420370252664696  0.4754930939464828  0.0014709071046681036  1.0000
  H   H14       1.0  0.7420394127897438  0.5245064659458976  0.49853071213773603  1.0000
  H   H15       1.0  0.7579591134144577  0.5245055681335486  0.9985311406573628  1.0000
  H   H16       1.0  0.2579725592281576  0.4754921961341338  0.5014689965387618  1.0000
  H   H17       1.0  0.0666669850031028  0.3816734986359123  0.9352993377204867  1.0000
  H   H18       1.0  0.5666664937378413  0.6183260612564752  0.5647011119791472  1.0000
  H   H19       1.0  0.9333305930720996  0.6183251634441191  0.06470154049877408  1.0000
  H   H20       1.0  0.4333397207029819  0.38166900957413924  0.435296217376191  1.0000
  H   H21       1.0  0.276064305806095  0.5942557120605443  0.6708437432757819  1.0000
  H   H22       1.0  0.7760695721179118  0.4057420522071311  0.8291581482344981  1.0000
  H   H23       1.0  0.7239347116633752  0.4057402565824262  0.32915549664545546  1.0000
  H   H24       1.0  0.22392944535155826  0.5942557120605443  0.17084198896163366  1.0000
  H   H25       1.0  0.5425811094201762  0.575082929252666  0.8961783280206747  1.0000
  H   H26       1.0  0.04257584310835939  0.42491752845207026  0.6038211083879474  1.0000
  H   H27       1.0  0.4574222262321044  0.4249121415779484  0.10382017087742669  1.0000
  H   H28       1.0  0.9574217349668428  0.575083827065022  0.3961784842724256  1.0000
  H   H29       1.0  0.3699185697784273  0.4698413651815301  0.7686435766214216  1.0000
  H   H30       1.0  0.8699195179074336  0.5301563990861453  0.7313577301174732  1.0000
  H   H31       1.0  0.6300804476910427  0.5301546034614404  0.2313556632998157  1.0000
  H   H32       1.0  0.13007949956204357  0.4698413651815301  0.2686424070786586  1.0000
  H   H33       1.0  0.9849818170519598  0.6607755271398332  0.9188424927965784  1.0000
  H   H34       1.0  0.484975111345875  0.3392285218143201  0.5811569838476771  1.0000
  H   H35       1.0  0.015017200417510397  0.3392222371278422  0.08115705962816828  1.0000
  H   H36       1.0  0.5150181485465168  0.6607782205768942  0.4188429615518388  1.0000
  H   H37       1.0  0.3811645572088835  0.8088615945298514  0.7014335399768683  1.0000
  H   H38       1.0  0.8811741417035107  0.19113706755018  0.7985673382423926  1.0000
  H   H39       1.0  0.6188330208663115  0.1911343741131191  0.29856569994436905  1.0000
  H   H40       1.0  0.11882919394876977  0.8088615945298514  0.2014323704341052  1.0000
  H   H41       1.0  0.2666132430301573  0.0627310469477393  0.9522491076582823  1.0000
  H   H42       1.0  0.7666141911591635  0.9372730020064068  0.5477532928428843  1.0000
  H   H43       1.0  0.7333828956507701  0.937268512944641  0.04775368112688483  1.0000
  H   H44       1.0  0.23338194752177086  0.0627319447600954  0.4522510182241888  1.0000
  H   H45       1.0  0.9430090801426729  0.781515128056185  0.8160547610155149  1.0000
  H   H46       1.0  0.4430110108022092  0.2184898187103173  0.6839437023377215  1.0000
  H   H47       1.0  0.05698705853825459  0.2184862274609074  0.1839471707303986  1.0000
  H   H48       1.0  0.5569894460615286  0.7815187193056018  0.31605538602252636  1.0000
  H   H49       1.0  0.6223796883472656  0.793306097694014  0.9202967841249147  1.0000
  H   H50       1.0  0.12237442203544897  0.2066934621983734  0.5797013264891859  1.0000
  H   H51       1.0  0.37762364730501463  0.2066889731366004  0.07970171477318638  1.0000
  H   H52       1.0  0.8776260348282958  0.7933069955063701  0.4202969403766729  1.0000
  C   C1        1.0  0.16447670442902043  0.796122535046777  0.9976060234570241  1.0000
  C   C2        1.0  0.6644690161924058  0.2038806160950202  0.5023915426213179  1.0000
  C   C3        1.0  0.8355280706175277  0.2038743314085423  0.002392203173194202  1.0000
  C   C4        1.0  0.3355256830942536  0.7961243306714891  0.49760867504606665  1.0000
  C   C5        1.0  0.24453581371895433  0.9101213608134415  0.007483183533423724  1.0000
  C   C6        1.0  0.7445295648766148  0.0898799947036437  0.4925158243555713  1.0000
  C   C7        1.0  0.755468961327594  0.0898755056418779  0.9925162126395718  1.0000
  C   C8        1.0  0.2554651344100449  0.9101249520628584  0.5074855628545832  1.0000
  C   C9        1.0  0.20499133494293176  0.4282726532169008  0.9391573997480973  1.0000
  C   C10       1.0  0.704992283071938  0.5717278044878356  0.5608432062032875  1.0000
  C   C11       1.0  0.7950048037379958  0.5717269066754795  0.06084363472292151  1.0000
  C   C12       1.0  0.29501537076315276  0.4282708575921959  0.4391553329304401  1.0000
  C   C13       1.0  0.3591087188117327  0.6313865375620793  0.7256120567294602  1.0000
  C   C14       1.0  0.8591125457292818  0.3686103288932472  0.7743885089862985  1.0000
  C   C15       1.0  0.6408888592634696  0.3686085332685352  0.2743864421686411  1.0000
  C   C16       1.0  0.1408864717401954  0.6313865375620793  0.2256120567294602  1.0000
  C   C17       1.0  0.5052504190312064  0.6225538596288587  0.8508486097786658  1.0000
  C   C18       1.0  0.0052480315079322  0.3774439046388167  0.649151527417466  1.0000
  C   C19       1.0  0.49475147722680646  0.3774412112017558  0.14914988911943539  1.0000
  C   C20       1.0  0.9947509859615378  0.6225547574412147  0.3508481812590318  1.0000
  C   C21       1.0  0.408171911894378  0.5645031084796415  0.7800510924563041  1.0000
  C   C22       1.0  0.9081742994176522  0.43549645141274596  0.7199487724719518  1.0000
  C   C23       1.0  0.5918285449693597  0.4354919623509801  0.21994799121318212  1.0000
  C   C24       1.0  0.0918261574460857  0.5645031084796415  0.280049922913534  1.0000
  C   C25       1.0  0.05162387548873679  0.7489523718089899  0.9293757777683496  1.0000
  C   C26       1.0  0.5516205054349326  0.2510516771451634  0.5706213597903655  1.0000
  C   C27       1.0  0.9483780207692758  0.2510471880833904  0.0706235023885142  1.0000
  C   C28       1.0  0.44837707264026955  0.7489559630584068  0.42937698754674614  1.0000
  C   C29       1.0  0.4111989580439043  0.7510397855307573  0.7412251426122722  1.0000
  C   C30       1.0  0.9112027849614532  0.2489597743616301  0.7587753070873615  1.0000
  C   C31       1.0  0.5888000594255658  0.2489552852998571  0.2587727715144439  1.0000
  C   C32       1.0  0.0887976719022916  0.7510415811554623  0.24122545511578147  1.0000
  C   C33       1.0  0.21128148790224793  0.9735437232733446  0.9502565066365135  1.0000
  C   C34       1.0  0.7112795572427117  0.026462121305513602  0.5497456215967844  1.0000
  C   C35       1.0  0.7887204083557648  0.0264576322437478  0.049745425109399805  1.0000
  C   C36       1.0  0.2887180208324906  0.9735455188980495  0.45025857345417103  1.0000
  C   C37       1.0  0.02290220222783289  0.813514955957764  0.8723130390866557  1.0000
  C   C38       1.0  0.5229031503568393  0.18648729737167707  0.6276867098254684  1.0000
  C   C39       1.0  0.9770896182702842  0.1864828083099113  0.1276870981094689  1.0000
  C   C40       1.0  0.4770958671126308  0.8135185472071811  0.37231424886505227  1.0000
  C   C41       1.0  0.5521602782861308  0.7428257003090621  0.8653945474098776  1.0000
  C   C42       1.0  0.0521593301571244  0.2571747573956742  0.6346048889987443  1.0000
  C   C43       1.0  0.4478387391833393  0.2571702683339083  0.1346046925113598  1.0000
  C   C44       1.0  0.9478411267066134  0.7428265981214182  0.3653947036616358  1.0000
  S   S1        1.0  0.3879038011803999  0.3194990953473038  0.9012188809889564  1.0000
  S   S2        1.0  0.8879047493094061  0.6805013623574325  0.5987811401910507  1.0000
  S   S3        1.0  0.6120923375005345  0.6804995667327276  0.09878141245892642  1.0000
  S   S4        1.0  0.11210002573714917  0.3194990953473038  0.4012182962175714  1.0000
  N   N1        1.0  0.1020732052532622  0.9244585262856474  0.883795229081926  1.0000
  N   N2        1.0  0.602077032170804  0.0755473182932107  0.6162051448372168  1.0000
  N   N3        1.0  0.8979229334276723  0.0755419314190888  0.1162065464122364  1.0000
  N   N4        1.0  0.39792630348147634  0.9244612197227084  0.3837968673799494  1.0000
  N   N5        1.0  0.5077045862613261  0.8057515725375026  0.8103527153473352  1.0000
  N   N6        1.0  0.0077050775265946  0.1942479873548777  0.6896471495809139  1.0000
  N   N7        1.0  0.4922958706024118  0.19424349829311177  0.18964636832215118  1.0000
  N   N8        1.0  0.9922968187314181  0.8057515725375026  0.31035213057595  1.0000
  O   O1        1.0  0.34647803409366407  0.2741461043128979  0.8132624344467558  1.0000
  O   O2        1.0  0.8464789822226633  0.7258552512041945  0.6867383277563873  1.0000
  O   O3        1.0  0.6535209833758131  0.7258552512041945  0.18673891252776537  1.0000
  O   O4        1.0  0.15352435342961704  0.2741452065005419  0.3132605238808567  1.0000
  O   O5        1.0  0.5728055102988137  0.3833559989862678  0.9166326957064327  1.0000
  O   O6        1.0  0.0728060015640821  0.6166462543431734  0.5833676379770765  1.0000
  O   O7        1.0  0.4271935071706564  0.6166453565308245  0.08336865126809559  1.0000
  O   O8        1.0  0.9271987734824731  0.38335689679862384  0.41663226718680585  1.0000
  O   O9        1.0  0.3667533417789883  0.22629719493590272  0.9451023588180192  1.0000
  O   O10       1.0  0.8667557293022696  0.7737032627688336  0.5548982471333659  1.0000
  O   O11       1.0  0.6332442362962141  0.7737023649564847  0.054898090881614785  1.0000
  O   O12       1.0  0.13324760635001806  0.2262980927482516  0.4451019302983923  1.0000
  O   O13       1.0  0.5598797497554244  0.9194442442916468  0.8244711546171715  1.0000
  O   O14       1.0  0.059881680414953585  0.0805544177883846  0.6755279692879412  1.0000
  O   O15       1.0  0.4401192677140528  0.0805517243513236  0.1755275005326808  1.0000
  O   O16       1.0  0.9401230946315946  0.9194451421039957  0.3244724804116927  1.0000
  O   O17       1.0  0.0733760016949461  0.9878027790707975  0.829857747057197  1.0000
  O   O18       1.0  0.5733798286124951  0.012209350194531501  0.6701472292525209  1.0000
  O   O19       1.0  0.9266186975917137  0.0122012698833558  0.17014523821535474  1.0000
  O   O20       1.0  0.4266235070397855  0.9878054725078586  0.3298593853552205  1.0000
