data_image0
_chemical_formula_structural       Cd2H28C24N4Cl4
_chemical_formula_sum              "Cd2 H28 C24 N4 Cl4"
_cell_length_a       3.8925556919359505
_cell_length_b       10.538768143342178
_cell_length_c       16.513086028090104
_cell_angle_alpha    79.8624461920441
_cell_angle_beta     83.12482285041828
_cell_angle_gamma    79.41600242693406

_space_group_name_H-M_alt    "P 1"
_space_group_IT_number       1

loop_
  _space_group_symop_operation_xyz
  'x, y, z'

loop_
  _atom_site_type_symbol
  _atom_site_label
  _atom_site_symmetry_multiplicity
  _atom_site_fract_x
  _atom_site_fract_y
  _atom_site_fract_z
  _atom_site_occupancy
  Cd  Cd1       1.0  0.9313960239045115  0.24962954545488003  0.7494459094964512  1.0000
  Cd  Cd2       1.0  0.06861738503440044  0.7503704741212971  0.25055482463230316  1.0000
  H   H1        1.0  0.3547354252953313  0.9670847965969073  0.7226593062410913  1.0000
  H   H2        1.0  0.04787508532604082  0.5315950944785045  0.7762507349043303  1.0000
  H   H3        1.0  0.6452793497884952  0.0329131951852943  0.2773385491935656  1.0000
  H   H4        1.0  0.952134843327144  0.46840978178889986  0.22374818963587018  1.0000
  H   H5        1.0  0.49217004820977894  0.7371460661322689  0.7955588657198832  1.0000
  H   H6        1.0  0.0263975909152876  0.7620851885293477  0.7040523245337482  1.0000
  H   H7        1.0  0.5078044977915964  0.2628510429211275  0.2044435805760187  1.0000
  H   H8        1.0  0.9736025996078864  0.23791864226879517  0.2959439460711978  1.0000
  H   H9        1.0  0.8021013518428004  0.8532508662391081  0.0032108479740884117  1.0000
  H   H10       1.0  0.6552030094385013  0.6475536967086627  0.4968621038309777  1.0000
  H   H11       1.0  0.1979001162238275  0.14674828190181444  0.9967946244338748  1.0000
  H   H12       1.0  0.3447843542969051  0.35244529177313677  0.5031367754048119  1.0000
  H   H13       1.0  0.6863998623964632  0.07922186240404021  0.9205686033896896  1.0000
  H   H14       1.0  0.6853232810006701  0.4208687239678144  0.5787273397933107  1.0000
  H   H15       1.0  0.3136475761524906  0.9207782177494861  0.07943429712911153  1.0000
  H   H16       1.0  0.31468240830548694  0.579130325348416  0.4212739002514994  1.0000
  H   H17       1.0  0.05904817772988456  0.6228376631002066  0.006911561460924476  1.0000
  H   H18       1.0  0.688924744151919  0.877472209146248  0.4932066949347059  1.0000
  H   H19       1.0  0.940931137166068  0.3771613913504127  0.9930902041566229  1.0000
  H   H20       1.0  0.31106441963240167  0.12252377409418361  0.5067894120018863  1.0000
  H   H21       1.0  0.2765474742259285  0.5656534675915666  0.9144009418290295  1.0000
  H   H22       1.0  0.7513818287017384  0.9344305882487306  0.5861076967520162  1.0000
  H   H23       1.0  0.7234374773725987  0.43434557736149065  0.0856003558999916  1.0000
  H   H24       1.0  0.24861174355982021  0.0655721852724653  0.41388538366175714  1.0000
  H   H25       1.0  0.5046320104727542  0.6322461667629397  0.9789458241345202  1.0000
  H   H26       1.0  0.11396047569297  0.8692075323748158  0.5218449383098472  1.0000
  H   H27       1.0  0.49534834136141376  0.3677518961224706  0.021055443254631708  1.0000
  H   H28       1.0  0.8860279894135697  0.1307913690899838  0.478150244818714  1.0000
  C   C1        1.0  0.23495186161333975  0.9369603012333984  0.784678799589102  1.0000
  C   C2        1.0  0.9584961065229008  0.5621791959602689  0.714527771004235  1.0000
  C   C3        1.0  0.7650488252351123  0.063034934807817  0.2153270300311121  1.0000
  C   C4        1.0  0.0415080807304094  0.4378256310233298  0.2854691345638826  1.0000
  C   C5        1.0  0.31093722762751236  0.8097846916663228  0.8259253587205324  1.0000
  C   C6        1.0  0.9473189941554454  0.689656603124476  0.6736825007095462  1.0000
  C   C7        1.0  0.6890591796095294  0.1902055631905455  0.17407710166484236  1.0000
  C   C8        1.0  0.052675052274494684  0.31034434718248605  0.32631637083858317  1.0000
  C   C9        1.0  0.15952447898788336  0.7758623060467614  0.9063570596266146  1.0000
  C   C10       1.0  0.8403369822119019  0.7242314742608686  0.5935637226630348  1.0000
  C   C11       1.0  0.8404784931432445  0.22413958628452957  0.09364009675884691  1.0000
  C   C12       1.0  0.15965672595759622  0.27576754938692716  0.4064365709215281  1.0000
  C   C13       1.0  0.9289726365481951  0.8747161872322877  0.9409228050884905  1.0000
  C   C14       1.0  0.7425627964227954  0.6256118815166047  0.5589076364974872  1.0000
  C   C15       1.0  0.07103521822855191  0.12529067216553363  0.05907711590850789  1.0000
  C   C16       1.0  0.2574286596863045  0.3743851990440916  0.4410934061328149  1.0000
  C   C17       1.0  0.8650137480812748  0.9998575083468425  0.8957343107992273  1.0000
  C   C18       1.0  0.7600587481780038  0.5000591871815132  0.6036545607872555  1.0000
  C   C19       1.0  0.13500809727565868  0.00014648904078740037  0.10426875808005322  1.0000
  C   C20       1.0  0.23994442429398058  0.4999398598245934  0.3963466108901699  1.0000
  C   C21       1.0  0.25061229397397955  0.641500104074396  0.9537471712226662  1.0000
  C   C22       1.0  0.8437192145340543  0.858944701395778  0.5466110570302406  1.0000
  C   C23       1.0  0.749379860812894  0.3584940582619255  0.046254795215673994  1.0000
  C   C24       1.0  0.15626941970270275  0.14105516339860463  0.4533834150800971  1.0000
  N   N1        1.0  0.015922056131891828  0.0315537212906207  0.818970275014685  1.0000
  N   N2        1.0  0.867782318924206  0.46779927807974536  0.6801144981172558  1.0000
  N   N3        1.0  0.9840898175318882  0.9684473627499486  0.18103404882639043  1.0000
  N   N4        1.0  0.13222639460679625  0.532202663535351  0.3198846772402888  1.0000
  Cl  Cl1       1.0  0.35496851710264776  0.30869998870477394  0.851306763170932  1.0000
  Cl  Cl2       1.0  0.5177772441421595  0.1903396108650099  0.6477082316695189  1.0000
  Cl  Cl3       1.0  0.6450493959570665  0.6913039170456089  0.14869247286634388  1.0000
  Cl  Cl4       1.0  0.4822380695429654  0.8096574622511666  0.3522922170206614  1.0000
