data_image0
_chemical_formula_structural       Hg4Te4H68C52S8N4O8
_chemical_formula_sum              "Hg4 Te4 H68 C52 S8 N4 O8"
_cell_length_a       7.314627984826107
_cell_length_b       10.287366687862857
_cell_length_c       22.0348
_cell_angle_alpha    81.48483783004185
_cell_angle_beta     88.29869553108975
_cell_angle_gamma    73.08908215248519

_space_group_name_H-M_alt    "P 1"
_space_group_IT_number       1

loop_
  _space_group_symop_operation_xyz
  'x, y, z'

loop_
  _atom_site_type_symbol
  _atom_site_label
  _atom_site_symmetry_multiplicity
  _atom_site_fract_x
  _atom_site_fract_y
  _atom_site_fract_z
  _atom_site_occupancy
  Hg  Hg1       1.0  0.2565681689232521  0.47793833856360374  0.7136428431702058  1.0000
  Hg  Hg2       1.0  0.7434343198562419  0.5220674153668483  0.286357369891995  1.0000
  Hg  Hg3       1.0  0.717034880554543  0.5512879092528777  0.7441937260140746  1.0000
  Hg  Hg4       1.0  0.282977634821151  0.44870654796254433  0.2558058076882546  1.0000
  Te  Te1       1.0  0.02551746250561852  0.3054970645541459  0.743361703134383  1.0000
  Te  Te2       1.0  0.9744857293158163  0.694503554505836  0.2566379503165522  1.0000
  Te  Te3       1.0  0.4384230175350795  0.4956916397201709  0.8239726280845119  1.0000
  Te  Te4       1.0  0.561577978252558  0.5043110332879976  0.1760269050203505  1.0000
  H   H1        1.0  0.7827353022986973  0.4644161706727914  0.5126364008677271  1.0000
  H   H2        1.0  0.21726979666826907  0.5355865023353843  0.48736218414308036  1.0000
  H   H3        1.0  0.8480914158624558  0.5713837383170173  0.5594408816857595  1.0000
  H   H4        1.0  0.151910658763363  0.42862304258753176  0.4405556338429335  1.0000
  H   H5        1.0  0.902208608281839  0.687370192451489  0.4592720549175411  1.0000
  H   H6        1.0  0.0977897773183329  0.3126355614789631  0.5407236603077337  1.0000
  H   H7        1.0  0.7248635830028933  0.6356291836662677  0.4240921607317034  1.0000
  H   H8        1.0  0.27513330960542975  0.3643734893419079  0.5759069589844685  1.0000
  H   H9        1.0  0.5536466920969972  0.8745618953677408  0.433503865154016  1.0000
  H   H10       1.0  0.4463481681003786  0.1254356427699577  0.5664956295653027  1.0000
  H   H11       1.0  0.6556872903218365  0.8594017037975873  0.5074656619145372  1.0000
  H   H12       1.0  0.34430931339822024  0.1406050771069545  0.49253226901542757  1.0000
  H   H13       1.0  0.35438669062636313  0.8151760914295423  0.536504220838566  1.0000
  H   H14       1.0  0.6456123980157501  0.1848245276304397  0.4634954730512604  1.0000
  H   H15       1.0  0.3563480951640798  0.7278165401549828  0.4720709397712781  1.0000
  H   H16       1.0  0.643651821785383  0.2721820249568125  0.5279288879442561  1.0000
  H   H17       1.0  0.22780976621934473  0.834546876783577  0.7007412990045552  1.0000
  H   H18       1.0  0.7721931750712658  0.1654475804318452  0.2992569675724326  1.0000
  H   H19       1.0  0.0685230139661784  0.9862504629203811  0.7229868850884033  1.0000
  H   H20       1.0  0.9314781454443166  0.013745021269130598  0.2770122357105222  1.0000
  H   H21       1.0  0.2243365988638432  0.09589062507033931  0.6431483662896156  1.0000
  H   H22       1.0  0.7756631928202111  0.9041048591191724  0.35684986033378163  1.0000
  H   H23       1.0  0.28999721092448993  0.9488901723682446  0.6050077470158471  1.0000
  H   H24       1.0  0.7100017524522073  0.0511073657694538  0.3949903457818423  1.0000
  H   H25       1.0  0.022784807787815  0.0987281544910417  0.5397971896243803  1.0000
  H   H26       1.0  0.9772119595550921  0.9012714375948505  0.4602003289996546  1.0000
  H   H27       1.0  0.8982831270066782  0.1650254940793587  0.6038846814513619  1.0000
  H   H28       1.0  0.10171571110461033  0.8349689631360562  0.39611544087485123  1.0000
  H   H29       1.0  0.7411941793731674  0.9922058856893372  0.5933614003931851  1.0000
  H   H30       1.0  0.2588019232852332  0.0077885715260848  0.4066364797543756  1.0000
  H   H31       1.0  0.9522512820897974  0.8799072955250864  0.5668127668860237  1.0000
  H   H32       1.0  0.04775041673978821  0.1200902426126191  0.4331871142627364  1.0000
  H   H33       1.0  0.12951940844912008  0.3589171759824552  0.9749958316781715  1.0000
  H   H34       1.0  0.8704718879880249  0.641082416103437  0.025007640622945422  1.0000
  H   H35       1.0  0.33939313580516745  0.12079988171131362  0.0018242125928366996  1.0000
  H   H36       1.0  0.66059310387989  0.8791986834004818  0.9981784728844829  1.0000
  H   H37       1.0  0.41400570780307794  0.9620303058962348  0.9249622713458053  1.0000
  H   H38       1.0  0.5859881988215393  0.0379662052673737  0.0750413882142382  1.0000
  H   H39       1.0  0.4019850365519419  0.8432001604964938  0.781198765527442  1.0000
  H   H40       1.0  0.5980214301414576  0.1568025125116748  0.21879844452099212  1.0000
  H   H41       1.0  0.30764877899986964  0.833073168959217  0.8570715894431588  1.0000
  H   H42       1.0  0.6923561947016807  0.1669264231266681  0.1429281174410022  1.0000
  H   H43       1.0  0.5284001572525698  0.8768910726120965  0.8422484279050052  1.0000
  H   H44       1.0  0.4716031598342739  0.12311262737016898  0.1577532804656556  1.0000
  H   H45       1.0  0.8214813874660651  0.6507616469358908  0.8838207439204097  1.0000
  H   H46       1.0  0.17852466507366677  0.3492420530463747  0.11618093749098792  1.0000
  H   H47       1.0  0.04795272713432302  0.5762495415726292  0.9227112279108312  1.0000
  H   H48       1.0  0.9520512929944617  0.4237490235391661  0.07728992084855692  1.0000
  H   H49       1.0  0.845134197061853  0.5160308616444951  0.9474588866183921  1.0000
  H   H50       1.0  0.15487280905063733  0.4839738653118602  0.05254135291777831  1.0000
  H   H51       1.0  0.8067122504873582  0.9745532279939438  0.8095640188090982  1.0000
  H   H52       1.0  0.19327548218954863  0.0254484180401278  0.19043798514282884  1.0000
  H   H53       1.0  0.9348750973922151  0.9246669344218148  0.9153089104729163  1.0000
  H   H54       1.0  0.06511483131848911  0.0753326576640703  0.08469275999749472  1.0000
  H   H55       1.0  0.8487075908150106  0.0999440918178962  0.9849179583003931  1.0000
  H   H56       1.0  0.15129108367342073  0.9000575542161826  0.015082576331742821  1.0000
  H   H57       1.0  0.6082747480051438  0.4181119627392391  0.0364342112493929  1.0000
  H   H58       1.0  0.39172856908170683  0.5818917372430263  0.9635661356385229  1.0000
  H   H59       1.0  0.825037787529432  0.288001533895077  0.023658018288564616  1.0000
  H   H60       1.0  0.1749645759846459  0.7120011391130916  0.9763424089918332  1.0000
  H   H61       1.0  0.6053289105427099  0.24447118298841994  0.03643648634567141  1.0000
  H   H62       1.0  0.3946698892111371  0.7555335439679354  0.9635633802406929  1.0000
  H   H63       1.0  0.5218935552028725  0.1661264103077329  0.6792450786918778  1.0000
  H   H64       1.0  0.47811112961041147  0.8338772896745326  0.3207538932336575  1.0000
  H   H65       1.0  0.5698932588468326  0.0253179923302369  0.7409395031814583  1.0000
  H   H66       1.0  0.43010541564159865  0.9746836537038348  0.2590605776230959  1.0000
  H   H67       1.0  0.7598453894472854  0.091610197048098  0.7095826875610456  1.0000
  H   H68       1.0  0.24015970951967353  0.9083924759600777  0.2904199818979976  1.0000
  C   C1        1.0  0.7510679964952305  0.5703721688347869  0.522321456013465  1.0000
  C   C2        1.0  0.24893395286517261  0.42963153114747854  0.47767618138858847  1.0000
  C   C3        1.0  0.7597327404055819  0.6729997439593376  0.4652163152458613  1.0000
  C   C4        1.0  0.2402656451945902  0.3270060099711145  0.534782122944904  1.0000
  C   C5        1.0  0.6040875914734727  0.8039317520783982  0.4759078926856972  1.0000
  C   C6        1.0  0.3959102547076157  0.1960719479038673  0.5240902389828221  1.0000
  C   C7        1.0  0.4468127255948531  0.7485275267012028  0.5064259636520846  1.0000
  C   C8        1.0  0.5531849953208196  0.2514730923587862  0.49357328988978827  1.0000
  C   C9        1.0  0.1140143442510748  0.9285211681952107  0.6841695489515516  1.0000
  C   C10       1.0  0.8859872293130948  0.0714732890202114  0.3158287311050644  1.0000
  C   C11       1.0  0.17337953656414135  0.014692918357553701  0.6289023291392866  1.0000
  C   C12       1.0  0.8266180590861154  0.9853046197801518  0.371095323310449  1.0000
  C   C13       1.0  0.9926172684309693  0.0717937049374271  0.5883370232971501  1.0000
  C   C14       1.0  0.007379787800203944  0.9282017792520919  0.4116603226303397  1.0000
  C   C15       1.0  0.8974905471328684  0.9565452372621621  0.5981251634514493  1.0000
  C   C16       1.0  0.10250733740565475  0.0434481929791701  0.401874585439657  1.0000
  C   C17       1.0  0.48277678337210267  0.5559565334825152  0.5920480694859975  1.0000
  C   C18       1.0  0.5172291439022132  0.4440440855774668  0.407952010833263  1.0000
  C   C19       1.0  0.8730582418549985  0.8006002481186698  0.6934498722391852  1.0000
  C   C20       1.0  0.12694250340182123  0.199396263044946  0.3065496354744681  1.0000
  C   C21       1.0  0.12547015324975774  0.24579084469873183  0.8364699723148021  1.0000
  C   C22       1.0  0.8745346951863837  0.7542056664648769  0.16353085644271204  1.0000
  C   C23       1.0  0.08225179859057621  0.334183531911485  0.8812545970566675  1.0000
  C   C24       1.0  0.917748657777978  0.665817087148497  0.11874735249143954  1.0000
  C   C25       1.0  0.15994969158748518  0.2895573996469238  0.9408532367652569  1.0000
  C   C26       1.0  0.8400428089532427  0.710449381257618  0.05914609608633733  1.0000
  C   C27       1.0  0.2783986559639544  0.1558905595165285  0.9556714682595668  1.0000
  C   C28       1.0  0.7215957900797465  0.8441080055952667  0.04433249782272243  1.0000
  C   C29       1.0  0.319189193445311  0.0653648471113115  0.9126929134938422  1.0000
  C   C30       1.0  0.6808059556403309  0.9346285831300208  0.08730958532201781  1.0000
  C   C31       1.0  0.24279391490568267  0.11054246446414599  0.8531218239674915  1.0000
  C   C32       1.0  0.757202187752725  0.889451992751276  0.14687923297314145  1.0000
  C   C33       1.0  0.38555820018935094  0.8874812294655996  0.8239532106692949  1.0000
  C   C34       1.0  0.6144489695459966  0.11251630867210588  0.1760466165609387  1.0000
  C   C35       1.0  0.9179377870008949  0.5557470307674137  0.9077549433098043  1.0000
  C   C36       1.0  0.08206950799986151  0.4442535882925682  0.09224557735740999  1.0000
  C   C37       1.0  0.6045231914315395  0.289657016134008  0.8554448327166853  1.0000
  C   C38       1.0  0.39546905857837084  0.710343602925974  0.1445544747437069  1.0000
  C   C39       1.0  0.6468907764380492  0.1858227464494462  0.8177315829062906  1.0000
  C   C40       1.0  0.35310516259750824  0.8141788995846326  0.1822698863402722  1.0000
  C   C41       1.0  0.7676160010813222  0.054328983501172  0.8390506908469889  1.0000
  C   C42       1.0  0.23237338821029144  0.9456685546365337  0.1609506731011834  1.0000
  C   C43       1.0  0.8394123734564688  0.0264158276363275  0.8988714045461635  1.0000
  C   C44       1.0  0.16057768051964427  0.9735868453718411  0.10113232084397343  1.0000
  C   C45       1.0  0.7920228931130782  0.1250905794745023  0.9382284120649373  1.0000
  C   C46       1.0  0.2079757813753602  0.8749110665595765  0.06177121491203511  1.0000
  C   C47       1.0  0.6747629143241269  0.2568842188581186  0.9161242134027746  1.0000
  C   C48       1.0  0.3252395744553668  0.7431215350723335  0.08387599965943339  1.0000
  C   C49       1.0  0.6692393094847022  0.3247507748615064  0.0156391162968532  1.0000
  C   C50       1.0  0.3307603185765018  0.6752518981466693  0.9843613379428007  1.0000
  C   C51       1.0  0.6076036186403969  0.1180137009952986  0.7208290786190972  1.0000
  C   C52       1.0  0.3923990337619544  0.8819848641164967  0.27917026830959907  1.0000
  S   S1        1.0  0.24736213988556702  0.6310796884314911  0.6112132690060434  1.0000
  S   S2        1.0  0.7526417549778088  0.3689157957580278  0.38878537100604404  1.0000
  S   S3        1.0  0.6195404944523377  0.4091249124458898  0.6337104795904908  1.0000
  S   S4        1.0  0.3804685824285344  0.5908746796400024  0.3662878253720336  1.0000
  S   S5        1.0  0.9532317109741868  0.7281092277716681  0.7661694805582117  1.0000
  S   S6        1.0  0.04676737766792633  0.271891391288321  0.2338306671591965  1.0000
  S   S7        1.0  0.6920962430003144  0.7586421945493527  0.6592535800157648  1.0000
  S   S8        1.0  0.3078986171970613  0.24135534358834582  0.3407477300138879  1.0000
  N   N1        1.0  0.5525427892734246  0.6184499610280412  0.5430054401752997  1.0000
  N   N2        1.0  0.4474599883943356  0.3815516850060376  0.4569927848800361  1.0000
  N   N3        1.0  0.9523270921224596  0.8908096525030516  0.6612359697603409  1.0000
  N   N4        1.0  0.04767269956159479  0.1091858316864673  0.3387636183458014  1.0000
  O   O1        1.0  0.9622355379837375  0.46270728578098635  0.8637855871655731  1.0000
  O   O2        1.0  0.03777246005896022  0.5372881984085254  0.13621482771795715  1.0000
  O   O3        1.0  0.27843620404105  0.0286926292019061  0.8079681816237141  1.0000
  O   O4        1.0  0.7215664483613012  0.9713059359098892  0.1920320729601387  1.0000
  O   O5        1.0  0.5635044377649692  0.21973856589154647  0.7609779855011213  1.0000
  O   O6        1.0  0.43649137600517235  0.7802599992202488  0.23902142882572264  1.0000
  O   O7        1.0  0.6234189329083152  0.3608304287188844  0.9515737184064649  1.0000
  O   O8        1.0  0.3765816487256475  0.6391732712633811  0.048425747785543594  1.0000
