data_image0
_chemical_formula_structural       K4P4H12C8N12O16
_chemical_formula_sum              "K4 P4 H12 C8 N12 O16"
_cell_length_a       5.370523036899835
_cell_length_b       7.622827431138204
_cell_length_c       16.643894402437486
_cell_angle_alpha    89.99986833338914
_cell_angle_beta     89.99946253301715
_cell_angle_gamma    99.93230051833304

_space_group_name_H-M_alt    "P 1"
_space_group_IT_number       1

loop_
  _space_group_symop_operation_xyz
  'x, y, z'

loop_
  _atom_site_type_symbol
  _atom_site_label
  _atom_site_symmetry_multiplicity
  _atom_site_fract_x
  _atom_site_fract_y
  _atom_site_fract_z
  _atom_site_occupancy
  K   K1        1.0  0.45651077983269067  0.13003810339045432  0.3181408259440062  1.0000
  K   K2        1.0  0.5434574264739922  0.36997146870069025  0.8181429542107279  1.0000
  K   K3        1.0  0.5434781018974632  0.8699684819491083  0.6818608560610995  1.0000
  K   K4        1.0  0.456507126925203  0.630041093030158  0.18186353452344406  1.0000
  P   P1        1.0  0.9601286544977868  0.7342526113072909  0.33538815215563733  1.0000
  P   P2        1.0  0.03987743120145382  0.7657432681362052  0.8353863719385612  1.0000
  P   P3        1.0  0.039879398411755994  0.26574946848055697  0.6646147313635422  1.0000
  P   P4        1.0  0.96012827555424  0.23425082565864838  0.1646135075068713  1.0000
  H   H1        1.0  0.05815577983551631  0.448651684356399  0.3100422110007912  1.0000
  H   H2        1.0  0.9418763872464311  0.051349417895721707  0.8100386300585213  1.0000
  H   H3        1.0  0.9418592799646247  0.5513488780498932  0.6899612732923827  1.0000
  H   H4        1.0  0.05814791957192258  0.9486509114543012  0.18995704349755724  1.0000
  H   H5        1.0  0.4239346409543571  0.6277367522626918  0.515983889714164  1.0000
  H   H6        1.0  0.5760691939881256  0.8722718805153137  0.015981005818908  1.0000
  H   H7        1.0  0.5760586161884618  0.3722657003041617  0.4840183930882417  1.0000
  H   H8        1.0  0.4239282583324098  0.127738511354849  0.9840134662676117  1.0000
  H   H9        1.0  0.9253543857328096  0.9416549061928876  0.438710601802839  1.0000
  H   H10       1.0  0.0746449948037551  0.5583417665784367  0.9387084682072668  1.0000
  H   H11       1.0  0.07464548717221219  0.05834469797237321  0.5612892776740919  1.0000
  H   H12       1.0  0.9253441722504903  0.4416594481592994  0.061290209700786094  1.0000
  C   C1        1.0  0.181101230532775  0.7968989287044721  0.48400240879564643  1.0000
  C   C2        1.0  0.81891064996271  0.7031157215985716  0.984000629225072  1.0000
  C   C3        1.0  0.8189070334921666  0.20311655422527505  0.5160004746981172  1.0000
  C   C4        1.0  0.18109644089899748  0.29689576831685827  0.015998649358593294  1.0000
  C   C5        1.0  0.23290545279013494  0.5179158862341424  0.4150391123549681  1.0000
  C   C6        1.0  0.7670993822390313  0.9820801988166038  0.9150316639422015  1.0000
  C   C7        1.0  0.767106087988843  0.48207269722595913  0.58496497280543  1.0000
  C   C8        1.0  0.23291119609753955  0.017917794689594802  0.08495920314791047  1.0000
  N   N1        1.0  0.28571556981115254  0.6459037805952903  0.474137058351566  1.0000
  N   N2        1.0  0.7142893504154414  0.8540961081442334  0.974137423909923  1.0000
  N   N3        1.0  0.7142816716159359  0.3540932081788029  0.5258628211486708  1.0000
  N   N4        1.0  0.2857176348885631  0.14590868020024322  0.025861854686446892  1.0000
  N   N5        1.0  0.06325960212122786  0.5406356445039433  0.35715418177913694  1.0000
  N   N6        1.0  0.9367542096980226  0.9593617951152494  0.8571516206076664  1.0000
  N   N7        1.0  0.9367427967287012  0.45935987348661916  0.6428462985081111  1.0000
  N   N8        1.0  0.0632574362440934  0.04063348983432039  0.1428428514052555  1.0000
  N   N9        1.0  0.025302827256730564  0.8381904683201568  0.4254294070286447  1.0000
  N   N10       1.0  0.9746928316693299  0.661803363935924  0.9254297732809957  1.0000
  N   N11       1.0  0.9747014211102751  0.16180500308257711  0.57457227488743  1.0000
  N   N12       1.0  0.025292139935935206  0.3381899114424911  0.074570106312791  1.0000
  O   O1        1.0  0.6819546152692694  0.7065292265463726  0.32021884313331833  1.0000
  O   O2        1.0  0.31805097572208746  0.7934435823895214  0.8202106194573487  1.0000
  O   O3        1.0  0.3180577074459093  0.29346201888762374  0.6797834395540221  1.0000
  O   O4        1.0  0.6819521737643511  0.20652912227043885  0.17978625593974576  1.0000
  O   O5        1.0  0.13078542123717804  0.8305809226763188  0.2709113507725576  1.0000
  O   O6        1.0  0.8692049516902358  0.6694101038323551  0.770919192646403  1.0000
  O   O7        1.0  0.8692011141911705  0.16941767663970347  0.7290837222332697  1.0000
  O   O8        1.0  0.1307837190724825  0.33058307839586826  0.22908609430965035  1.0000
  O   O9        1.0  0.2320662155037566  0.8888096086188496  0.5464283793261799  1.0000
  O   O10       1.0  0.7679234736474425  0.6111999596980553  0.04643212015756859  1.0000
  O   O11       1.0  0.7679289964918966  0.1111994988852985  0.45356969770404726  1.0000
  O   O12       1.0  0.23206131819142675  0.38880538785313223  0.9535707635205668  1.0000
  O   O13       1.0  0.33570655239782343  0.3824372269538827  0.417923767883451  1.0000
  O   O14       1.0  0.6642732265671042  0.11755383863310703  0.9179100646307531  1.0000
  O   O15       1.0  0.6642872756890909  0.6175544844704247  0.5820797165759188  1.0000
  O   O16       1.0  0.335712526431827  0.8824420986071645  0.08207479442966559  1.0000
