data_image0
_chemical_formula_structural       Cu2H34C50N4O14
_chemical_formula_sum              "Cu2 H34 C50 N4 O14"
_cell_length_a       7.845761252388156
_cell_length_b       9.207110610208145
_cell_length_c       14.876878080483161
_cell_angle_alpha    91.45329136250952
_cell_angle_beta     96.33622560057607
_cell_angle_gamma    101.62546541866718

_space_group_name_H-M_alt    "P 1"
_space_group_IT_number       1

loop_
  _space_group_symop_operation_xyz
  'x, y, z'

loop_
  _atom_site_type_symbol
  _atom_site_label
  _atom_site_symmetry_multiplicity
  _atom_site_fract_x
  _atom_site_fract_y
  _atom_site_fract_z
  _atom_site_occupancy
  Cu  Cu1       1.0  0.3550072749373925  0.0732202675629097  0.0868639548340866  1.0000
  Cu  Cu2       1.0  0.6449964783568234  0.9267753193446355  0.9131380102705934  1.0000
  H   H1        1.0  0.8375060570003754  0.263788596945176  0.2661839162711743  1.0000
  H   H2        1.0  0.16249646686183186  0.7362170365415112  0.7338174875746334  1.0000
  H   H3        1.0  0.4656344513619147  0.9211464087474045  0.6888468225874078  1.0000
  H   H4        1.0  0.5343714670685173  0.07886254129269332  0.3111501256963293  1.0000
  H   H5        1.0  0.24157526683273997  0.8611565151780525  0.2185738649115905  1.0000
  H   H6        1.0  0.7584227861203772  0.13883692857837812  0.7814263977080103  1.0000
  H   H7        1.0  0.000835599251964003  0.6398858306622587  0.22065435617744103  1.0000
  H   H8        1.0  0.9991604643003028  0.3601098778815769  0.7793438188348673  1.0000
  H   H9        1.0  0.8560915161047405  0.6985599221949884  0.9358802998406264  1.0000
  H   H10       1.0  0.14390797735429572  0.3014390780191932  0.0641187986833245  1.0000
  H   H11       1.0  0.10404041388283505  0.9142711657492486  0.9464300334554991  1.0000
  H   H12       1.0  0.8959626412050457  0.08572665893381531  0.0535719325564017  1.0000
  H   H13       1.0  0.7108902808621239  0.5494303836950326  0.21650071381846203  1.0000
  H   H14       1.0  0.2891137534655713  0.45056631948067155  0.7834999426523411  1.0000
  H   H15       1.0  0.4827866578932216  0.3184196249700762  0.2102634466728617  1.0000
  H   H16       1.0  0.517214135594962  0.6815793420114603  0.7897390851340448  1.0000
  H   H17       1.0  0.5186917651884074  0.2295747875582777  0.9398240740182404  1.0000
  H   H18       1.0  0.48130431603312473  0.7704209085440257  0.06017679053092451  1.0000
  H   H19       1.0  0.7550228184490139  0.4545403456350601  0.9346545641677582  1.0000
  H   H20       1.0  0.24496970556099742  0.5454565228879815  0.0653441052776671  1.0000
  H   H21       1.0  0.22231405289255687  0.0724997898818671  0.3754909199609102  1.0000
  H   H22       1.0  0.7776861520247708  0.9274969632256429  0.624510194808458  1.0000
  H   H23       1.0  0.1284774467906971  0.857128219877801  0.4696366921564917  1.0000
  H   H24       1.0  0.8715195128698028  0.1428708001459286  0.5303656255647695  1.0000
  H   H25       1.0  0.8278927748969095  0.7007085189267103  0.4366729575709627  1.0000
  H   H26       1.0  0.1721009218374903  0.2992927804547705  0.5633278735653208  1.0000
  H   H27       1.0  0.5780535887173742  0.8547313420514445  0.4703173674362802  1.0000
  H   H28       1.0  0.4219401167717222  0.1452800142218963  0.5296769223450966  1.0000
  H   H29       1.0  0.14562365730643023  0.5128723320859835  0.5230944612447672  1.0000
  H   H30       1.0  0.8543848082544302  0.4871265257007949  0.47690917111765435  1.0000
  H   H31       1.0  0.13639032289488282  0.39587309709015284  0.3678395577825384  1.0000
  H   H32       1.0  0.8636197060593317  0.6041268561736715  0.6321635096921057  1.0000
  H   H33       1.0  0.3538085696828476  0.5072689197125797  0.2660764663290678  1.0000
  H   H34       1.0  0.6461943581002744  0.49273336906156834  0.7339242280907429  1.0000
  C   C1        1.0  0.1509880058741899  0.8212903397042624  0.158171543211445  1.0000
  C   C2        1.0  0.84900964315802  0.1787064487647072  0.8418294288341528  1.0000
  C   C3        1.0  0.015511138422134288  0.6987367268636646  0.15844176939740612  1.0000
  C   C4        1.0  0.9844842445930626  0.30126120701415726  0.8415590960589798  1.0000
  C   C5        1.0  0.9027064451695284  0.6504008240001512  0.07848092655709851  1.0000
  C   C6        1.0  0.09728639079518331  0.3495971390183712  0.9215211409439519  1.0000
  C   C7        1.0  0.9364575656552533  0.7288463771325129  0.0006349380531602903  1.0000
  C   C8        1.0  0.06354763256219091  0.27115476312239656  0.99936653534008  1.0000
  C   C9        1.0  0.07383373122482342  0.8508569033598761  0.005460035040705705  1.0000
  C   C10       1.0  0.9261728457360405  0.1491397737855209  0.9945387470012221  1.0000
  C   C11       1.0  0.757840586272735  0.5208408940838113  0.0762834901209004  1.0000
  C   C12       1.0  0.24215508219325  0.4791581529517972  0.9237167390858261  1.0000
  C   C13       1.0  0.6757049960173802  0.48122900134293894  0.1538371765828401  1.0000
  C   C14       1.0  0.3242889464918974  0.5187633760771393  0.8461648529692027  1.0000
  C   C15       1.0  0.5471667203790744  0.3534654419402444  0.15105846541601406  1.0000
  C   C16       1.0  0.4528309154011795  0.646531355859878  0.8489404894769449  1.0000
  C   C17       1.0  0.5676092398335515  0.30380551431878194  0.9992902940372872  1.0000
  C   C18       1.0  0.43238542730603774  0.6961946697760979  0.0007078827894701971  1.0000
  C   C19       1.0  0.6975896663352829  0.43012695200151546  0.9973515075475632  1.0000
  C   C20       1.0  0.3024078421402124  0.5698743098896842  0.0026461757532985045  1.0000
  C   C21       1.0  0.9712814600089459  0.044311012316413205  0.29505798412210993  1.0000
  C   C22       1.0  0.028719785910695444  0.9556946388510003  0.704943348361816  1.0000
  C   C23       1.0  0.0894534993613405  0.0064305548779302005  0.36366499898339544  1.0000
  C   C24       1.0  0.9105440267834269  0.9935706945717371  0.6363353738543296  1.0000
  C   C25       1.0  0.03728006182142713  0.8851833656777189  0.4155922062246802  1.0000
  C   C26       1.0  0.9627174554887079  0.11481788999271457  0.5844068218446168  1.0000
  C   C27       1.0  0.869203882577601  0.7975353343108511  0.397826518546097  1.0000
  C   C28       1.0  0.13079109209936493  0.20246594738989646  0.6021743839520752  1.0000
  C   C29       1.0  0.752886396914242  0.8347606637564198  0.3286928012589954  1.0000
  C   C30       1.0  0.24711350930034115  0.16523498552446378  0.6713069326073935  1.0000
  C   C31       1.0  0.7998279730375517  0.9589075638775673  0.2773984137340122  1.0000
  C   C32       1.0  0.2001746604601422  0.04109361795956801  0.7226015721670294  1.0000
  C   C33       1.0  0.48097367409307884  0.6849059769819307  0.36314890508441516  1.0000
  C   C34       1.0  0.5190237159122973  0.3150997427795873  0.6368488513927844  1.0000
  C   C35       1.0  0.4849649507569325  0.7521826700271816  0.4487062866780249  1.0000
  C   C36       1.0  0.5150304542649026  0.24782531141135417  0.5512900545760858  1.0000
  C   C37       1.0  0.36389121826946547  0.6873655780548377  0.5060024677323725  1.0000
  C   C38       1.0  0.6361084333356004  0.31263899940820755  0.4939947229498288  1.0000
  C   C39       1.0  0.2392236252994522  0.5585712954103955  0.4771759888452608  1.0000
  C   C40       1.0  0.7607895392761037  0.44143084258676174  0.5228272936222567  1.0000
  C   C41       1.0  0.23507122420268442  0.49434550449615244  0.3910383875416912  1.0000
  C   C42       1.0  0.764937917477937  0.505651131067019  0.6089618819924354  1.0000
  C   C43       1.0  0.35603177952736326  0.5566332150662704  0.3336482200977429  1.0000
  C   C44       1.0  0.6439667346918584  0.44336690665527095  0.6663521879673127  1.0000
  C   C45       1.0  0.0357389023764085  0.1750509506290356  0.24115302038455874  1.0000
  C   C46       1.0  0.9642617461377513  0.8249524928851176  0.758845550293394  1.0000
  C   C47       1.0  0.6672330363154374  0.9845089774982869  0.20075842384210327  1.0000
  C   C48       1.0  0.3327673267479269  0.015493352858086997  0.7992407830855086  1.0000
  C   C49       1.0  0.3595811854060146  0.7554108246767088  0.5975482719226408  1.0000
  C   C50       1.0  0.6404220189932629  0.24459258347598484  0.4024504414790826  1.0000
  N   N1        1.0  0.17948047781034412  0.8985983213405223  0.08305862496476382  1.0000
  N   N2        1.0  0.820519305516804  0.1014017889210592  0.9169405096937453  1.0000
  N   N3        1.0  0.4952731363947791  0.26305426490895917  0.0756261071914963  1.0000
  N   N4        1.0  0.5047260716134617  0.7369436221474431  0.9243736275821135  1.0000
  O   O1        1.0  0.1818624747843245  0.19694201524454513  0.21498253036924103  1.0000
  O   O2        1.0  0.8181416205883638  0.8030502704958308  0.7850093119304447  1.0000
  O   O3        1.0  0.9291481003960694  0.26976365082172277  0.2224577796733982  1.0000
  O   O4        1.0  0.07085552117607115  0.7302364032872791  0.777542241454974  1.0000
  O   O5        1.0  0.6924882309267558  0.9565578265842375  0.12157807766998019  1.0000
  O   O6        1.0  0.3075122638586763  0.04344003657066511  0.8784230732339396  1.0000
  O   O7        1.0  0.5312139217797737  0.0296581493994594  0.22340810173567863  1.0000
  O   O8        1.0  0.4687895724876158  0.9703463688006271  0.7765906478006033  1.0000
  O   O9        1.0  0.5910922782184899  0.7431340338083388  0.30082161235135635  1.0000
  O   O10       1.0  0.40890738663853915  0.25687053432355367  0.6991775954834837  1.0000
  O   O11       1.0  0.47217997354563584  0.8803681556344786  0.6192446398781186  1.0000
  O   O12       1.0  0.5278199635102255  0.11963753498634594  0.3807519145544234  1.0000
  O   O13       1.0  0.25150135811903607  0.6935150417431546  0.6476211115708354  1.0000
  O   O14       1.0  0.7485025665731724  0.30648611308210155  0.35238096284472675  1.0000
