data_image0
_chemical_formula_structural       Zn2H18C44N2O20
_chemical_formula_sum              "Zn2 H18 C44 N2 O20"
_cell_length_a       13.874492598481785
_cell_length_b       16.7303972011609
_cell_length_c       17.628910179491996
_cell_angle_alpha    92.6446756247222
_cell_angle_beta     84.63265276875372
_cell_angle_gamma    108.65343924672491

_space_group_name_H-M_alt    "P 1"
_space_group_IT_number       1

loop_
  _space_group_symop_operation_xyz
  'x, y, z'

loop_
  _atom_site_type_symbol
  _atom_site_label
  _atom_site_symmetry_multiplicity
  _atom_site_fract_x
  _atom_site_fract_y
  _atom_site_fract_z
  _atom_site_occupancy
  Zn  Zn1       1.0  0.48833391690253347  0.40683332609479816  0.5054688393969898  1.0000
  Zn  Zn2       1.0  0.5191950694809577  0.5903090729737529  0.49740381250926197  1.0000
  H   H1        1.0  0.5591733036236234  0.3969740719439728  0.7185145977414538  1.0000
  H   H2        1.0  0.5985795315505911  0.666534108741111  0.06513454075172832  1.0000
  H   H3        1.0  0.5329384499436002  0.7008885804297122  0.7852573019734239  1.0000
  H   H4        1.0  0.48212530036336426  0.2982205674818701  0.2134568767667631  1.0000
  H   H5        1.0  0.2529274854802139  0.07964283276943011  0.4062152625302105  1.0000
  H   H6        1.0  0.726172059513715  0.9294816251974256  0.5696541829678097  1.0000
  H   H7        1.0  0.347376323844152  0.31160447609782693  0.4121538677314761  1.0000
  H   H8        1.0  0.6861584589356724  0.7060693764959326  0.5398096306055181  1.0000
  H   H9        1.0  0.6142366480437217  0.28489302439325576  0.6324626883102271  1.0000
  H   H10       1.0  0.2975507183506495  0.6634276603443114  0.43645835171412284  1.0000
  H   H11       1.0  0.5436690950608281  0.622349725726167  0.2754056384960464  1.0000
  H   H12       1.0  0.5545220699889128  0.6393284097624418  0.8894005607923463  1.0000
  H   H13       1.0  0.5273602959194292  0.37312836989577397  0.10764304303652493  1.0000
  H   H14       1.0  0.5645648424901211  0.14473835266471724  0.5935370212084196  1.0000
  H   H15       1.0  0.3441933787634073  0.8119076185193921  0.45944752881058554  1.0000
  H   H16       1.0  0.9890591028732773  0.3466475308479745  0.5248456348671908  1.0000
  H   H17       1.0  0.03750173189906298  0.6787756125009141  0.44275790784868724  1.0000
  H   H18       1.0  0.6072377163697668  0.3736711840327518  0.9216485163077979  1.0000
  C   C1        1.0  0.5023396062145126  0.48499212171928735  0.35725795273996414  1.0000
  C   C2        1.0  0.5673518594601817  0.8589733487708177  0.5458684284811142  1.0000
  C   C3        1.0  0.41136617449010526  0.21886483761099382  0.4577370753970271  1.0000
  C   C4        1.0  0.5778451867933256  0.7785378266680071  0.5361356324020505  1.0000
  C   C5        1.0  0.522234371541664  0.24893311177589084  0.5535846580963553  1.0000
  C   C6        1.0  0.42810573478978153  0.7255081880146222  0.47465567217143  1.0000
  C   C7        1.0  0.5196463509596754  0.16453780060562206  0.5550455749253944  1.0000
  C   C8        1.0  0.410292902690074  0.8037460737920485  0.48292776245809677  1.0000
  C   C9        1.0  0.4582870087776739  0.10514335121609261  0.506780673274861  1.0000
  C   C10       1.0  0.4805418330180515  0.871688196643497  0.5171777177685046  1.0000
  C   C11       1.0  0.45670147956275287  0.020458323598070604  0.5093319138096248  1.0000
  C   C12       1.0  0.5245310896337118  0.5151865496250709  0.6427380394316061  1.0000
  C   C13       1.0  0.4677474702333131  0.9521521846410299  0.5176634864010908  1.0000
  C   C14       1.0  0.310740900714464  0.4683037824960651  0.516315433102861  1.0000
  C   C15       1.0  0.7002388550135663  0.5335034581324436  0.4784818026509186  1.0000
  C   C16       1.0  0.8087185385302718  0.5443586131266258  0.4697079921280078  1.0000
  C   C17       1.0  0.2083022121834048  0.4673456787850513  0.5048043937953111  1.0000
  C   C18       1.0  0.998157457100625  0.5450785884865255  0.4680399404022637  1.0000
  C   C19       1.0  0.028145430802538826  0.47733640010758915  0.48737918508718553  1.0000
  C   C20       1.0  0.12896160421793473  0.4804298579646443  0.4931895246102513  1.0000
  C   C21       1.0  0.8954966270647802  0.5409308077003347  0.46803684303440485  1.0000
  C   C22       1.0  0.5762229490514131  0.44693328517703174  0.8324917335115175  1.0000
  C   C23       1.0  0.5576774424954677  0.5865943689395082  0.8514166219277898  1.0000
  C   C24       1.0  0.5596741548464976  0.5790380540903612  0.1600368962032803  1.0000
  C   C25       1.0  0.559631604328409  0.45067319749385604  0.7559828871487825  1.0000
  C   C26       1.0  0.540772375658527  0.567575347209761  0.23863523463114694  1.0000
  C   C27       1.0  0.5428477034253233  0.5197615129776239  0.7254068870642669  1.0000
  C   C28       1.0  0.5183761699383211  0.48912084464199534  0.27216889216362733  1.0000
  C   C29       1.0  0.5444985522739856  0.5899667399519188  0.773982939903135  1.0000
  C   C30       1.0  0.5136887529483546  0.4180886415539862  0.22359606245315436  1.0000
  C   C31       1.0  0.9522255878764128  0.3919637747818571  0.506460687619196  1.0000
  C   C32       1.0  0.07306036860308754  0.6290492354878339  0.4499755531647055  1.0000
  C   C33       1.0  0.5975004768249762  0.37300797948481806  0.8594918006326184  1.0000
  C   C34       1.0  0.5319410351812551  0.4282048829944217  0.14462503182088685  1.0000
  C   C35       1.0  0.5835404210211693  0.6637283300595058  0.128448580202992  1.0000
  C   C36       1.0  0.3278266138240866  0.0697794228474748  0.4094980326858534  1.0000
  C   C37       1.0  0.6466781617156698  0.9310021707839908  0.5793445943368242  1.0000
  C   C38       1.0  0.358303135123279  0.2495754799773522  0.4007201897885366  1.0000
  C   C39       1.0  0.6648146640497713  0.759591067671515  0.5675405390843126  1.0000
  C   C40       1.0  0.571681586419686  0.5154822398494263  0.8820508971063676  1.0000
  C   C41       1.0  0.5547725880517617  0.5075530851179907  0.11173927275643793  1.0000
  C   C42       1.0  0.574985878960497  0.5127621784011113  0.96182616024943  1.0000
  C   C43       1.0  0.568801437937978  0.5133192854760651  0.03140549521287991  1.0000
  C   C44       1.0  0.40058189237239356  0.13276401740106544  0.45719934666729495  1.0000
  N   N1        1.0  0.46966792050666584  0.2762350518945312  0.5056847875989803  1.0000
  N   N2        1.0  0.5114428939310613  0.7135900950081863  0.5002204745630651  1.0000
  O   O1        1.0  0.5087084788813101  0.4206111053824344  0.38950151144899803  1.0000
  O   O2        1.0  0.16637077529269112  0.6455472878337859  0.44330356052230263  1.0000
  O   O3        1.0  0.6058315315863962  0.31373837592304454  0.8182320851166338  1.0000
  O   O4        1.0  0.5874876895552248  0.7277804250463619  0.16664744982708166  1.0000
  O   O5        1.0  0.5292813706252063  0.6582823444552234  0.7450064501221905  1.0000
  O   O6        1.0  0.4895827602692434  0.3406904700230201  0.2542079742571843  1.0000
  O   O7        1.0  0.34562665856436325  0.007504055162009106  0.3806677770901886  1.0000
  O   O8        1.0  0.6273652519837613  0.9907919517020719  0.612507070785874  1.0000
  O   O9        1.0  0.32700338760129455  0.20583473441842412  0.3448512170677915  1.0000
  O   O10       1.0  0.7101316697634987  0.801273895173381  0.6197483780315238  1.0000
  O   O11       1.0  0.5777025854961836  0.30849825753526267  0.5995518527778076  1.0000
  O   O12       1.0  0.5564792023995223  0.5832209765842012  0.6053556426114355  1.0000
  O   O13       1.0  0.3669127576432274  0.6596802880912449  0.4395797496749126  1.0000
  O   O14       1.0  0.4847825965431625  0.548430840815051  0.39140796373347814  1.0000
  O   O15       1.0  0.4801419300686831  0.4417017586230117  0.6165848317237634  1.0000
  O   O16       1.0  0.33441899012779425  0.4020428597183283  0.4981559873435941  1.0000
  O   O17       1.0  0.6714430517314584  0.595442443391825  0.4625309733487057  1.0000
  O   O18       1.0  0.367265617304419  0.5372022889628171  0.5426958725628311  1.0000
  O   O19       1.0  0.6455925383124921  0.4615361457967637  0.5025581087235764  1.0000
  O   O20       1.0  0.8604736310751163  0.37243276196485203  0.501860213268408  1.0000
