data_image0
_chemical_formula_structural       Cu8H64C48I8N16
_chemical_formula_sum              "Cu8 H64 C48 I8 N16"
_cell_length_a       10.918834103814739
_cell_length_b       11.754824516
_cell_length_c       12.4562
_cell_angle_alpha    90.0
_cell_angle_beta     91.03673290491152
_cell_angle_gamma    90.0

_space_group_name_H-M_alt    "P 1"
_space_group_IT_number       1

loop_
  _space_group_symop_operation_xyz
  'x, y, z'

loop_
  _atom_site_type_symbol
  _atom_site_label
  _atom_site_symmetry_multiplicity
  _atom_site_fract_x
  _atom_site_fract_y
  _atom_site_fract_z
  _atom_site_occupancy
  Cu  Cu1       1.0  0.8664999116351241  0.2724217614343161  0.3525212228482815  1.0000
  Cu  Cu2       1.0  0.3664974704529271  0.22757889718887006  0.8525228298971754  1.0000
  Cu  Cu3       1.0  0.1334994747373841  0.727577854383  0.6474770815119868  1.0000
  Cu  Cu4       1.0  0.6334991679236383  0.7724215693429741  0.1474778393182348  1.0000
  Cu  Cu5       1.0  0.1117811468290029  0.2227425850922842  0.34924321796265195  1.0000
  Cu  Cu6       1.0  0.6117826720125521  0.2772555213873176  0.8492423991988005  1.0000
  Cu  Cu7       1.0  0.8882164075462102  0.7772544785814475  0.6507574657807708  1.0000
  Cu  Cu8       1.0  0.388216714359956  0.7227440944299987  0.1507567079745229  1.0000
  H   H1        1.0  0.6242466655954005  0.43505030577352954  0.6656119480265515  1.0000
  H   H2        1.0  0.124247888407794  0.064946949991544  0.16561120474831634  1.0000
  H   H3        1.0  0.3757527207771076  0.5649493100437866  0.33438876477288193  1.0000
  H   H4        1.0  0.875754245960657  0.9350501136821876  0.8343887488220929  1.0000
  H   H5        1.0  0.7936038233484553  0.1261456517689084  0.731700966405235  1.0000
  H   H6        1.0  0.2935958861743799  0.3738550068542779  0.23170569753830964  1.0000
  H   H7        1.0  0.2064010590159313  0.8738556654774641  0.26829581949697  1.0000
  H   H8        1.0  0.7063961722089545  0.6261463103921017  0.7682981102892867  1.0000
  H   H9        1.0  0.8785242258676506  0.1229146379882877  0.5462846106788746  1.0000
  H   H10       1.0  0.3785199526881655  0.3770894234930182  0.0462869914848127  1.0000
  H   H11       1.0  0.12147882449944092  0.877088380687148  0.45371455460648485  1.0000
  H   H12       1.0  0.6214766856883998  0.6229144458969458  0.953715283356715  1.0000
  H   H13       1.0  0.6388385240340568  0.4228927444415476  0.3906687673583916  1.0000
  H   H14       1.0  0.13883791484915523  0.0771087648961739  0.8906679950241382  1.0000
  H   H15       1.0  0.3611626943357464  0.5771060206612475  0.6093311716840049  1.0000
  H   H16       1.0  0.8611633035206482  0.922894253779262  0.10933194401825827  1.0000
  H   H17       1.0  0.7849567961255417  0.47833891457474215  0.4145393683214564  1.0000
  H   H18       1.0  0.2849552709419996  0.021662594762972304  0.9145393842722527  1.0000
  H   H19       1.0  0.2150453382429021  0.5216598505280459  0.5854605852489456  1.0000
  H   H20       1.0  0.7150459474278037  0.9783412746269846  0.08546055477014389  1.0000
  H   H21       1.0  0.6213979098047986  0.6251101400959413  0.4359525978760104  1.0000
  H   H22       1.0  0.12139730061990411  0.874890134344561  0.9359510227286946  1.0000
  H   H23       1.0  0.3786051405622928  0.3748877742923185  0.5640473702224043  1.0000
  H   H24       1.0  0.8786057497471944  0.1251128843308749  0.0640473397436025  1.0000
  H   H25       1.0  0.7082987013977231  0.606787450573286  0.5573755064264745  1.0000
  H   H26       1.0  0.2082980922128215  0.8932136745817517  0.05737393127915881  1.0000
  H   H27       1.0  0.2917034329707207  0.393211314529502  0.44262444714393473  1.0000
  H   H28       1.0  0.7917031261569747  0.1067884933791561  0.9426235993240651  1.0000
  H   H29       1.0  0.5583662109422322  0.5496602685310563  0.5446187657766828  1.0000
  H   H30       1.0  0.0583646857586828  0.9503383044803968  0.0446171761013616  1.0000
  H   H31       1.0  0.441637755423507  0.4503384965717316  0.4553812168497373  1.0000
  H   H32       1.0  0.9416383646084086  0.0496621620514546  0.9553803835578805  1.0000
  H   H33       1.0  0.8982007927929986  0.4115195419051716  0.1553569829019565  1.0000
  H   H34       1.0  0.39820109960674444  0.08848196743254279  0.655357830721826  1.0000
  H   H35       1.0  0.10179584558356682  0.5884809246266727  0.8446412778742811  1.0000
  H   H36       1.0  0.6017973707671161  0.9115176483847733  0.3446420647365471  1.0000
  H   H37       1.0  0.6376724577570699  0.1749673078658489  0.24656620262054219  1.0000
  H   H38       1.0  0.1376718485721682  0.3250350521863936  0.746566233099344  1.0000
  H   H39       1.0  0.3623287606127334  0.8250331586659955  0.7534337364218544  1.0000
  H   H40       1.0  0.8623284537989876  0.6749645636309225  0.253432888601985  1.0000
  H   H41       1.0  0.5489442488643874  0.1750243057392851  0.06008805870661859  1.0000
  H   H42       1.0  0.0489445556781334  0.3249772035984364  0.5600881037134258  1.0000
  H   H43       1.0  0.45105422150947316  0.82497445936351  0.9399118367517545  1.0000
  H   H44       1.0  0.951056662691663  0.6750241136479431  0.4399118353289708  1.0000
  H   H45       1.0  0.7748285990912579  0.4353182808501259  0.8742436989778497  1.0000
  H   H46       1.0  0.2748307379022989  0.0646840792021237  0.3742429702276198  1.0000
  H   H47       1.0  0.22516987128260274  0.5646821856817255  0.1257553936674682  1.0000
  H   H48       1.0  0.7251713964661519  0.9353163873297275  0.6257553777166791  1.0000
  H   H49       1.0  0.8675120901394991  0.5038229190013723  0.9730933046206615  1.0000
  H   H50       1.0  0.3675142289505402  0.9961790568681934  0.4730925758704316  1.0000
  H   H51       1.0  0.1324854642357138  0.496177547530479  0.0269065763097061  1.0000
  H   H52       1.0  0.6324860734206156  0.0038214096636508994  0.5269065458309043  1.0000
  H   H53       1.0  0.9957665566270536  0.4013679654322432  0.8405462857982896  1.0000
  H   H54       1.0  0.4957677794394472  0.09863439461999948  0.3405479509592197  1.0000
  H   H55       1.0  0.0042337457440951  0.5986333518141294  0.1594528359030392  1.0000
  H   H56       1.0  0.5042352709276443  0.9013660719118448  0.6594544255783603  1.0000
  H   H57       1.0  0.0163194318859468  0.3385418467611601  0.9705716069623094  1.0000
  H   H58       1.0  0.5163200410708413  0.1614605132910825  0.4705715764835148  1.0000
  H   H59       1.0  0.9836790384879137  0.6614594704852195  0.029429894122173998  1.0000
  H   H60       1.0  0.4836802613003073  0.8385399532407618  0.5294307564700489  1.0000
  H   H61       1.0  0.9233064836961163  0.2701154743465679  0.8716099216143363  1.0000
  H   H62       1.0  0.4233086225071574  0.2298877364202099  0.3716099956771616  1.0000
  H   H63       1.0  0.0766919866777442  0.7298849921852835  0.128390776657092  1.0000
  H   H64       1.0  0.576694427859934  0.7701135808261697  0.6283907752343083  1.0000
  C   C1        1.0  0.7265829503803971  0.3647744799731925  0.5337063471278753  1.0000
  C   C2        1.0  0.22657867720091224  0.1352253279354727  0.03370712230769609  1.0000
  C   C3        1.0  0.2734210159853419  0.6352242851296026  0.4662920298724345  1.0000
  C   C4        1.0  0.7734197931729485  0.8647751385963788  0.966292773150677  1.0000
  C   C5        1.0  0.6819692363028907  0.36573663810533213  0.6380203561563532  1.0000
  C   C6        1.0  0.1819677111193414  0.1342580655161498  0.1380203721071425  1.0000
  C   C7        1.0  0.3180338140642007  0.6342595748538713  0.3619812175681787  1.0000
  C   C8        1.0  0.8180325912518144  0.8657389981575818  0.8619811580333588  1.0000
  C   C9        1.0  0.7747452432144258  0.1953742479842191  0.675546145333584  1.0000
  C   C10       1.0  0.2747409700349408  0.3046230077808474  0.1755493289525774  1.0000
  C   C11       1.0  0.22525872315131323  0.8046228156895127  0.32445303447978086  1.0000
  C   C12       1.0  0.7252556683416246  0.6953766080364688  0.8244529458889501  1.0000
  C   C13       1.0  0.8208291351195598  0.193170897354463  0.5726049825071087  1.0000
  C   C14       1.0  0.3208221139441322  0.3068297612687232  0.0726073197290233  1.0000
  C   C15       1.0  0.1791766632434744  0.8068295691773812  0.4273942263622672  1.0000
  C   C16       1.0  0.6791726924351381  0.6931715559776563  0.9273973344956588  1.0000
  C   C17       1.0  0.6987100275662215  0.45784945514706976  0.4551256767180972  1.0000
  C   C18       1.0  0.1987075863840246  0.0421503527615883  0.9551248753278259  1.0000
  C   C19       1.0  0.3012921068022294  0.5421510113847816  0.5448742768523118  1.0000
  C   C20       1.0  0.8012917999884763  0.9578484123411997  0.0448742318454975  1.0000
  C   C21       1.0  0.6432664614912085  0.5656366873831118  0.5014846485176676  1.0000
  C   C22       1.0  0.1432649363076592  0.9343635870573976  0.0014830588423464994  1.0000
  C   C23       1.0  0.3567356728772353  0.4343629284342115  0.4985161078657967  1.0000
  C   C24       1.0  0.8567362820621369  0.0656368794744466  0.9985152745739397  1.0000
  C   C25       1.0  0.7735049810470758  0.3567947776924498  0.028088250875121894  1.0000
  C   C26       1.0  0.27350528786082157  0.1432058809307364  0.5280899015080465  1.0000
  C   C27       1.0  0.2264925733281444  0.6432065395539226  0.9719108272421906  1.0000
  C   C28       1.0  0.7264940985116866  0.8567945856011079  0.4719108112913942  1.0000
  C   C29       1.0  0.8195320810361224  0.35844261173485853  0.1333999083506541  1.0000
  C   C30       1.0  0.3195323878498684  0.1415588976028559  0.6333999533574611  1.0000
  C   C31       1.0  0.1804663893377381  0.6415595562260421  0.8665991842946639  1.0000
  C   C32       1.0  0.6804669985226397  0.8584398674999321  0.3665991538158622  1.0000
  C   C33       1.0  0.6757834974431134  0.229222477658638  0.1846804893925409  1.0000
  C   C34       1.0  0.1757838042568594  0.2707781809645553  0.6846797315862928  1.0000
  C   C35       1.0  0.3242149729307471  0.7707771381586852  0.8153194060658322  1.0000
  C   C36       1.0  0.8242146661170011  0.7292214348527679  0.3153201638720801  1.0000
  C   C37       1.0  0.6267281059287484  0.229237790520159  0.0813029477592835  1.0000
  C   C38       1.0  0.1267284127425015  0.2707637188175624  0.5813013871399804  1.0000
  C   C39       1.0  0.37327128044375263  0.7707626760116923  0.9186977650401573  1.0000
  C   C40       1.0  0.8732718896286542  0.7292375984288171  0.4186977345613556  1.0000
  C   C41       1.0  0.8385665329102779  0.4202691408345345  0.9421168868254525  1.0000
  C   C42       1.0  0.33856592372537625  0.0797332192177151  0.4421177201173094  1.0000
  C   C43       1.0  0.16143193746358261  0.5797313256973169  0.05788220581986539  1.0000
  C   C44       1.0  0.6614352946444271  0.920267247314129  0.557881416112032  1.0000
  C   C45       1.0  0.950511643497002  0.3533519359941408  0.9041772073166499  1.0000
  C   C46       1.0  0.45051195031074803  0.1466504240581017  0.4041780551365122  1.0000
  C   C47       1.0  0.0494877428755061  0.6466485305377034  0.09582270266973579  1.0000
  C   C48       1.0  0.5494901840576958  0.8533508931882707  0.5958235040600073  1.0000
  I   I1        1.0  0.0355050235367713  0.4393157884212541  0.3432205919096418  1.0000
  I   I2        1.0  0.5355028847257302  0.060684019487411  0.843222926285989  1.0000
  I   I3        1.0  0.9644952788343845  0.5606829766815409  0.6567793326047493  1.0000
  I   I4        1.0  0.464496501646778  0.9393164470444404  0.1567777865134516  1.0000
  I   I5        1.0  0.9456449426881761  0.05739515711881891  0.3276047806901374  1.0000
  I   I6        1.0  0.4456461655005698  0.442603800075311  0.8276048402249573  1.0000
  I   I7        1.0  0.0543507796897416  0.9426044586984972  0.6723918599319774  1.0000
  I   I8        1.0  0.5543504728759956  0.5573941143129559  0.17239181492517022  1.0000
  N   N1        1.0  0.7964718151106283  0.2761887253681223  0.4999759296833233  1.0000
  N   N2        1.0  0.2964675419311433  0.22381108254053567  0.999976704863151  1.0000
  N   N3        1.0  0.2035321512551107  0.7238083383056093  0.5000240529430968  1.0000
  N   N4        1.0  0.7035309284427173  0.7761919361349  2.3993408277097526e-05  1.0000
  N   N5        1.0  0.7025874498368339  0.2814019040009939  0.7093706326168743  1.0000
  N   N6        1.0  0.2025813446600537  0.21859365033501627  0.2093737871798567  1.0000
  N   N7        1.0  0.2974183485262003  0.7185951596727378  0.2906277734394536  1.0000
  N   N8        1.0  0.7974143777178713  0.7814042640532434  0.7906308815728379  1.0000
  N   N9        1.0  0.6761581408895269  0.2907078702322323  0.0011360708848612991  1.0000
  N   N10       1.0  0.1761593637019203  0.2092919376764257  0.5011361304196811  1.0000
  N   N11       1.0  0.3238394134856861  0.7092917455850838  0.9988638100455063  1.0000
  N   N12       1.0  0.8238391066719402  0.7907076781408904  0.4988637650386991  1.0000
  N   N13       1.0  0.7745281515352077  0.2932132245197323  0.21203456969935533  1.0000
  N   N14       1.0  0.2745293743476012  0.20678828481798212  0.712034629234175  1.0000
  N   N15       1.0  0.2254694028400053  0.7067872420121121  0.7879653112310051  1.0000
  N   N16       1.0  0.7254690960262593  0.793211330999334  0.287965266224198  1.0000
