data_image0
_chemical_formula_structural       Hg4H32C40S8Br8N8
_chemical_formula_sum              "Hg4 H32 C40 S8 Br8 N8"
_cell_length_a       9.109435001408798
_cell_length_b       11.6569329098448
_cell_length_c       13.320725826006463
_cell_angle_alpha    89.99990579351366
_cell_angle_beta     90.00008295337705
_cell_angle_gamma    104.01383239452954

_space_group_name_H-M_alt    "P 1"
_space_group_IT_number       1

loop_
  _space_group_symop_operation_xyz
  'x, y, z'

loop_
  _atom_site_type_symbol
  _atom_site_label
  _atom_site_symmetry_multiplicity
  _atom_site_fract_x
  _atom_site_fract_y
  _atom_site_fract_z
  _atom_site_occupancy
  Hg  Hg1       1.0  0.5176144757871981  0.12900064477846482  0.1280202139980844  1.0000
  Hg  Hg2       1.0  0.01761429763497801  0.6290006386756419  0.37198078795238837  1.0000
  Hg  Hg3       1.0  0.4823856160168917  0.8710018533814794  0.8719806248433457  1.0000
  Hg  Hg4       1.0  0.9823852325651644  0.37100009117105515  0.6280193001801917  1.0000
  H   H1        1.0  0.9738382588536112  0.9922809791817999  0.35103919732662797  1.0000
  H   H2        1.0  0.47383627795723277  0.49228127831456453  0.1489602314220875  1.0000
  H   H3        1.0  0.0261629018192764  0.007717971362836801  0.6489586386785076  1.0000
  H   H4        1.0  0.5261604985616586  0.5077176942082531  0.8510398567103933  1.0000
  H   H5        1.0  0.7967963566499562  0.8692779786587508  0.47261290393080907  1.0000
  H   H6        1.0  0.2967941770234718  0.36927846863676456  0.027388028237986396  1.0000
  H   H7        1.0  0.20320452322187071  0.1307200877283705  0.5273856827846615  1.0000
  H   H8        1.0  0.703203695534377  0.630720498391071  0.9726120598950414  1.0000
  H   H9        1.0  0.5179856488978345  0.8674913111485127  0.4641094770536397  1.0000
  H   H10       1.0  0.017982921567984478  0.36749001946421345  0.035891182156234394  1.0000
  H   H11       1.0  0.48201497734064697  0.13250941320377763  0.5358898603696359  1.0000
  H   H12       1.0  0.9820135741492493  0.632508068901686  0.9641089059767438  1.0000
  H   H13       1.0  0.4321907163247687  0.9861532940615945  0.3305813401521504  1.0000
  H   H14       1.0  0.9321890508751806  0.4861541303219497  0.16942030838398378  1.0000
  H   H15       1.0  0.5678101907166065  0.013848314446448703  0.669419498690317  1.0000
  H   H16       1.0  0.0678104793255727  0.5138465995241505  0.8305805304584338  1.0000
  H   H17       1.0  0.5809234405561483  0.2652229949178775  0.33507042638468926  1.0000
  H   H18       1.0  0.08092236234435295  0.7652215455287678  0.16493044215278016  1.0000
  H   H19       1.0  0.419078281721916  0.7347777239388338  0.664929661748978  1.0000
  H   H20       1.0  0.9190768870547429  0.23477830016040718  0.835070396690142  1.0000
  H   H21       1.0  0.4994628700356855  0.3920979093261395  0.46350924199124677  1.0000
  H   H22       1.0  0.9994610486373502  0.8920981204555289  0.03649260833967819  1.0000
  H   H23       1.0  0.5005391058781755  0.607900151563051  0.5364930982739935  1.0000
  H   H24       1.0  0.0005384815640212982  0.10790260938998131  0.963508981212591  1.0000
  H   H25       1.0  0.2243333051311964  0.39991443724641573  0.4676545201780726  1.0000
  H   H26       1.0  0.7243322921931964  0.899913765231965  0.03234629630620129  1.0000
  H   H27       1.0  0.7756692323853757  0.600085391957208  0.5323470693763283  1.0000
  H   H28       1.0  0.27566723800755705  0.10008696461414249  0.9676545425362234  1.0000
  H   H29       1.0  0.043619279760271495  0.27490386327747984  0.34786074824307883  1.0000
  H   H30       1.0  0.5436181818411328  0.7749021190549997  0.15213856808216514  1.0000
  H   H31       1.0  0.9563832849221756  0.7250995080505978  0.6521385891792519  1.0000
  H   H32       1.0  0.45637969071610474  0.22509684797342547  0.8478607693410183  1.0000
  C   C1        1.0  0.795355175142454  0.05589415839423852  0.2785384781516882  1.0000
  C   C2        1.0  0.2953536549045879  0.5558943940708759  0.22146140202658415  1.0000
  C   C3        1.0  0.20464488949269818  0.9441047976442082  0.7214608592725893  1.0000
  C   C4        1.0  0.7046453136922253  0.4441045674619629  0.778538686106991  1.0000
  C   C5        1.0  0.8538036080271141  0.990557280907602  0.3493125066153198  1.0000
  C   C6        1.0  0.3538027259921463  0.49055757183491283  0.1506868059913842  1.0000
  C   C7        1.0  0.14619727184472  0.009440785479519301  0.6506860801001579  1.0000
  C   C8        1.0  0.6461962426046598  0.5094413896979264  0.8493132821421907  1.0000
  C   C9        1.0  0.7537447069129471  0.9214384312976736  0.41698749786463907  1.0000
  C   C10       1.0  0.25374481029214013  0.4214388229656194  0.0830125660092165  1.0000
  C   C11       1.0  0.2462564537605516  0.07856051924637342  0.5830110888503411  1.0000
  C   C12       1.0  0.7462552543436303  0.5785601330722372  0.9169875221248984  1.0000
  C   C13       1.0  0.6001712887837912  0.9199935771982485  0.41259426901659413  1.0000
  C   C14       1.0  0.1001692072669798  0.4199939729592118  0.08740639587813348  1.0000
  C   C15       1.0  0.39983043349365494  0.08000714165905261  0.5874050684072286  1.0000
  C   C16       1.0  0.8998289460925407  0.580005878225542  0.912593692254397  1.0000
  C   C17       1.0  0.5516391294441546  0.9869332575496301  0.33896682756439117  1.0000
  C   C18       1.0  0.05163826432182357  0.48693353223534075  0.1610336930664147  1.0000
  C   C19       1.0  0.44836149679432674  0.013067466802660004  0.6610325098588916  1.0000
  C   C20       1.0  0.9483612658783257  0.5130671976113489  0.8389663950661655  1.0000
  C   C21       1.0  0.4625207887539132  0.2684201616617585  0.3412877445038589  1.0000
  C   C22       1.0  0.9625199823814015  0.76841929127756  0.1587119951216422  1.0000
  C   C23       1.0  0.5374809335235256  0.7315805571955493  0.658711592919964  1.0000
  C   C24       1.0  0.037478986215411694  0.23157967025527884  0.8412880930119258  1.0000
  C   C25       1.0  0.41647416559390404  0.3399398065588528  0.41222299412633834  1.0000
  C   C26       1.0  0.9164732432670633  0.839939047528354  0.08777734781153868  1.0000
  C   C27       1.0  0.5835272758830996  0.6600600281403503  0.5877778447176708  1.0000
  C   C28       1.0  0.08352600613203259  0.1600607981608277  0.9122234910313833  1.0000
  C   C29       1.0  0.26421427876810094  0.34308709952641453  0.41442474859911727  1.0000
  C   C30       1.0  0.7642133528414023  0.8430863439529406  0.08557468763255827  1.0000
  C   C31       1.0  0.7357882587472488  0.6569127296783891  0.5855753395355946  1.0000
  C   C32       1.0  0.2357858965570756  0.1569135017368239  0.9144254005005121  1.0000
  C   C33       1.0  0.1628495596480377  0.2737180879528296  0.34750572225380677  1.0000
  C   C34       1.0  0.6628484623093486  0.773716343172929  0.1524937136048337  1.0000
  C   C35       1.0  0.8371513473921154  0.7262835205563862  0.6524936151689785  1.0000
  C   C36       1.0  0.33715050628684656  0.2262826183605  0.8475056238188967  1.0000
  C   C37       1.0  0.21982315482313203  0.20428849640114075  0.27922423582383255  1.0000
  C   C38       1.0  0.719821073062434  0.7042866499278234  0.22077535622326386  1.0000
  C   C39       1.0  0.7801791290576506  0.7957139907700111  0.7207751015990025  1.0000
  C   C40       1.0  0.2801776147320965  0.2957114274486869  0.7792239812009566  1.0000
  S   S1        1.0  0.9057960857915932  0.1516226728501522  0.18789700664929398  1.0000
  S   S2        1.0  0.40579662499830255  0.6516218710903277  0.3121035956612772  1.0000
  S   S3        1.0  0.09420454044750656  0.8483780515015481  0.8121030814838262  1.0000
  S   S4        1.0  0.5942034396374609  0.3483770849475293  0.687896492472845  1.0000
  S   S5        1.0  0.108676899494867  0.1084343671516024  0.18875395448689858  1.0000
  S   S6        1.0  0.6086782537395834  0.6084323621724436  0.3112464163348321  1.0000
  S   S7        1.0  0.8913231923079935  0.8915681310095281  0.8112453829348423  1.0000
  S   S8        1.0  0.3913226261328617  0.39156570421408804  0.6887529210904829  1.0000
  Br  Br1       1.0  0.6507581400939701  0.33689339981278726  0.08047167017620176  1.0000
  Br  Br2       1.0  0.15075803966657012  0.836893319068963  0.4195284135546017  1.0000
  Br  Br3       1.0  0.34924276694618334  0.6631082086964285  0.9195276672465764  1.0000
  Br  Br4       1.0  0.8492425865719185  0.16310740528332704  0.580470923868674  1.0000
  Br  Br5       1.0  0.3462537629896686  0.9248958816689027  0.09812629084660068  1.0000
  Br  Br6       1.0  0.8462543887994299  0.4248954578755644  0.40187385947464077  1.0000
  Br  Br7       1.0  0.6537422254608742  0.0751075226273272  0.9018752987019878  1.0000
  Br  Br8       1.0  0.15374623743966961  0.5751052664761434  0.5981262286584865  1.0000
  N   N1        1.0  0.6474230065547887  0.05369840200486212  0.27298015095413314  1.0000
  N   N2        1.0  0.14742259144294684  0.5536986234599868  0.22702108761166068  1.0000
  N   N3        1.0  0.35257761968431817  0.9463023223468383  0.727019937178987  1.0000
  N   N4        1.0  0.8525769387578137  0.4463021063861135  0.7729797512307569  1.0000
  N   N5        1.0  0.366263434973483  0.20171766005105238  0.2756907187984723  1.0000
  N   N6        1.0  0.8662621742262929  0.7017149183787836  0.22430902166556166  1.0000
  N   N7        1.0  0.6337377528683348  0.7982848326150885  0.7243086186238159  1.0000
  N   N8        1.0  0.13373651356823757  0.2982831589977195  0.7756903157586592  1.0000
