data_image0
_chemical_formula_structural       Cu2H28C22I2Br4N8
_chemical_formula_sum              "Cu2 H28 C22 I2 Br4 N8"
_cell_length_a       4.262255500902736
_cell_length_b       8.925003946594732
_cell_length_c       20.27085581809038
_cell_angle_alpha    89.99977255947339
_cell_angle_beta     89.99976366350678
_cell_angle_gamma    94.31410330745928

_space_group_name_H-M_alt    "P 1"
_space_group_IT_number       1

loop_
  _space_group_symop_operation_xyz
  'x, y, z'

loop_
  _atom_site_type_symbol
  _atom_site_label
  _atom_site_symmetry_multiplicity
  _atom_site_fract_x
  _atom_site_fract_y
  _atom_site_fract_z
  _atom_site_occupancy
  Cu  Cu1       1.0  0.021852754096421723  0.586936417347353  0.25000026877930276  1.0000
  Cu  Cu2       1.0  0.978149875501913  0.41306339130832015  0.7499996189403075  1.0000
  H   H1        1.0  0.7833175503725299  0.6480944731577412  0.38859788374078613  1.0000
  H   H2        1.0  0.21667743411787646  0.35190397382584143  0.8885989832549225  1.0000
  H   H3        1.0  0.21667402366907854  0.3519098121131705  0.6114020039796698  1.0000
  H   H4        1.0  0.7833223401672954  0.6480924603634151  0.1114033710642843  1.0000
  H   H5        1.0  0.7891482280390605  0.5536131967326556  0.4664062228866043  1.0000
  H   H6        1.0  0.21085397775708967  0.4463811332646372  0.9664076554643373  1.0000
  H   H7        1.0  0.2108538930153898  0.4463832410533471  0.5335921848789269  1.0000
  H   H8        1.0  0.7891479737354601  0.5536141808764512  0.033594698854912494  1.0000
  H   H9        1.0  0.45840139921998707  0.525912527387753  0.4137835496415221  1.0000
  H   H10       1.0  0.5415928793909471  0.47408454983416703  0.913784155625542  1.0000
  H   H11       1.0  0.5415923520237342  0.47409063783257466  0.5862168313980616  1.0000
  H   H12       1.0  0.4584023709701128  0.5259130008306343  0.0862172120564679  1.0000
  H   H13       1.0  0.9872463580307878  0.9651042689289041  0.3152340645795988  1.0000
  H   H14       1.0  0.012755729898657399  0.0349005203181036  0.8152354009250826  1.0000
  H   H15       1.0  0.012749739929681404  0.034898899864060716  0.6847673030971392  1.0000
  H   H16       1.0  0.9872468996996774  0.9650992883375694  0.18476448679452764  1.0000
  H   H17       1.0  0.0563472254459684  0.9761204197282543  0.4013141958398592  1.0000
  H   H18       1.0  0.9436501740051709  0.023880153810736708  0.9013147498292823  1.0000
  H   H19       1.0  0.9436440095401154  0.023881618284157503  0.5986871718399553  1.0000
  H   H20       1.0  0.05635027839104371  0.9761207748955127  0.09868464457120038  1.0000
  H   H21       1.0  0.368823648144854  0.021160878223973605  0.3451963976533889  1.0000
  H   H22       1.0  0.6311769541018607  0.978838000077694  0.8451970301656572  1.0000
  H   H23       1.0  0.6311695945234702  0.9788389161122243  0.6548054633466123  1.0000
  H   H24       1.0  0.36883002992171743  0.021159568486446304  0.15480187091587538  1.0000
  H   H25       1.0  0.49051989691972847  0.3720328961723638  0.25000025495219086  1.0000
  H   H26       1.0  0.5094917805478475  0.6279646795418755  0.7499996327654798  1.0000
  H   H27       1.0  0.40092240671050655  0.17116519324829227  0.2500014558581327  1.0000
  H   H28       1.0  0.5990825695940672  0.8288346189751936  0.7500004051367951  1.0000
  C   C1        1.0  0.7162366200591846  0.5428696287824694  0.41457076105025686  1.0000
  C   C2        1.0  0.28375798082404213  0.4571296879961012  0.9145716187270522  1.0000
  C   C3        1.0  0.2837573007254335  0.4571346600731304  0.5854276467119419  1.0000
  C   C4        1.0  0.7162396162590171  0.5428678662437463  0.0854302422730271  1.0000
  C   C5        1.0  0.8607177827770797  0.4158181524172022  0.38215037316385286  1.0000
  C   C6        1.0  0.13928169343540733  0.5841781174805262  0.8821516263261344  1.0000
  C   C7        1.0  0.13928283916003892  0.5841838999243265  0.6178470479592448  1.0000
  C   C8        1.0  0.8607179113351365  0.4158171930855091  0.11785023467503918  1.0000
  C   C9        1.0  0.8704447601661015  0.26542187092144337  0.4035171366354007  1.0000
  C   C10       1.0  0.12955259236552769  0.7345786810861341  0.9035181350814839  1.0000
  C   C11       1.0  0.1295491606447854  0.7345824179462072  0.5964788045313796  1.0000
  C   C12       1.0  0.8704475209751693  0.26542000036162255  0.09648273927836468  1.0000
  C   C13       1.0  0.0349604189213153  0.18859638771230183  0.35655062696631024  1.0000
  C   C14       1.0  0.9650538523748934  0.8114012774688677  0.8565502782298607  1.0000
  C   C15       1.0  0.96505210616143  0.8114068061373274  0.6434477807888327  1.0000
  C   C16       1.0  0.03496469575456022  0.18859518535210645  0.1434496094858204  1.0000
  C   C17       1.0  0.1167811666874385  0.030392633530233602  0.3540214831729074  1.0000
  C   C18       1.0  0.8832172399258341  0.9696084021966274  0.8540224081092089  1.0000
  C   C19       1.0  0.8832147617584026  0.9696094116395033  0.645979391185797  1.0000
  C   C20       1.0  0.11678522015262158  0.030390282833408798  0.14597747961146007  1.0000
  C   C21       1.0  0.30149123253966775  0.28072502755789935  0.25000041620491226  1.0000
  C   C22       1.0  0.6985184372299146  0.7192747918253275  0.7500004581498202  1.0000
  I   I1        1.0  0.5520957415531313  0.7527426727561136  0.250000388769024  1.0000
  I   I2        1.0  0.44790688803995243  0.24725713589714365  0.7499999922696715  1.0000
  Br  Br1       1.0  0.6966282514848744  0.1828709912627886  0.4817872893582376  1.0000
  Br  Br2       1.0  0.3033714495550656  0.8171243084701347  0.9817875004018219  1.0000
  Br  Br3       1.0  0.3033467259828626  0.8171321453571564  0.5182091451367866  1.0000
  Br  Br4       1.0  0.6966281552364889  0.18287100210554996  0.018212387323025294  1.0000
  N   N1        1.0  0.01331440730778872  0.43173660020523397  0.3241674790694801  1.0000
  N   N2        1.0  0.9866866427702377  0.5682624836067377  0.8241690169820116  1.0000
  N   N3        1.0  0.9866937633759747  0.5682688337479791  0.6758294487283293  1.0000
  N   N4        1.0  0.013313301045322109  0.43173507421297325  0.1758323506979735  1.0000
  N   N5        1.0  0.11693271474818089  0.29413161812581023  0.3094375403177523  1.0000
  N   N6        1.0  0.8830691575915068  0.7058709805212757  0.8094384334237147  1.0000
  N   N7        1.0  0.8830729396569268  0.7058726886098441  0.6905623473966214  1.0000
  N   N8        1.0  0.11693581871832495  0.2941288317046188  0.19056293425213508  1.0000
