data_image0
_chemical_formula_structural       Cu2H16C16N16Cl4O8
_chemical_formula_sum              "Cu2 H16 C16 N16 Cl4 O8"
_cell_length_a       3.873802530257406
_cell_length_b       10.141263276863315
_cell_length_c       17.34109318001372
_cell_angle_alpha    89.9999375751456
_cell_angle_beta     89.99987303329507
_cell_angle_gamma    90.52586537107028

_space_group_name_H-M_alt    "P 1"
_space_group_IT_number       1

loop_
  _space_group_symop_operation_xyz
  'x, y, z'

loop_
  _atom_site_type_symbol
  _atom_site_label
  _atom_site_symmetry_multiplicity
  _atom_site_fract_x
  _atom_site_fract_y
  _atom_site_fract_z
  _atom_site_occupancy
  Cu  Cu1       1.0  0.9999963722657199  7.770801886000961e-07  0.49999937616453843  1.0000
  Cu  Cu2       1.0  0.5000031645934939  0.49999845239501184  2.979336385999999e-07  1.0000
  H   H1        1.0  0.6200340816845511  0.5381972291929246  0.3165869875823546  1.0000
  H   H2        1.0  0.8799672895659968  0.9618029556498868  0.8165858346568201  1.0000
  H   H3        1.0  0.3799673482234881  0.46180364246546923  0.6834134249054314  1.0000
  H   H4        1.0  0.12002894603725169  0.038196935932788306  0.1834145778325436  1.0000
  H   H5        1.0  0.8710477533411664  0.9525223861630964  0.3410523820529292  1.0000
  H   H6        1.0  0.6289559202181182  0.5474767624019775  0.8410527647627929  1.0000
  H   H7        1.0  0.12894593249762923  0.0474784945438884  0.6589468771069207  1.0000
  H   H8        1.0  0.37104799628988167  0.4525211479195974  0.1589464943954937  1.0000
  H   H9        1.0  0.11024702035258827  0.5804197145879397  0.549342321045806  1.0000
  H   H10       1.0  0.3897504405616773  0.9195807215651047  0.0493425265439669  1.0000
  H   H11       1.0  0.889749278432639  0.4195821492105767  0.4506569381130987  1.0000
  H   H12       1.0  0.6102508945821369  0.08041719177118273  0.9506578859447714  1.0000
  H   H13       1.0  0.2024419610772057  0.7512127636543865  0.5631170397891339  1.0000
  H   H14       1.0  0.29756052322943566  0.7487876399183336  0.0631173973807222  1.0000
  H   H15       1.0  0.7975595320069786  0.24879008021873975  0.4368833726980199  1.0000
  H   H16       1.0  0.7024408119114582  0.2512102734173993  0.9368835917729328  1.0000
  C   C1        1.0  0.9740389623543564  0.7027674109188738  0.461010270599985  1.0000
  C   C2        1.0  0.5259661424301284  0.7972334756453349  0.9610111235249263  1.0000
  C   C3        1.0  0.025965112091100206  0.2972354299389792  0.5389895652216339  1.0000
  C   C4        1.0  0.47403774248105174  0.20276344856720396  0.038989865628416  1.0000
  C   C5        1.0  0.7246736825481648  0.6216201028525106  0.3490670104967322  1.0000
  C   C6        1.0  0.7753273285906984  0.8783790332817601  0.8490671142574728  1.0000
  C   C7        1.0  0.2753251660044355  0.3783807718222647  0.6509328253267697  1.0000
  C   C8        1.0  0.22466884383640462  0.121618886086182  0.1509332982325304  1.0000
  C   C9        1.0  0.730337094307636  0.7491752227164952  0.31780884746798693  1.0000
  C   C10       1.0  0.7696719770647037  0.7508239646152435  0.8178090340032043  1.0000
  C   C11       1.0  0.269661785833037  0.2508266380656464  0.6821909883552024  1.0000
  C   C12       1.0  0.23032938967010352  0.2491749348289645  0.1821908018203047  1.0000
  C   C13       1.0  0.8607473769994911  0.8518609026905964  0.3627615434731554  1.0000
  C   C14       1.0  0.6392560453960456  0.6481372179262905  0.8627618580160998  1.0000
  C   C15       1.0  0.13925663426982032  0.14813996595252385  0.6372382923490889  1.0000
  C   C16       1.0  0.36074270839232986  0.3518606984263783  0.1372379778083541  1.0000
  N   N1        1.0  0.9666810774461181  0.8310349427678292  0.4348261850971369  1.0000
  N   N2        1.0  0.5333217108199122  0.6689659972782563  0.9348265382315262  1.0000
  N   N3        1.0  0.0333127031539817  0.16896889626069375  0.5651736507266775  1.0000
  N   N4        1.0  0.4666821740941813  0.3310309269348437  0.0651738742568995  1.0000
  N   N5        1.0  0.8525876904569857  0.5984322899955998  0.418400562471689  1.0000
  N   N6        1.0  0.6474126510025398  0.9015676986174058  0.9184001373962191  1.0000
  N   N7        1.0  0.14741125285399898  0.40157154300015924  0.5816004266806871  1.0000
  N   N8        1.0  0.352588652547368  0.09842922861040651  0.0816014284226654  1.0000
  N   N9        1.0  0.10472539252577921  0.6768020644089177  0.5296042054999575  1.0000
  N   N10       1.0  0.39527226802818655  0.8231984097860804  0.029604468765832302  1.0000
  N   N11       1.0  0.8952682933130162  0.32319881629805997  0.47039505365989237  1.0000
  N   N12       1.0  0.6047316484710662  0.17679950053382507  0.9703965203871976  1.0000
  N   N13       1.0  0.5905805794873941  0.7765098074689618  0.24276343111077378  1.0000
  N   N14       1.0  0.9094189254970929  0.7234895365645144  0.7427629899810739  1.0000
  N   N15       1.0  0.4094156561187746  0.22349008411427462  0.757236404713673  1.0000
  N   N16       1.0  0.09058502259315301  0.2765093598633186  0.25723742250672643  1.0000
  Cl  Cl1       1.0  0.6111550465838604  0.9155041685503634  0.5850791718431481  1.0000
  Cl  Cl2       1.0  0.8888435035111472  0.5844964685156813  0.085080164645845  1.0000
  Cl  Cl3       1.0  0.3888439283181099  0.0845006505533235  0.41492124064399855  1.0000
  Cl  Cl4       1.0  0.11115521868331509  0.41550046172851307  0.914920824508755  1.0000
  O   O1        1.0  0.3908536003794438  0.6931842155185068  0.21415746623893034  1.0000
  O   O2        1.0  0.10914738783234405  0.8068168830569674  0.7141565425950773  1.0000
  O   O3        1.0  0.6091452165850768  0.3068156730489023  0.7858423695848913  1.0000
  O   O4        1.0  0.8908565918459744  0.1931829994782319  0.2858438698924034  1.0000
  O   O5        1.0  0.6705570949388786  0.8831359477176267  0.2112175007359127  1.0000
  O   O6        1.0  0.8294401477590723  0.6168634601317822  0.7112165888267654  1.0000
  O   O7        1.0  0.3294339463624993  0.11686296378989168  0.7887823350901116  1.0000
  O   O8        1.0  0.1705586376232091  0.3831354423293689  0.2887820936675496  1.0000
