data_image0
_chemical_formula_structural       Cd3H18C14N10Cl6O2
_chemical_formula_sum              "Cd3 H18 C14 N10 Cl6 O2"
_cell_length_a       8.406136556717815
_cell_length_b       8.24388115375384
_cell_length_c       10.650042041809414
_cell_angle_alpha    90.47580356983855
_cell_angle_beta     92.67990863686053
_cell_angle_gamma    106.46818277748054

_space_group_name_H-M_alt    "P 1"
_space_group_IT_number       1

loop_
  _space_group_symop_operation_xyz
  'x, y, z'

loop_
  _atom_site_type_symbol
  _atom_site_label
  _atom_site_symmetry_multiplicity
  _atom_site_fract_x
  _atom_site_fract_y
  _atom_site_fract_z
  _atom_site_occupancy
  Cd  Cd1       1.0  0.4999987891290588  0.5000000747838484  0.4999985964853906  1.0000
  Cd  Cd2       1.0  0.5342342160314502  0.5625304981544231  0.83664899374444  1.0000
  Cd  Cd3       1.0  0.4657672249307155  0.4374667868860271  0.1633520260502337  1.0000
  H   H1        1.0  0.02813803394875689  0.7929657377415682  0.6108158022845416  1.0000
  H   H2        1.0  0.9718434335973428  0.2070329462783248  0.3891724504626808  1.0000
  H   H3        1.0  0.9229158646357051  0.619353337667313  0.4151797253973797  1.0000
  H   H4        1.0  0.07707711485005582  0.3806510041158262  0.5848145776386744  1.0000
  H   H5        1.0  0.286787296731454  0.93591927337485  0.20607453381487062  1.0000
  H   H6        1.0  0.713237861843119  0.06407387774935809  0.7939308707740764  1.0000
  H   H7        1.0  0.4081403007322777  0.120606825988915  0.3926503224470324  1.0000
  H   H8        1.0  0.5918632265964875  0.8793928306071238  0.6073583045499831  1.0000
  H   H9        1.0  0.939925895243981  0.5565806486800823  0.2164454611734783  1.0000
  H   H10       1.0  0.06007903133657067  0.4434204055711887  0.7835435068412266  1.0000
  H   H11       1.0  0.12808027029365132  0.6483432494938272  0.1382135651674119  1.0000
  H   H12       1.0  0.8719283789636593  0.35166528807101116  0.8617774972956909  1.0000
  H   H13       1.0  0.963992090486869  0.7483782923533226  0.13352555945173353  1.0000
  H   H14       1.0  0.03600908278135511  0.2516255068032436  0.8664708516563735  1.0000
  H   H15       1.0  0.8281782548647173  0.8106132415068289  0.9038937251143082  1.0000
  H   H16       1.0  0.1718265895860824  0.18937995589360673  0.09610733431397732  1.0000
  H   H17       1.0  0.7116709220714058  0.8311870952678574  0.012778741548181904  1.0000
  H   H18       1.0  0.2883341047848802  0.1688138493299505  0.9872205572240491  1.0000
  C   C1        1.0  0.28012533436412923  0.08021259842539759  0.6304049561558145  1.0000
  C   C2        1.0  0.7198692357659412  0.919788958390903  0.3695996821789791  1.0000
  C   C3        1.0  0.2244756773095632  0.9746850146426314  0.5177542201276353  1.0000
  C   C4        1.0  0.7755146164809404  0.02531813374567089  0.482247499991864  1.0000
  C   C5        1.0  0.08904434691808662  0.8293185645521746  0.5233199093939902  1.0000
  C   C6        1.0  0.9109415428661908  0.17068234168343116  0.47667601619914995  1.0000
  C   C7        1.0  0.02943908100814243  0.7316505877128209  0.4163803353861795  1.0000
  C   C8        1.0  0.9705543394610743  0.2683549971200776  0.5836158765205965  1.0000
  C   C9        1.0  0.23604594842045404  0.9095922560826112  0.2983170344745361  1.0000
  C   C10       1.0  0.7639577372105322  0.0904010060192704  0.7016849312917373  1.0000
  C   C11       1.0  0.2999637802510052  0.012118407806305194  0.4026322236248916  1.0000
  C   C12       1.0  0.7000362341544246  0.9878814827680459  0.5973753657469842  1.0000
  C   C13       1.0  0.028933861329498645  0.6747055021119762  0.19071008800148093  1.0000
  C   C14       1.0  0.971072047536687  0.325301901869004  0.8092827565864199  1.0000
  N   N1        1.0  0.38659206950041647  0.23836271545411591  0.6357712600416789  1.0000
  N   N2        1.0  0.6134032275819834  0.7616375236424845  0.3642315022441807  1.0000
  N   N3        1.0  0.39866867505468667  0.2840355433929247  0.7568906948641754  1.0000
  N   N4        1.0  0.6013318077251101  0.7159695336093536  0.2431113489319756  1.0000
  N   N5        1.0  0.3039591603748164  0.16020088771697524  0.8226362916447627  1.0000
  N   N6        1.0  0.6960406045686227  0.8398054970365011  0.17736856736009804  1.0000
  N   N7        1.0  0.22708212079013632  0.030992789217172908  0.7458980724123165  1.0000
  N   N8        1.0  0.7729121269071514  0.9690113682425691  0.2541065942030443  1.0000
  N   N9        1.0  0.10125499251716254  0.7736947202358807  0.3054713335585646  1.0000
  N   N10       1.0  0.8987452440453083  0.22630267934849263  0.6945258967752181  1.0000
  Cl  Cl1       1.0  0.3476912477081058  0.6440537731704482  0.651652657383103  1.0000
  Cl  Cl2       1.0  0.6523087120014708  0.3559461772148894  0.3483492970301185  1.0000
  Cl  Cl3       1.0  0.7533518777533956  0.5828910751321105  0.6654885970571343  1.0000
  Cl  Cl4       1.0  0.24664479114689186  0.4171026449579145  0.3345122326186498  1.0000
  Cl  Cl5       1.0  0.3171287134062056  0.5836254917402286  0.9927914759626192  1.0000
  Cl  Cl6       1.0  0.6828730682206937  0.41636917271979  0.0072113938710316045  1.0000
  O   O1        1.0  0.7197727386316544  0.8261352833334711  0.918541983262422  1.0000
  O   O2        1.0  0.28023177427038354  0.17386052467890076  0.0814581652866622  1.0000
