data_image0
_chemical_formula_structural       Cd2H16C22S4N16
_chemical_formula_sum              "Cd2 H16 C22 S4 N16"
_cell_length_a       8.256920446960189
_cell_length_b       8.47089728953803
_cell_length_c       10.76015019659737
_cell_angle_alpha    92.52127782705462
_cell_angle_beta     94.81297714641848
_cell_angle_gamma    101.12899237751577

_space_group_name_H-M_alt    "P 1"
_space_group_IT_number       1

loop_
  _space_group_symop_operation_xyz
  'x, y, z'

loop_
  _atom_site_type_symbol
  _atom_site_label
  _atom_site_symmetry_multiplicity
  _atom_site_fract_x
  _atom_site_fract_y
  _atom_site_fract_z
  _atom_site_occupancy
  Cd  Cd1       1.0  0.2697220801696146  0.2594636646349712  0.1357007963518484  1.0000
  Cd  Cd2       1.0  0.7302766701680027  0.7405315019283805  0.8642974579315706  1.0000
  H   H1        1.0  0.7205407038267068  0.4131573464174777  0.5489541948575294  1.0000
  H   H2        1.0  0.2794600987848455  0.586847466814362  0.45104637286429045  1.0000
  H   H3        1.0  0.8270667574629158  0.25195181641981174  0.15710015056378518  1.0000
  H   H4        1.0  0.1729342929775086  0.7480542003904204  0.8428995440238367  1.0000
  H   H5        1.0  0.5796477461191999  0.1998082591904264  0.7297665687759151  1.0000
  H   H6        1.0  0.42035302373689376  0.8001905246021366  0.2702375075156525  1.0000
  H   H7        1.0  0.3244165828410742  0.9981118673640949  0.7542991745658938  1.0000
  H   H8        1.0  0.675586847621652  0.0018880969121611  0.24570231438905674  1.0000
  H   H9        1.0  0.10828437879977322  0.9124470231796593  0.5757223571756427  1.0000
  H   H10       1.0  0.8917182733548543  0.0875493213407381  0.4242771019259096  1.0000
  H   H11       1.0  0.1403316765669942  0.0282149122850299  0.3684021806554512  1.0000
  H   H12       1.0  0.8596722495534692  0.9717874591479966  0.6315975620311107  1.0000
  H   H13       1.0  0.6157792273186828  0.46826990638989935  0.1975618686162903  1.0000
  H   H14       1.0  0.38421692302495797  0.5317301163455993  0.8024391838387787  1.0000
  H   H15       1.0  0.6859151601248997  0.6059877843918501  0.3285355463472754  1.0000
  H   H16       1.0  0.31408295402282965  0.3940158411397405  0.6714638893063878  1.0000
  C   C1        1.0  0.901262303474539  0.33950846728465217  0.2263587362331663  1.0000
  C   C2        1.0  0.09873580370889812  0.6604951564427992  0.7736397695693  1.0000
  C   C3        1.0  0.4967716375699779  0.2321250864832933  0.5369568678594376  1.0000
  C   C4        1.0  0.503227180344595  0.7678761185400447  0.4630425271102041  1.0000
  C   C5        1.0  0.483333256881629  0.16497823996625266  0.6527994262474976  1.0000
  C   C6        1.0  0.5166714147914675  0.8350217217833487  0.347205854862203  1.0000
  C   C7        1.0  0.3402441599447528  0.051060723216402  0.6645070260123234  1.0000
  C   C8        1.0  0.6597575406141587  0.9489368382338624  0.33549334690744104  1.0000
  C   C9        1.0  0.21756879317653238  0.0035293537779708  0.5634045892133415  1.0000
  C   C10       1.0  0.7824356028105016  0.9964693971766893  0.4365978456257764  1.0000
  C   C11       1.0  0.23278066623366556  0.0684276100486159  0.44728870584560093  1.0000
  C   C12       1.0  0.7672198140077666  0.93156995934072  0.5527106644729897  1.0000
  C   C13       1.0  0.3746507990340717  0.18517314670916818  0.43444489073570475  1.0000
  C   C14       1.0  0.6253560166950294  0.8148255829549313  0.5655567597521768  1.0000
  C   C15       1.0  0.5711838317789387  0.36579989362056853  0.3718015836520436  1.0000
  C   C16       1.0  0.4288140484685172  0.6342025319409216  0.6282005848381971  1.0000
  C   C17       1.0  0.6736357531733219  0.4800580631691461  0.2936336756407414  1.0000
  C   C18       1.0  0.3263623749030059  0.5199455659707295  0.7063676197153086  1.0000
  C   C19       1.0  0.5888624925709677  0.35483011413904103  0.9458097953113267  1.0000
  C   C20       1.0  0.4111367792155604  0.6451734872162332  0.054182274282759096  1.0000
  C   C21       1.0  0.9521084319224753  0.1237304878857941  0.8913310479084231  1.0000
  C   C22       1.0  0.047896379802800516  0.8762875730064934  0.1086692865991949  1.0000
  S   S1        1.0  0.5291455742555441  0.18868874275018743  0.014998733641320396  1.0000
  S   S2        1.0  0.4708532088375464  0.8113124532524483  0.9849960120723439  1.0000
  S   S3        1.0  0.05708857155607211  0.30386201385675093  0.9339528762522065  1.0000
  S   S4        1.0  0.9428991770973808  0.6961271983272256  0.0660417228927841  1.0000
  N   N1        1.0  0.42614857643027165  0.2704621536203432  0.3321150398492634  1.0000
  N   N2        1.0  0.5738539024367383  0.7295390275857869  0.6678873629238922  1.0000
  N   N3        1.0  0.6178777396400862  0.34763573700059414  0.49396397958471994  1.0000
  N   N4        1.0  0.38212431114613576  0.6523690755087443  0.506041310143047  1.0000
  N   N5        1.0  0.8420850932080413  0.4505959777432622  0.2928644882025607  1.0000
  N   N6        1.0  0.157912069343972  0.5494088647182095  0.7071358612693147  1.0000
  N   N7        1.0  0.06316876174116713  0.36193437977717485  0.25782207537207574  1.0000
  N   N8        1.0  0.9368317860772208  0.6380692280721404  0.742178435632745  1.0000
  N   N9        1.0  0.10037101523554526  0.48892792547247393  0.3436195454068809  1.0000
  N   N10       1.0  0.8996283331582546  0.5110756957283299  0.6563827525503427  1.0000
  N   N11       1.0  0.6336590035716013  0.470394632927288  0.890450980232373  1.0000
  N   N12       1.0  0.3663421177579949  0.5296004997165298  0.1095399807414523  1.0000
  N   N13       1.0  0.8737628956573075  0.9944311656960565  0.8578697808525889  1.0000
  N   N14       1.0  0.12621708749585278  0.005538776968144501  0.1421171836120791  1.0000
  N   N15       1.0  0.9686503907899606  0.5439322047257489  0.3654553963364934  1.0000
  N   N16       1.0  0.031348702810674894  0.45607021109253043  0.6345468449037313  1.0000
