data_image0
_chemical_formula_structural       Ag4H16C24N4O8
_chemical_formula_sum              "Ag4 H16 C24 N4 O8"
_cell_length_a       3.58454085120655
_cell_length_b       7.786525958104293
_cell_length_c       20.157031892393455
_cell_angle_alpha    90.00058451263236
_cell_angle_beta     89.99878013312747
_cell_angle_gamma    89.99989959928527

_space_group_name_H-M_alt    "P 1"
_space_group_IT_number       1

loop_
  _space_group_symop_operation_xyz
  'x, y, z'

loop_
  _atom_site_type_symbol
  _atom_site_label
  _atom_site_symmetry_multiplicity
  _atom_site_fract_x
  _atom_site_fract_y
  _atom_site_fract_z
  _atom_site_occupancy
  Ag  Ag1       1.0  0.12571336755264886  0.8117644228925089  0.05114778874398238  1.0000
  Ag  Ag2       1.0  0.3742546654742398  0.18824632861218765  0.5511482666625793  1.0000
  Ag  Ag3       1.0  0.6257268372473631  0.6882356338290665  0.9488536621816333  1.0000
  Ag  Ag4       1.0  0.8742660433518951  0.31176709287863263  0.44885323513000924  1.0000
  H   H1        1.0  0.9489673320631057  0.3167477972174312  0.9639949184206383  1.0000
  H   H2        1.0  0.5510237420726297  0.6832578956543217  0.4639947111647159  1.0000
  H   H3        1.0  0.4489504746644073  0.18325270848965403  0.03600481122465739  1.0000
  H   H4        1.0  0.0510388932731658  0.8167576453484318  0.5360060313522579  1.0000
  H   H5        1.0  0.39769161655603813  0.10740073498137555  0.7836976766573753  1.0000
  H   H6        1.0  0.10230725666059469  0.8925814481836272  0.2837000885829538  1.0000
  H   H7        1.0  0.8976719119709313  0.39258697816505633  0.21630075946897154  1.0000
  H   H8        1.0  0.6023375544581668  0.6074096415554707  0.7163029395357366  1.0000
  H   H9        1.0  0.30750985267531655  0.3958663403930487  0.730696072505914  1.0000
  H   H10       1.0  0.19250371317563256  0.6041157351858149  0.230699479108864  1.0000
  H   H11       1.0  0.8074958488550052  0.10411632379805982  0.2692962568711649  1.0000
  H   H12       1.0  0.6925072945418975  0.8958778348932982  0.7693041985854588  1.0000
  H   H13       1.0  0.07177347527643009  0.6388306940216071  0.8025731593156845  1.0000
  H   H14       1.0  0.42826778210869776  0.3611596904208343  0.3025752034738999  1.0000
  H   H15       1.0  0.5717337990609365  0.8611617097708475  0.19742105506148275  1.0000
  H   H16       1.0  0.9282332834133129  0.13884211985751457  0.6974280775862167  1.0000
  C   C1        1.0  0.03701536256717469  0.33013094418517147  0.9126309799897423  1.0000
  C   C2        1.0  0.46299323581850865  0.6698726046531008  0.4126346116542263  1.0000
  C   C3        1.0  0.5369726517172139  0.16986739588708133  0.08736584991479646  1.0000
  C   C4        1.0  0.9630103509807527  0.8301386806366297  0.5873695266743649  1.0000
  C   C5        1.0  0.18512586308585807  0.1899677826348523  0.8780871407246447  1.0000
  C   C6        1.0  0.31488127755250156  0.8100310061451382  0.3780829606871448  1.0000
  C   C7        1.0  0.6850925592163152  0.3100304126367207  0.12191507969274076  1.0000
  C   C8        1.0  0.8148891114572124  0.6899701497948882  0.6219162832183184  1.0000
  C   C9        1.0  0.23739570194316428  0.021158662410336104  0.9133225493859454  1.0000
  C   C10       1.0  0.26261839374690504  0.9788436202514746  0.41332122134159005  1.0000
  C   C11       1.0  0.7373437781894837  0.4788292074931563  0.08667252698694478  1.0000
  C   C12       1.0  0.7626365173617983  0.5211678609627058  0.5866782211307677  1.0000
  C   C13       1.0  0.28484966175168586  0.2143179036467729  0.8118614754940621  1.0000
  C   C14       1.0  0.21516816934526867  0.7856817146269179  0.3118645232932663  1.0000
  C   C15       1.0  0.7848280585542967  0.2856750568909163  0.1881324283266465  1.0000
  C   C16       1.0  0.7151736093452641  0.7143272444933829  0.6881370838982404  1.0000
  C   C17       1.0  0.23678084100102834  0.37512353370872387  0.782808500840957  1.0000
  C   C18       1.0  0.2632348771110742  0.6248663316552694  0.282806263780408  1.0000
  C   C19       1.0  0.7367423045203124  0.1248720424734842  0.21719153890571616  1.0000
  C   C20       1.0  0.7632335784093698  0.875136159109495  0.7171956568927126  1.0000
  C   C21       1.0  0.09949992089110539  0.5086547798934475  0.8218524729092775  1.0000
  C   C22       1.0  0.40053903616053077  0.4913399636893985  0.3218576188325314  1.0000
  C   C23       1.0  0.5994537853613193  0.9913363124987385  0.17814064392499054  1.0000
  C   C24       1.0  0.9005211770761007  0.0086657264999985  0.6781447753458278  1.0000
  N   N1        1.0  0.997572121146412  0.48674168227729814  0.8855892741772277  1.0000
  N   N2        1.0  0.5024338868308291  0.5132529617013546  0.38558857785547207  1.0000
  N   N3        1.0  0.49754641906033464  0.0132446489367695  0.11441126299882845  1.0000
  N   N4        1.0  0.0024308047334003  0.9867574897658642  0.6144128454016238  1.0000
  O   O1        1.0  0.09754450350090592  0.013998402232232404  0.9711835021046294  1.0000
  O   O2        1.0  0.40245431972984136  0.9860143897973688  0.4711821672445991  1.0000
  O   O3        1.0  0.597544097019906  0.48600244725004427  0.028820539323774586  1.0000
  O   O4        1.0  0.9024654190490792  0.513996954685375  0.5288202166860642  1.0000
  O   O5        1.0  0.4178404787494472  0.9035260086148968  0.8833230102560206  1.0000
  O   O6        1.0  0.08217719610068741  0.096470349151339  0.3833213514854278  1.0000
  O   O7        1.0  0.9178140193617566  0.5964776151980121  0.11667782695864296  1.0000
  O   O8        1.0  0.5821738556950178  0.403531799575056  0.6166782833941153  1.0000
