data_image0
_chemical_formula_structural       Cd4H32C24N64O8
_chemical_formula_sum              "Cd4 H32 C24 N64 O8"
_cell_length_a       7.72133226001153
_cell_length_b       14.704966233276307
_cell_length_c       15.328465548387248
_cell_angle_alpha    63.47811596250727
_cell_angle_beta     75.93752777745367
_cell_angle_gamma    74.99399556620291

_space_group_name_H-M_alt    "P 1"
_space_group_IT_number       1

loop_
  _space_group_symop_operation_xyz
  'x, y, z'

loop_
  _atom_site_type_symbol
  _atom_site_label
  _atom_site_symmetry_multiplicity
  _atom_site_fract_x
  _atom_site_fract_y
  _atom_site_fract_z
  _atom_site_occupancy
  Cd  Cd1       1.0  0.7072821710293833  0.753214011468323  0.7111037274903823  1.0000
  Cd  Cd2       1.0  0.17221264801553812  0.7465696601039439  0.7892614161614304  1.0000
  Cd  Cd3       1.0  0.29271852663101333  0.24678633502572467  0.2888952865024663  1.0000
  Cd  Cd4       1.0  0.8277858191168264  0.2534299146884322  0.21073902403620798  1.0000
  H   H1        1.0  0.8035902050774909  0.6019651146843472  0.29043205019527824  1.0000
  H   H2        1.0  0.6942282947108398  0.8981704528486816  0.20855302890972638  1.0000
  H   H3        1.0  0.19640761257348768  0.398034460108029  0.7095690394837535  1.0000
  H   H4        1.0  0.30577123644490467  0.1018298936453661  0.7914458105019123  1.0000
  H   H5        1.0  0.716845070752015  0.6000675002819094  0.193785303897748  1.0000
  H   H6        1.0  0.5095075319499572  0.9001907678163901  0.3037055621366563  1.0000
  H   H7        1.0  0.2831516275387787  0.3999336179138097  0.8062158316162213  1.0000
  H   H8        1.0  0.49049233662646674  0.0998080352743216  0.6962953544654198  1.0000
  H   H9        1.0  0.9615099613558232  0.8920794115805035  0.6073580452426697  1.0000
  H   H10       1.0  0.46397458228842203  0.6073770584843956  0.8930213126790963  1.0000
  H   H11       1.0  0.03849107372525396  0.10791939151020807  0.3926430459406164  1.0000
  H   H12       1.0  0.5360248164092025  0.39262328800965907  0.10697900027653162  1.0000
  H   H13       1.0  0.7687754994394357  0.9621622702921682  0.6346271464518412  1.0000
  H   H14       1.0  0.3667326601735537  0.5376136842634196  0.8652135876167721  1.0000
  H   H15       1.0  0.23122361717432238  0.0378373045002149  0.36537264426441146  1.0000
  H   H16       1.0  0.6332683195707108  0.4623874339322923  0.13478594861545196  1.0000
  H   H17       1.0  0.8260829075159605  0.8765095587201444  0.8036695107056816  1.0000
  H   H18       1.0  0.5030080284357508  0.6232864600788232  0.6966188876658777  1.0000
  H   H19       1.0  0.17391620909779695  0.123490016072239  0.1963302800105708  1.0000
  H   H20       1.0  0.4969913702618741  0.3767138864152244  0.30338142528975004  1.0000
  H   H21       1.0  0.971587567866955  0.952951239178901  0.7278763079715916  1.0000
  H   H22       1.0  0.6507342269722116  0.5469968048487246  0.7725976122056795  1.0000
  H   H23       1.0  0.02841336473284168  0.04704833561348209  0.27212300784448473  1.0000
  H   H24       1.0  0.3492642401601529  0.4530027699436515  0.2274028279919591  1.0000
  H   H25       1.0  0.18280106878437857  0.6167833301197518  0.3136138773510596  1.0000
  H   H26       1.0  0.1149788910370616  0.8833977678117149  0.18737667888756002  1.0000
  H   H27       1.0  0.8172006157780916  0.3832154729709599  0.6863865643508404  1.0000
  H   H28       1.0  0.8850201230954158  0.1166025786823326  0.8126213364614757  1.0000
  H   H29       1.0  0.26158480275010026  0.6143524698644853  0.4147230947526381  1.0000
  H   H30       1.0  0.29142198976114747  0.8861920995527655  0.08742202863469836  1.0000
  H   H31       1.0  0.738417633775029  0.3856455615245551  0.5852784728350856  1.0000
  H   H32       1.0  0.7085767894319375  0.11380901864295367  0.9125756848911097  1.0000
  C   C1        1.0  0.9079995840399137  0.6188669246242569  0.005843545321134554  1.0000
  C   C2        1.0  0.5320140687782456  0.8811374536251575  0.4935922172271533  1.0000
  C   C3        1.0  0.09199828075553265  0.3811341935714622  0.9941577647740518  1.0000
  C   C4        1.0  0.4679862143401648  0.1188621211672256  0.5064077480703091  1.0000
  C   C5        1.0  0.02931019863572009  0.6106884303432237  0.0682928107186882  1.0000
  C   C6        1.0  0.706535632823403  0.889204822865949  0.43195634297212143  1.0000
  C   C7        1.0  0.9706862647156675  0.38931345955415947  0.9317080229720605  1.0000
  C   C8        1.0  0.29346460315053957  0.11079320852309847  0.5680434019091862  1.0000
  C   C9        1.0  0.985585435206936  0.6008422887569154  0.169018169639152  1.0000
  C   C10       1.0  0.753372853185141  0.8989668489704099  0.3312287986520986  1.0000
  C   C11       1.0  0.01441173296265652  0.3991572860354609  0.8309835695212657  1.0000
  C   C12       1.0  0.24662841683533537  0.1010311824186374  0.6687725943544082  1.0000
  C   C13       1.0  0.04847580203611536  0.6395547029490274  0.5812988376658837  1.0000
  C   C14       1.0  0.27001912967857333  0.860474369753774  0.9194114625661955  1.0000
  C   C15       1.0  0.9515280577175744  0.3604471869483561  0.41869862288017157  1.0000
  C   C16       1.0  0.7299799315983719  0.13952752014360928  0.08058677319899493  1.0000
  C   C17       1.0  0.9351248449337037  0.6324465588819805  0.5231480416361408  1.0000
  C   C18       1.0  0.09249163785791129  0.8674605849572286  0.9767972189465511  1.0000
  C   C19       1.0  0.06488573995639518  0.3675507008053955  0.4768512786927134  1.0000
  C   C20       1.0  0.9075063593956543  0.13254053323849038  0.02320261760464604  1.0000
  C   C21       1.0  0.9907341384838944  0.6273502410642848  0.42818219151484277  1.0000
  C   C22       1.0  0.04836104530065915  0.8726348446434216  0.07180963746668574  1.0000
  C   C23       1.0  0.00926931492015375  0.3726470186230912  0.5718175548707194  1.0000
  C   C24       1.0  0.951638532999553  0.1273670452539619  0.9281894223611076  1.0000
  N   N1        1.0  0.9445714127591879  0.6564472524689151  0.9068796701889286  1.0000
  N   N2        1.0  0.5084352621237258  0.843696803782464  0.59261203399889  1.0000
  N   N3        1.0  0.055428268022303925  0.343553865726804  0.09312116500608175  1.0000
  N   N4        1.0  0.49156502099468485  0.15630277100991208  0.4073879312985725  1.0000
  N   N5        1.0  0.7967939268281087  0.652630416017324  0.8783574857721349  1.0000
  N   N6        1.0  0.3290932298812663  0.8479118382949196  0.620425931321563  1.0000
  N   N7        1.0  0.20320663837416927  0.3473699304767237  0.1216430017647099  1.0000
  N   N8        1.0  0.6709082197417972  0.1520877364974567  0.37957420855710927  1.0000
  N   N9        1.0  0.6755672053003037  0.6147066809302544  0.9562151390129828  1.0000
  N   N10       1.0  0.24703056189864706  0.8859358945988731  0.5420688985257629  1.0000
  N   N11       1.0  0.32443195845791445  0.3852944372654648  0.04378487211941723  1.0000
  N   N12       1.0  0.752969486280364  0.1140644518951746  0.457930764948479  1.0000
  N   N13       1.0  0.7416940045422605  0.5924986503188591  0.03807804009493761  1.0000
  N   N14       1.0  0.37152834196099577  0.9077773669178056  0.46060639219333416  1.0000
  N   N15       1.0  0.25830217672526606  0.4075024678768527  0.9619222713564356  1.0000
  N   N16       1.0  0.6284719411574144  0.0922222078745705  0.5393935731041282  1.0000
  N   N17       1.0  0.20182527298351974  0.6168118830814748  0.03686809354992702  1.0000
  N   N18       1.0  0.8533658136811298  0.8832526878980714  0.4645300421904255  1.0000
  N   N19       1.0  0.7981711903678741  0.3831900068159086  0.9631327401408216  1.0000
  N   N20       1.0  0.1466351742554791  0.11674457178930447  0.5354708285767061  1.0000
  N   N21       1.0  0.13621738834346092  0.6004132226293208  0.19692490306045582  1.0000
  N   N22       1.0  0.9306410751544338  0.8995541139400132  0.30458116756816633  1.0000
  N   N23       1.0  0.8637797798261246  0.3995863521630553  0.8030768360999616  1.0000
  N   N24       1.0  0.06936032732416891  0.1004439174490344  0.6954187518943515  1.0000
  N   N25       1.0  0.8229699033257986  0.5934601905976108  0.22547299763468234  1.0000
  N   N26       1.0  0.6405084289814199  0.9059816171355876  0.2735912869565241  1.0000
  N   N27       1.0  0.17702791432517992  0.4065393841947724  0.7745280920443491  1.0000
  N   N28       1.0  0.35949185413699075  0.09401795765679569  0.7264086783409381  1.0000
  N   N29       1.0  0.1391757268238008  0.6664037473937938  0.6866598780501719  1.0000
  N   N30       1.0  0.4907930182594312  0.834152397548479  0.8143986970741963  1.0000
  N   N31       1.0  0.8608255431966756  0.3335942839952466  0.31334151495633483  1.0000
  N   N32       1.0  0.5092076794009658  0.16584794894556856  0.1856003169186593  1.0000
  N   N33       1.0  0.2840478274137861  0.6368514320048462  0.6321345517652261  1.0000
  N   N34       1.0  0.552197891609154  0.8637896001209525  0.8694451363874549  1.0000
  N   N35       1.0  0.715954194569349  0.36314582768252984  0.3678679671271113  1.0000
  N   N36       1.0  0.44780397255590265  0.1362107463731022  0.13055405218661062  1.0000
  N   N37       1.0  0.23127683104288355  0.619568401440773  0.5648621118531099  1.0000
  N   N38       1.0  0.4162547694333938  0.8807423423709722  0.9365106551125849  1.0000
  N   N39       1.0  0.7687282976967394  0.38043271675493867  0.4351372986413652  1.0000
  N   N40       1.0  0.5837456932876108  0.119258775824747  0.0634880570570431  1.0000
  N   N41       1.0  0.8556301152977853  0.8929290551173421  0.663032102866204  1.0000
  N   N42       1.0  0.4126086411221479  0.6067897935147926  0.8371896822927812  1.0000
  N   N43       1.0  0.14436993288122574  0.1070712913767053  0.33696756060803784  1.0000
  N   N44       1.0  0.5873925735615159  0.3932105529792622  0.1628101557626707  1.0000
  N   N45       1.0  0.9289928588332048  0.885731393656762  0.7446158498265876  1.0000
  N   N46       1.0  0.5580282414371568  0.6141996729341557  0.7556779862414729  1.0000
  N   N47       1.0  0.07100718934580637  0.11426895283728557  0.25538381364765433  1.0000
  N   N48       1.0  0.4419713921998679  0.38579990185822055  0.24432262853738257  1.0000
  N   N49       1.0  0.9884394494288458  0.6691286259846904  0.6564680183371935  1.0000
  N   N50       1.0  0.3135452606191506  0.8310748512951562  0.844052144674862  1.0000
  N   N51       1.0  0.011562359399398647  0.3308740356143574  0.34352961528581016  1.0000
  N   N52       1.0  0.686455202101854  0.1689262669005629  0.15594656749476601  1.0000
  N   N53       1.0  0.7594621476489037  0.6333625687622941  0.5486854421097718  1.0000
  N   N54       1.0  0.9436692433326787  0.866508305098499  0.9500627484118669  1.0000
  N   N55       1.0  0.2405464887970296  0.36663469092508183  0.45131582666324743  1.0000
  N   N56       1.0  0.056330334967533716  0.1334935847988845  0.04993631141593371  1.0000
  N   N57       1.0  0.8446170776437403  0.6252951995215026  0.3982775101984758  1.0000
  N   N58       1.0  0.8711126531050231  0.8746968315012181  0.10047126491058835  1.0000
  N   N59       1.0  0.15538344041407015  0.37470360356920906  0.6017227569222144  1.0000
  N   N60       1.0  0.1288887411812281  0.1253050583961652  0.8995273200170292  1.0000
  N   N61       1.0  0.15923159468659523  0.6275856100731261  0.37724611052655643  1.0000
  N   N62       1.0  0.16577545136016153  0.8723770962862005  0.1240381437111182  1.0000
  N   N63       1.0  0.8407707393572607  0.3724131930175858  0.6227536816939578  1.0000
  N   N64       1.0  0.8342254259028293  0.127624793611183  0.875959617153896  1.0000
  O   O1        1.0  0.2711886914726804  0.6116777518820342  0.11327913792928265  1.0000
  O   O2        1.0  0.9931244283185878  0.8884408382142936  0.38899891892306476  1.0000
  O   O3        1.0  0.7288075922761195  0.3883225946120135  0.8867229488893004  1.0000
  O   O4        1.0  0.006874508692575886  0.11155719317474677  0.6110021249210149  1.0000
  O   O5        1.0  0.6999645393649131  0.6295588512390609  0.4733553820766404  1.0000
  O   O6        1.0  0.8058678022763459  0.8703066207100534  0.024594980930857033  1.0000
  O   O7        1.0  0.30003589337924547  0.37044149525498676  0.5266465790041936  1.0000
  O   O8        1.0  0.19413201096326563  0.1296944974856657  0.975404380720157  1.0000
