data_image0
_chemical_formula_structural       Cd2H32C40N12O10
_chemical_formula_sum              "Cd2 H32 C40 N12 O10"
_cell_length_a       7.2464332919198755
_cell_length_b       10.329748094779566
_cell_length_c       13.752472449592055
_cell_angle_alpha    104.8196632565855
_cell_angle_beta     91.91781755329136
_cell_angle_gamma    96.17263404068746

_space_group_name_H-M_alt    "P 1"
_space_group_IT_number       1

loop_
  _space_group_symop_operation_xyz
  'x, y, z'

loop_
  _atom_site_type_symbol
  _atom_site_label
  _atom_site_symmetry_multiplicity
  _atom_site_fract_x
  _atom_site_fract_y
  _atom_site_fract_z
  _atom_site_occupancy
  Cd  Cd1       1.0  0.20442066929712877  0.781517828667525  0.8841978215670281  1.0000
  Cd  Cd2       1.0  0.7955817386774983  0.21849056834895458  0.1158012136699043  1.0000
  H   H1        1.0  0.8600182428238695  0.8377488434754383  0.0030076020884167052  1.0000
  H   H2        1.0  0.13998944721765133  0.1622576978189656  0.9969940990023713  1.0000
  H   H3        1.0  0.8454653311658406  0.689226402181461  0.9292463364934136  1.0000
  H   H4        1.0  0.1545300103624285  0.3107808178951359  0.07075451391382609  1.0000
  H   H5        1.0  0.07638924818213161  0.1696739058395451  0.3306918448971672  1.0000
  H   H6        1.0  0.9236128410006188  0.8303204502586397  0.669311076690903  1.0000
  H   H7        1.0  0.24841558619186097  0.1682453846127672  0.4195267136517912  1.0000
  H   H8        1.0  0.7515843271181096  0.8317418593465291  0.58047118469905  1.0000
  H   H9        1.0  0.34649353174397396  0.0562143886925597  0.0486854686240008  1.0000
  H   H10       1.0  0.6535272983768935  0.9437864737112491  0.951316882193822  1.0000
  H   H11       1.0  0.2887228304775178  0.6619477037438485  0.06985953350820748  1.0000
  H   H12       1.0  0.7112718057832269  0.3380534680955662  0.9301401603390643  1.0000
  H   H13       1.0  0.34744860255577953  0.737968935582046  0.2585701574240034  1.0000
  H   H14       1.0  0.6525180423512252  0.26202952091749404  0.7414328160137771  1.0000
  H   H15       1.0  0.40115927573788923  0.9832601053392837  0.3436852089700153  1.0000
  H   H16       1.0  0.5988216327205862  0.016741705193076897  0.656312871350245  1.0000
  H   H17       1.0  0.16320355750813317  0.42396431745687113  0.4839998035280643  1.0000
  H   H18       1.0  0.8367711219696689  0.5760312884245735  0.5159947966268276  1.0000
  H   H19       1.0  0.14246483819818684  0.6399248009091778  0.616707099418292  1.0000
  H   H20       1.0  0.8575264779899356  0.3600712347811594  0.38328719386826987  1.0000
  H   H21       1.0  0.32321073978791764  0.851289541945498  0.6000486595729697  1.0000
  H   H22       1.0  0.6767911733194298  0.14870276258452012  0.39994732657905263  1.0000
  H   H23       1.0  0.5648770105874519  0.645241586690517  0.345598803482126  1.0000
  H   H24       1.0  0.43511769384001303  0.35473647253174084  0.6543965270352742  1.0000
  H   H25       1.0  0.18672843989634916  0.2904512060503563  0.8925005402367958  1.0000
  H   H26       1.0  0.8133023524647528  0.7095519096816573  0.10749953055228187  1.0000
  H   H27       1.0  0.005286092255666098  0.398690466503922  0.6281736604353513  1.0000
  H   H28       1.0  0.9947253749226592  0.6013252509841464  0.3718356677930288  1.0000
  H   H29       1.0  0.9878182904650574  0.1589858890480969  0.5277833436174006  1.0000
  H   H30       1.0  0.012169630443679594  0.841029206071312  0.47222393279890434  1.0000
  H   H31       1.0  0.06913625917950837  0.9839280337080963  0.6124746541710095  1.0000
  H   H32       1.0  0.9308481847695093  0.016080940882105193  0.3875313955352978  1.0000
  C   C1        1.0  0.347839446589255  0.988715941445008  0.09756366259314574  1.0000
  C   C2        1.0  0.6521728530370795  0.011282676173969693  0.902435908949272  1.0000
  C   C3        1.0  0.31635673606348297  0.768357664652413  0.11025875970199188  1.0000
  C   C4        1.0  0.6836324940286999  0.23164435881278675  0.8897388032998776  1.0000
  C   C5        1.0  0.34771779819655535  0.8117913192814896  0.21462041167372087  1.0000
  C   C6        1.0  0.6522597311755265  0.1882053905909089  0.785378818001895  1.0000
  C   C7        1.0  0.3761371251580101  0.9493838561431577  0.2619663612130693  1.0000
  C   C8        1.0  0.6238498766047017  0.0506110867290275  0.7380320006991778  1.0000
  C   C9        1.0  0.37652654488456255  0.041014478884107995  0.20217562055850638  1.0000
  C   C10       1.0  0.6234769694868092  0.9589798897006858  0.7978229694938647  1.0000
  C   C11       1.0  0.40840753497429466  0.1877898511763192  0.240233484921113  1.0000
  C   C12       1.0  0.5915944825634726  0.8122034692796943  0.759764149527804  1.0000
  C   C13       1.0  0.39181980416412904  0.3983790739694655  0.3245138572398787  1.0000
  C   C14       1.0  0.6081749052810181  0.6016110574108423  0.675485934627801  1.0000
  C   C15       1.0  0.35974142666047737  0.5189864184897954  0.4018732187109748  1.0000
  C   C16       1.0  0.6402560807052211  0.48100376940959694  0.5981237322329206  1.0000
  C   C17       1.0  0.24140421563264877  0.5182312010241148  0.4804459238006159  1.0000
  C   C18       1.0  0.7585837345832547  0.48175972611979034  0.5195480633044056  1.0000
  C   C19       1.0  0.2290457692665981  0.6381692840184171  0.5531529217528757  1.0000
  C   C20       1.0  0.7709487378748038  0.3618188115666571  0.44684284575256317  1.0000
  C   C21       1.0  0.3331734710513601  0.7558587887847994  0.5445705634199952  1.0000
  C   C22       1.0  0.6668288416458027  0.24412551517762884  0.4554290101062293  1.0000
  C   C23       1.0  0.46431016936990244  0.6426289453321486  0.40261475489616316  1.0000
  C   C24       1.0  0.53569024034676  0.35736231501232396  0.5973810034208497  1.0000
  C   C25       1.0  0.1403618148232226  0.25920918745195815  0.813002274749003  1.0000
  C   C26       1.0  0.8596557653305938  0.7407996505462292  0.18700515176600868  1.0000
  C   C27       1.0  0.09745716973402811  0.3578343265493658  0.7656633297760536  1.0000
  C   C28       1.0  0.9025564814135691  0.6421764230330782  0.23434510480237233  1.0000
  C   C29       1.0  0.0402483697102411  0.3205125038807211  0.6630684485000131  1.0000
  C   C30       1.0  0.9597661971051112  0.6794942496896185  0.3369392501134385  1.0000
  C   C31       1.0  0.030588877620310505  0.18648454966743339  0.607730761418729  1.0000
  C   C32       1.0  0.9694325730089162  0.8135213332178495  0.3922689143568121  1.0000
  C   C33       1.0  0.07348204835641071  0.08864465924288112  0.6551574093008057  1.0000
  C   C34       1.0  0.9265319100083005  0.9113680630430424  0.3448434053446476  1.0000
  C   C35       1.0  0.1249376387936252  0.12354155913182296  0.7586677539774698  1.0000
  C   C36       1.0  0.8750912894465303  0.8764695683405748  0.24133742758380808  1.0000
  C   C37       1.0  0.15812293869430502  0.014886054194334999  0.8088030681217901  1.0000
  C   C38       1.0  0.8418767642154279  0.9851112340142477  0.19119672275398605  1.0000
  C   C39       1.0  0.11639280117176298  0.5040252816118168  0.8224319265171118  1.0000
  C   C40       1.0  0.8836172281867293  0.4959893522583628  0.17756989619174124  1.0000
  N   N1        1.0  0.3160030287342508  0.8563714942160628  0.05287995363212865  1.0000
  N   N2        1.0  0.6840015763238156  0.14363192700832172  0.9471167324179461  1.0000
  N   N3        1.0  0.5203416597041013  0.26924241990000297  0.20113083989647856  1.0000
  N   N4        1.0  0.47965273491039545  0.7307567398035957  0.7988691961992487  1.0000
  N   N5        1.0  0.5104841553239511  0.39999654293710313  0.2531255409743807  1.0000
  N   N6        1.0  0.4895114944778884  0.6000016527594456  0.7468757929732703  1.0000
  N   N7        1.0  0.3236538994049242  0.2660345206362535  0.3181234023113007  1.0000
  N   N8        1.0  0.6763467257296512  0.7339587676169828  0.6818749248310567  1.0000
  N   N9        1.0  0.18969907853622908  0.22293252156026003  0.3770349120128103  1.0000
  N   N10       1.0  0.8103042986193004  0.7770608508147063  0.6229656685849178  1.0000
  N   N11       1.0  0.45147151211205744  0.7588492672946856  0.4714307485553774  1.0000
  N   N12       1.0  0.5485381217918929  0.24113821785698517  0.5285652120151737  1.0000
  O   O1        1.0  0.13730509839164273  0.892542146774097  0.755077244077924  1.0000
  O   O2        1.0  0.8626855700033291  0.1074598812912413  0.24491453185134296  1.0000
  O   O3        1.0  0.2048922914747067  0.0442975058208859  0.9027135096674641  1.0000
  O   O4        1.0  0.7950873956383119  0.9556942519188212  0.09728773743199778  1.0000
  O   O5        1.0  0.19146629960448544  0.5407769047650676  0.9110695341744517  1.0000
  O   O6        1.0  0.8085287139789586  0.45923935152129064  0.088933015997732  1.0000
  O   O7        1.0  0.05679617370868327  0.5856537534432461  0.7753903751289002  1.0000
  O   O8        1.0  0.9432024621468218  0.4143575395376189  0.22460549432072693  1.0000
  O   O9        1.0  0.8932054814962955  0.7829731294401016  0.935979577731544  1.0000
  O   O10       1.0  0.10680084892747031  0.2170333599353569  0.06401917721043297  1.0000
