data_image0
_chemical_formula_structural       Cu12Si3H24C84N24
_chemical_formula_sum              "Cu12 Si3 H24 C84 N24"
_cell_length_a       27.537751708755916
_cell_length_b       27.692132618133048
_cell_length_c       28.844091522511317
_cell_angle_alpha    89.92474855234175
_cell_angle_beta     89.99639152881934
_cell_angle_gamma    89.92163423242545

_space_group_name_H-M_alt    "P 1"
_space_group_IT_number       1

loop_
  _space_group_symop_operation_xyz
  'x, y, z'

loop_
  _atom_site_type_symbol
  _atom_site_label
  _atom_site_symmetry_multiplicity
  _atom_site_fract_x
  _atom_site_fract_y
  _atom_site_fract_z
  _atom_site_occupancy
  Cu  Cu1       1.0  0.7634400350517012  0.763039395199641  0.8389414650416211  1.0000
  Cu  Cu2       1.0  0.8479423631206657  0.7654489888293269  0.7638200185858962  1.0000
  Cu  Cu3       1.0  0.7660582522381245  0.846985895533443  0.7639897890239453  1.0000
  Cu  Cu4       1.0  0.7630586515186194  0.23707848497193132  0.1609295670319781  1.0000
  Cu  Cu5       1.0  0.8473081019050211  0.2345582430583163  0.2362054197980754  1.0000
  Cu  Cu6       1.0  0.7655416665508452  0.15319941720735383  0.23629505341310872  1.0000
  Cu  Cu7       1.0  0.23637273703214123  0.7632111957640004  0.1608733136446432  1.0000
  Cu  Cu8       1.0  0.15187522515507368  0.7656416133572816  0.2359750116861576  1.0000
  Cu  Cu9       1.0  0.23415604677168028  0.8466383891736199  0.2361885530970298  1.0000
  Cu  Cu10      1.0  0.2365472029817468  0.23691689527830556  0.8383710613096511  1.0000
  Cu  Cu11      1.0  0.1519456429604134  0.23466935547114787  0.7634896300578831  1.0000
  Cu  Cu12      1.0  0.2342207781237207  0.15317192460040718  0.7635624839121179  1.0000
  Si  Si1       1.0  0.00027884532383379995  2.2127505659000004e-06  0.5000525003449567  1.0000
  Si  Si2       1.0  0.00026249077069450007  0.49989050989751144  0.00021017120320720008  1.0000
  Si  Si3       1.0  0.5000789379551376  5.273716759299971e-06  0.0002360523640661  1.0000
  H   H1        1.0  0.798094799205593  0.6752488877587408  0.9014957845607441  1.0000
  H   H2        1.0  0.915847532257544  0.681090494034663  0.8017599517260408  1.0000
  H   H3        1.0  0.6814929679624623  0.914858911746556  0.8019355534539798  1.0000
  H   H4        1.0  0.6752360362927021  0.7976197641737741  0.9016411389992456  1.0000
  H   H5        1.0  0.9128524229881376  0.8008025002662433  0.6792871466757617  1.0000
  H   H6        1.0  0.8014626526529867  0.9117277678669848  0.6795614457891759  1.0000
  H   H7        1.0  0.7979517882596239  0.3248088120239955  0.0982364199421113  1.0000
  H   H8        1.0  0.9153057820388638  0.31870596026362097  0.1983762820376356  1.0000
  H   H9        1.0  0.6810760573881678  0.08557174514120189  0.1984682319732087  1.0000
  H   H10       1.0  0.6749171743427596  0.20244351226583024  0.09835313996252638  1.0000
  H   H11       1.0  0.9123311939043787  0.19928030726378407  0.3207027706288486  1.0000
  H   H12       1.0  0.8011423149253287  0.08846736971066348  0.3208559161579529  1.0000
  H   H13       1.0  0.20172726749387238  0.6756081632776372  0.0983167065984603  1.0000
  H   H14       1.0  0.0840021539401903  0.6814204437646436  0.19807158438985076  1.0000
  H   H15       1.0  0.31900482272013153  0.9141797078573857  0.1985712730511082  1.0000
  H   H16       1.0  0.32466383508630503  0.7977372880632173  0.09826134280714172  1.0000
  H   H17       1.0  0.08700469170258879  0.8010314743705321  0.320535002311793  1.0000
  H   H18       1.0  0.19898606547581466  0.9110472877558775  0.3207875788809602  1.0000
  H   H19       1.0  0.2019805701459063  0.32441297530961305  0.901083026591955  1.0000
  H   H20       1.0  0.08395378325673158  0.3189897946663862  0.8016613548673774  1.0000
  H   H21       1.0  0.3190057230733601  0.08535404941898858  0.8015888716310114  1.0000
  H   H22       1.0  0.32471740965415546  0.2024411548331669  0.9011912274012914  1.0000
  H   H23       1.0  0.08715712696250927  0.199244424347377  0.6790292382115622  1.0000
  H   H24       1.0  0.19884815184161644  0.08862842704237289  0.6793147477378907  1.0000
  C   C1        1.0  0.822475968651808  0.6829982352910872  0.8729098423080471  1.0000
  C   C2        1.0  0.8678387804237317  0.6619139101782707  0.8624601675685284  1.0000
  C   C3        1.0  0.8828665899480723  0.6859842593115955  0.8217833299253954  1.0000
  C   C4        1.0  0.6863199987027995  0.8820276950604932  0.8219782352699383  1.0000
  C   C5        1.0  0.6621398676684079  0.8671587130681002  0.8626915694645092  1.0000
  C   C6        1.0  0.6831122805366475  0.8219023101180054  0.8730843913601589  1.0000
  C   C7        1.0  0.8815785792227898  0.8237028394830901  0.6856934174700058  1.0000
  C   C8        1.0  0.8676982885925921  0.8668100104633253  0.6631378592778177  1.0000
  C   C9        1.0  0.8244625433425766  0.8805717630514421  0.6858514497205163  1.0000
  C   C10       1.0  0.8222174158413009  0.3169771727376797  0.126905624202756  1.0000
  C   C11       1.0  0.8675470113061079  0.33794158748926856  0.1374746644463514  1.0000
  C   C12       1.0  0.8824141537898315  0.313874067971966  0.17823237292964222  1.0000
  C   C13       1.0  0.6859202644314237  0.11831041884871497  0.1783136199714477  1.0000
  C   C14       1.0  0.6617843247426123  0.1330873350359383  0.1375252442125756  1.0000
  C   C15       1.0  0.6827777384454802  0.17824396124979805  0.1269928427937117  1.0000
  C   C16       1.0  0.8810773669203298  0.176409619892155  0.3144075768193773  1.0000
  C   C17       1.0  0.8673289619306884  0.13334880847325079  0.33706626797867045  1.0000
  C   C18       1.0  0.8240616111547465  0.11960014602181694  0.3144684864226832  1.0000
  C   C19       1.0  0.17732158027749279  0.6833823838385126  0.1268703976693644  1.0000
  C   C20       1.0  0.13201821647445658  0.6622950863073597  0.1373658125751547  1.0000
  C   C21       1.0  0.11694384489131687  0.6863504144776512  0.17800226382839673  1.0000
  C   C22       1.0  0.3140258214583511  0.8815574678678855  0.1783573129149403  1.0000
  C   C23       1.0  0.33809108473801786  0.8668681266002592  0.1375354346990463  1.0000
  C   C24       1.0  0.3169123768331019  0.8218419265632803  0.1269402736716714  1.0000
  C   C25       1.0  0.1184178604119808  0.8237095745675871  0.3142445301352268  1.0000
  C   C26       1.0  0.1324933912393149  0.8665552408110954  0.33697949665312177  1.0000
  C   C27       1.0  0.17583295955373046  0.8801150673655935  0.3143710615338264  1.0000
  C   C28       1.0  0.17750877081008545  0.31677916582684407  0.8725614405996326  1.0000
  C   C29       1.0  0.13211259088650704  0.33789362448737137  0.8622650556321361  1.0000
  C   C30       1.0  0.11698745484165578  0.3139921432472475  0.8215880749619586  1.0000
  C   C31       1.0  0.3140504805506694  0.11814130923333006  0.8215870370963144  1.0000
  C   C32       1.0  0.3380909391678627  0.13298657213343995  0.8623542047281773  1.0000
  C   C33       1.0  0.31698599123443927  0.17818246691752646  0.8726454295939019  1.0000
  C   C34       1.0  0.11850129930401469  0.1764211972703578  0.6854292923626418  1.0000
  C   C35       1.0  0.13248823425954007  0.13340038567239526  0.662888141278046  1.0000
  C   C36       1.0  0.17577031010006283  0.11971377711488165  0.6855875571944736  1.0000
  C   C37       1.0  0.8928860064994237  0.6268126543580478  0.8879864242096573  1.0000
  C   C38       1.0  0.9150692233997757  0.5973385277431688  0.9117451994360977  1.0000
  C   C39       1.0  0.9399579366486106  0.5660403859852748  0.9386260898826181  1.0000
  C   C40       1.0  0.9629028508766309  0.5380287697520103  0.9635993077840866  1.0000
  C   C41       1.0  0.8926572042104366  0.37298212070322007  0.1119959170719298  1.0000
  C   C42       1.0  0.9148727122196687  0.402429886221597  0.08829262421583908  1.0000
  C   C43       1.0  0.9398402534135356  0.4337431026890782  0.0615527438741736  1.0000
  C   C44       1.0  0.9628874066885657  0.46179186183700677  0.03676734030192111  1.0000
  C   C45       1.0  0.10710245139146929  0.6271470303122584  0.1119531794354103  1.0000
  C   C46       1.0  0.08506594235789318  0.597576499422544  0.08830448680599548  1.0000
  C   C47       1.0  0.0603427596853976  0.5661336289497427  0.0615725933317535  1.0000
  C   C48       1.0  0.037561147750899686  0.5379696527902025  0.036761866085385  1.0000
  C   C49       1.0  0.1071431838475689  0.3729287995942413  0.8878689491815521  1.0000
  C   C50       1.0  0.0850469948354586  0.4023834967182366  0.9116617081227715  1.0000
  C   C51       1.0  0.060306972555125085  0.4337131988816124  0.9385754982066175  1.0000
  C   C52       1.0  0.03754106941229198  0.4617802356852038  0.9635749998205297  1.0000
  C   C53       1.0  0.6270627144192813  0.8922672157906746  0.8882813134182186  1.0000
  C   C54       1.0  0.5976528229425139  0.9145564575232327  0.9120566443984686  1.0000
  C   C55       1.0  0.5664190889977617  0.9396405944775238  0.9388750654646215  1.0000
  C   C56       1.0  0.5384628477034282  0.9628186314699005  0.963710682592165  1.0000
  C   C57       1.0  0.37315571593664026  0.1078946956309039  0.88804669100886  1.0000
  C   C58       1.0  0.4025575015024286  0.08557879459831948  0.9118745623601114  1.0000
  C   C59       1.0  0.43379620703156957  0.06047669982562098  0.9387423794106766  1.0000
  C   C60       1.0  0.4617521830785589  0.03729044758537009  0.963619555702671  1.0000
  C   C61       1.0  0.6267355957472559  0.10795511935894808  0.112011354795321  1.0000
  C   C62       1.0  0.5973481522620002  0.08557738995293816  0.0883493185681559  1.0000
  C   C63       1.0  0.5661509448620592  0.06043697366024499  0.06162406859307619  1.0000
  C   C64       1.0  0.5382351816795108  0.03724245959764968  0.03683193371359289  1.0000
  C   C65       1.0  0.3732135791704038  0.8919628271756462  0.1120111940229691  1.0000
  C   C66       1.0  0.40265427376267837  0.9142842099228331  0.0883003493596206  1.0000
  C   C67       1.0  0.4339140880280325  0.9394123023310355  0.0615564328042026  1.0000
  C   C68       1.0  0.46187401386509197  0.962637093138795  0.03677580569908661  1.0000
  C   C69       1.0  0.8921123017182209  0.8912766002997896  0.6276337062140912  1.0000
  C   C70       1.0  0.9142506899075753  0.9135767268819419  0.5975264958189612  1.0000
  C   C71       1.0  0.93939734943563  0.9389515904522197  0.5656356430046899  1.0000
  C   C72       1.0  0.9627580912557646  0.9625731851441583  0.5371303274557775  1.0000
  C   C73       1.0  0.1081568866943314  0.890989680107374  0.3725381871348858  1.0000
  C   C74       1.0  0.0861193692999791  0.9133128238619078  0.4026790096365288  1.0000
  C   C75       1.0  0.06106542225327159  0.9387380846862498  0.4345852815990625  1.0000
  C   C76       1.0  0.037776686385093704  0.962421744046402  0.46308882557347886  1.0000
  C   C77       1.0  0.10815307796284657  0.10891862277374285  0.6274048123322727  1.0000
  C   C78       1.0  0.0861533135655819  0.0865399527223474  0.5973226830083291  1.0000
  C   C79       1.0  0.06112293898191719  0.06110358245214799  0.5654594903498378  1.0000
  C   C80       1.0  0.0378406584076174  0.03744374487241229  0.5369854252760291  1.0000
  C   C81       1.0  0.8918655367275361  0.108903242773124  0.3725606194569551  1.0000
  C   C82       1.0  0.9140583165848496  0.08658756480838285  0.4026598527955514  1.0000
  C   C83       1.0  0.9392680166629928  0.06119172726423729  0.43454649934236034  1.0000
  C   C84       1.0  0.9626939962847558  0.03754526765151669  0.46303134964973935  1.0000
  N   N1        1.0  0.8491832205825247  0.7187369819873196  0.8094476069859695  1.0000
  N   N2        1.0  0.8117876233427948  0.7168976754515767  0.8411183888295993  1.0000
  N   N3        1.0  0.7170678769645206  0.8111435015555059  0.8412472127282413  1.0000
  N   N4        1.0  0.7190536566007636  0.8483775927251  0.8095860942846754  1.0000
  N   N5        1.0  0.8138785437828275  0.848308984795409  0.7191842118350849  1.0000
  N   N6        1.0  0.8492528725271595  0.8130875118151193  0.7190827743673438  1.0000
  N   N7        1.0  0.8486826454960477  0.281220506919034  0.19049328785846603  1.0000
  N   N8        1.0  0.8114010127425926  0.28313419469123596  0.1586926704506197  1.0000
  N   N9        1.0  0.716714723293215  0.18902645506858554  0.1588103496897162  1.0000
  N   N10       1.0  0.7186502829638498  0.15190720173921318  0.19060752075593257  1.0000
  N   N11       1.0  0.8133443763832845  0.15181939001394792  0.281108923410585  1.0000
  N   N12       1.0  0.848659612602688  0.18700724802775429  0.2810718324305767  1.0000
  N   N13       1.0  0.1505434401319903  0.7191037846250907  0.1902672011633513  1.0000
  N   N14       1.0  0.18793640011261198  0.7172709182167266  0.1585860691101288  1.0000
  N   N15       1.0  0.2829387463620917  0.8110534025688807  0.1587527926094978  1.0000
  N   N16       1.0  0.2811642890685633  0.8480366639171707  0.1906073264217625  1.0000
  N   N17       1.0  0.18629019917140965  0.8479896929868572  0.2809355292711828  1.0000
  N   N18       1.0  0.1507280109769624  0.8130512987035203  0.28085231036797603  1.0000
  N   N19       1.0  0.15064201387122717  0.281289032115545  0.8091148330978015  1.0000
  N   N20       1.0  0.18812535220646248  0.28301176008588397  0.8406942602795482  1.0000
  N   N21       1.0  0.2830877855247635  0.18892236845090338  0.8407215685044135  1.0000
  N   N22       1.0  0.2812765554936334  0.15173881107659062  0.8090902738013668  1.0000
  N   N23       1.0  0.18628305388970287  0.1519327930628691  0.7188951970952289  1.0000
  N   N24       1.0  0.15081119596566583  0.18706176791268797  0.7188033138116836  1.0000
