data_image0
_chemical_formula_structural       Cu2H12C12N16O8
_chemical_formula_sum              "Cu2 H12 C12 N16 O8"
_cell_length_a       4.9551600678585945
_cell_length_b       7.906751333608819
_cell_length_c       13.055883168119673
_cell_angle_alpha    89.99958007140069
_cell_angle_beta     89.99988710709734
_cell_angle_gamma    107.69995373151262

_space_group_name_H-M_alt    "P 1"
_space_group_IT_number       1

loop_
  _space_group_symop_operation_xyz
  'x, y, z'

loop_
  _atom_site_type_symbol
  _atom_site_label
  _atom_site_symmetry_multiplicity
  _atom_site_fract_x
  _atom_site_fract_y
  _atom_site_fract_z
  _atom_site_occupancy
  Cu  Cu1       1.0  0.4999996589615847  0.5000002633916053  2.374786873999998e-07  1.0000
  Cu  Cu2       1.0  5.054720019681064e-07  0.9999990855675166  0.4999999541221456  1.0000
  H   H1        1.0  0.2867613848361117  0.034316617578156204  0.9464727489844549  1.0000
  H   H2        1.0  0.21322888046643848  0.4656802316433542  0.4464719386037572  1.0000
  H   H3        1.0  0.7132403136396592  0.9656859917653549  0.05352748331818449  1.0000
  H   H4        1.0  0.7867682333020911  0.5343170656493826  0.5535267618359184  1.0000
  H   H5        1.0  0.43015162741345864  0.8860518792946692  0.8781345609356916  1.0000
  H   H6        1.0  0.06983443472169891  0.6139433329806324  0.37813235526237315  1.0000
  H   H7        1.0  0.5698494296059594  0.1139494024512544  0.1218672032465946  1.0000
  H   H8        1.0  0.9301653394179826  0.38605529360879853  0.6218671111115981  1.0000
  H   H9        1.0  0.2523577128048872  0.8165125216320632  0.683799401904231  1.0000
  H   H10       1.0  0.24763734229475176  0.6834908082722108  0.1837982887054821  1.0000
  H   H11       1.0  0.7476420613253796  0.18348610494631856  0.3162015963461968  1.0000
  H   H12       1.0  0.7523637147340809  0.3165104734847688  0.8162019436003405  1.0000
  C   C1        1.0  0.052361539006014333  0.7565759050155235  0.9643083991675424  1.0000
  C   C2        1.0  0.4476185951289012  0.7434246949902814  0.46430993676345617  1.0000
  C   C3        1.0  0.94763749908919  0.24342537502025144  0.035692599077258094  1.0000
  C   C4        1.0  0.5523825564880626  0.25657260572277346  0.5356902955511841  1.0000
  C   C5        1.0  0.2338209698697257  0.9129260058311887  0.8996765857741522  1.0000
  C   C6        1.0  0.26616271387799634  0.5870728749485464  0.3996766534758649  1.0000
  C   C7        1.0  0.7661760493012582  0.08707527249443099  0.10032364653316958  1.0000
  C   C8        1.0  0.7338357773678228  0.4129230964678142  0.60032281290448  1.0000
  C   C9        1.0  0.11691626658941348  0.8919151761264176  0.7107809898681337  1.0000
  C   C10       1.0  0.3830817585964327  0.6080904213757136  0.21078011255019646  1.0000
  C   C11       1.0  0.8830847904394192  0.10808610563056219  0.2892192424376958  1.0000
  C   C12       1.0  0.6169186569901728  0.3919095328002555  0.7892193538205845  1.0000
  N   N1        1.0  0.0954271290203367  0.9461841592902546  0.8069773568261169  1.0000
  N   N2        1.0  0.40457035488446996  0.5538213778742004  0.3069774709099278  1.0000
  N   N3        1.0  0.9045719090795717  0.05381712075104159  0.1930228754804517  1.0000
  N   N4        1.0  0.5954294192599152  0.44617724872075837  0.6930212295258186  1.0000
  N   N5        1.0  0.9099001705988318  0.041692038712923804  0.8078859393591599  1.0000
  N   N6        1.0  0.5900980842477495  0.4583139424986483  0.3078875497939606  1.0000
  N   N7        1.0  0.09010088643471185  0.9583092430495839  0.1921135270084449  1.0000
  N   N8        1.0  0.4099016898966354  0.5416846840963102  0.6921111506417859  1.0000
  N   N9        1.0  0.8231043849221821  0.04594909111014539  0.7142331628634081  1.0000
  N   N10       1.0  0.6768943799265089  0.45405691373345286  0.2142347286111956  1.0000
  N   N11       1.0  0.17689804959335487  0.9540508647815075  0.2857663035066409  1.0000
  N   N12       1.0  0.3231040167358828  0.5459430387323608  0.7857639718221137  1.0000
  N   N13       1.0  0.9484698334980026  0.9539687217766328  0.6523425243259524  1.0000
  N   N14       1.0  0.5515293282148336  0.5460368841119846  0.152342931736591  1.0000
  N   N15       1.0  0.05153058208389891  0.0460312323938155  0.34765770798306045  1.0000
  N   N16       1.0  0.44847035133670965  0.453965723521371  0.8476565346285697  1.0000
  O   O1        1.0  0.7833965710127587  0.7231373727530297  0.9531048271708895  1.0000
  O   O2        1.0  0.716579344998266  0.7768652041492744  0.45310944920524315  1.0000
  O   O3        1.0  0.21659971211845896  0.2768665590244481  0.0468961710690294  1.0000
  O   O4        1.0  0.2834224480656289  0.22313342415031198  0.5468907831062069  1.0000
  O   O5        1.0  0.18113657131657135  0.6834182077424346  0.022430447660646297  1.0000
  O   O6        1.0  0.31882707120438897  0.8165768056641697  0.5224307458933949  1.0000
  O   O7        1.0  0.8188604478591234  0.31658307058870605  0.9775690187084435  1.0000
  O   O8        1.0  0.6811727975140089  0.18341783987028748  0.4775702523658438  1.0000
