data_image0
_chemical_formula_structural       H24Pb2C44N8O8
_chemical_formula_sum              "H24 Pb2 C44 N8 O8"
_cell_length_a       6.734358202806724
_cell_length_b       8.210313971666045
_cell_length_c       17.753718256825856
_cell_angle_alpha    94.72377364776403
_cell_angle_beta     91.54150959868973
_cell_angle_gamma    103.87714528301044

_space_group_name_H-M_alt    "P 1"
_space_group_IT_number       1

loop_
  _space_group_symop_operation_xyz
  'x, y, z'

loop_
  _atom_site_type_symbol
  _atom_site_label
  _atom_site_symmetry_multiplicity
  _atom_site_fract_x
  _atom_site_fract_y
  _atom_site_fract_z
  _atom_site_occupancy
  H   H1        1.0  0.6864949945969768  0.696510445237699  0.3560548623097972  1.0000
  H   H2        1.0  0.313576618432485  0.30343352924545286  0.6439412921598162  1.0000
  H   H3        1.0  0.8154843355645623  0.879723616586432  0.25422689275740135  1.0000
  H   H4        1.0  0.1844713023012687  0.1204096921526414  0.7458250232372804  1.0000
  H   H5        1.0  0.5733887188115573  0.8792484789815803  0.1413610315762881  1.0000
  H   H6        1.0  0.4265859485406693  0.12090033679638877  0.8586949477262917  1.0000
  H   H7        1.0  0.6032926678042472  0.3961180217231544  0.14522369076431824  1.0000
  H   H8        1.0  0.39671904442965195  0.6040138626439528  0.8547987403305723  1.0000
  H   H9        1.0  0.5133564723518588  0.2196597008984114  0.2573779809354732  1.0000
  H   H10       1.0  0.4866454912631467  0.7803517569888997  0.742607195194722  1.0000
  H   H11       1.0  0.7897934311006195  0.2262229183256181  0.3541091530320911  1.0000
  H   H12       1.0  0.21021002569666086  0.7737008413288893  0.6458577357094695  1.0000
  H   H13       1.0  0.5939761381607196  0.6249973396159874  0.9555205180167832  1.0000
  H   H14       1.0  0.40596075794005765  0.3751246850022625  0.04451559841680109  1.0000
  H   H15       1.0  0.320436628066858  0.9597835091655751  0.9476700260983009  1.0000
  H   H16       1.0  0.679523303731969  0.040279892903548394  0.05234826949865829  1.0000
  H   H17       1.0  0.06156808706479208  0.9670054264569501  0.844263449384691  1.0000
  H   H18       1.0  0.9384008379082969  0.032998549058859794  0.1557457791990586  1.0000
  H   H19       1.0  0.7036820497426317  0.8031299091085059  0.8483917128804632  1.0000
  H   H20       1.0  0.2963187168648318  0.19680896249168708  0.1515951947265748  1.0000
  H   H21       1.0  0.04587495459512779  0.9942792769318416  0.5850071159215844  1.0000
  H   H22       1.0  0.9542112198506629  0.005661551088621792  0.4149773870302908  1.0000
  H   H23       1.0  0.48793013298729465  0.04492942030901049  0.5854267704660997  1.0000
  H   H24       1.0  0.5121303307269045  0.9550446558048692  0.41451575646319566  1.0000
  Pb  Pb1       1.0  0.23975006701111568  0.4835165795097538  0.4295431522202974  1.0000
  Pb  Pb2       1.0  0.7602030100790954  0.5164072231280273  0.5704504720992105  1.0000
  C   C1        1.0  0.5879975414308161  0.6984129546213821  0.3065333064595634  1.0000
  C   C2        1.0  0.4120284138026448  0.301604524646919  0.693481733684372  1.0000
  C   C3        1.0  0.6591515380760171  0.8018369689023075  0.24904955721782326  1.0000
  C   C4        1.0  0.3408349972861586  0.19826238006717023  0.7509959381426226  1.0000
  C   C5        1.0  0.5278019287264469  0.8014909158966645  0.18768850774617354  1.0000
  C   C6        1.0  0.4721580951796652  0.19860463396005204  0.8123603830807083  1.0000
  C   C7        1.0  0.32769553633072956  0.6980835473212608  0.18444189216389614  1.0000
  C   C8        1.0  0.6723041169230937  0.30197939321737977  0.8155821618084926  1.0000
  C   C9        1.0  0.26870990901203834  0.5971005854804475  0.2446386838944646  1.0000
  C   C10       1.0  0.7313212394439006  0.4029194249141669  0.7553759404529146  1.0000
  C   C11       1.0  0.06114910688282998  0.4891263205841057  0.2442363005843688  1.0000
  C   C12       1.0  0.9388923401796274  0.5108589242650224  0.7557630696962859  1.0000
  C   C13       1.0  0.9160781436097735  0.49163994838492914  0.18563312671990667  1.0000
  C   C14       1.0  0.08394609621110757  0.5083691027897858  0.8143687308526921  1.0000
  C   C15       1.0  0.7159405746661989  0.3918190911079619  0.18963575327847335  1.0000
  C   C16       1.0  0.28408535303574206  0.6082226907085654  0.8103679957980103  1.0000
  C   C17       1.0  0.667271437655195  0.2945212303614824  0.24966376137748364  1.0000
  C   C18       1.0  0.33275356595481037  0.7054736407718565  0.7503321550627574  1.0000
  C   C19       1.0  0.8217248278179525  0.2975665541067229  0.30473640326981405  1.0000
  C   C20       1.0  0.17826804527162912  0.7023594471035322  0.6952466953723899  1.0000
  C   C21       1.0  0.9748395794785052  0.5957367912723228  0.12336616933024658  1.0000
  C   C22       1.0  0.025186658207857687  0.4042917972517158  0.8766463070086842  1.0000
  C   C23       1.0  0.18195686998477362  0.6958721000729612  0.1219120572554431  1.0000
  C   C24       1.0  0.8180520996410152  0.3041755784841556  0.8781073084312465  1.0000
  C   C25       1.0  0.10386875645318122  0.7880354553076285  0.008778440058627296  1.0000
  C   C26       1.0  0.8961301943426107  0.21198696751105925  0.9912396195283221  1.0000
  C   C27       1.0  0.8953526007783239  0.6913997265666224  0.011059879656059495  1.0000
  C   C28       1.0  0.1046240955344686  0.308617385002286  0.988957107075734  1.0000
  C   C29       1.0  0.7513648689987987  0.6981085969895915  0.9521525697134975  1.0000
  C   C30       1.0  0.24859275975916967  0.3019310827640211  0.047867407539371194  1.0000
  C   C31       1.0  0.16188168036636338  0.8870995814618395  0.9475033568313902  1.0000
  C   C32       1.0  0.8380796451871289  0.11291917955374228  0.05250325233329529  1.0000
  C   C33       1.0  0.018506939817093775  0.8908085553244119  0.8913854572120243  1.0000
  C   C34       1.0  0.9814672275520804  0.10918612097623989  0.10861520016859318  1.0000
  C   C35       1.0  0.8129044613112483  0.796237330232394  0.893698355959792  1.0000
  C   C36       1.0  0.18708833618168796  0.203755123176883  0.10630370526873627  1.0000
  C   C37       1.0  0.5625751972156436  0.808212411789711  0.543327838008004  1.0000
  C   C38       1.0  0.4374526208423433  0.1917484789112791  0.45662847503584897  1.0000
  C   C39       1.0  0.9561480515120805  0.2119837129665854  0.5426171283578113  1.0000
  C   C40       1.0  0.04382724931303987  0.7879082711777273  0.4573474264595134  1.0000
  C   C41       1.0  0.0053330327248986035  0.0450150670585074  0.5334858591383238  1.0000
  C   C42       1.0  0.9947517971117319  0.9549088558683749  0.46648978644885364  1.0000
  C   C43       1.0  0.5081425381979584  0.970495693888857  0.5337289840720202  1.0000
  C   C44       1.0  0.4919312148685789  0.02945940342606689  0.46622744033109587  1.0000
  N   N1        1.0  0.012408807361296698  0.3911374131585745  0.3018200257534502  1.0000
  N   N2        1.0  0.9876134737429113  0.6087946289468817  0.6981738690806552  1.0000
  N   N3        1.0  0.39904485814763996  0.5992316969794445  0.3040803375432262  1.0000
  N   N4        1.0  0.600976674001302  0.4007427882871681  0.6959297146734968  1.0000
  N   N5        1.0  0.24378565920576983  0.7885841737968279  0.06493638173623849  1.0000
  N   N6        1.0  0.7561986296375947  0.2114541333544793  0.9350778320776314  1.0000
  N   N7        1.0  0.83519681059753  0.5953277514801343  0.06864044259123149  1.0000
  N   N8        1.0  0.16481058432827916  0.40469179887202245  0.9313709370286744  1.0000
  O   O1        1.0  0.5668010404334324  0.7066397675755381  0.4844203754920996  1.0000
  O   O2        1.0  0.43316998280423047  0.29329176597751433  0.515555137306734  1.0000
  O   O3        1.0  0.6076334943832862  0.7788220777865789  0.6101648364104404  1.0000
  O   O4        1.0  0.3923914863953541  0.2211501919998184  0.38979337319536705  1.0000
  O   O5        1.0  0.9256067937950261  0.2845862182543327  0.4830758392340044  1.0000
  O   O6        1.0  0.07426142493240914  0.7152398499917253  0.5168752141712147  1.0000
  O   O7        1.0  0.942983933201603  0.2747541995568811  0.6095949891753063  1.0000
  O   O8        1.0  0.05696888515778652  0.7251523632084158  0.3903661171274705  1.0000
