data_image0
_chemical_formula_structural       Al2H18C36O12
_chemical_formula_sum              "Al2 H18 C36 O12"
_cell_length_a       3.9568495502943946
_cell_length_b       20.92665345742069
_cell_length_c       20.925957620068125
_cell_angle_alpha    120.00029868870627
_cell_angle_beta     89.9974485655472
_cell_angle_gamma    90.00003858487915

_space_group_name_H-M_alt    "P 1"
_space_group_IT_number       1

loop_
  _space_group_symop_operation_xyz
  'x, y, z'

loop_
  _atom_site_type_symbol
  _atom_site_label
  _atom_site_symmetry_multiplicity
  _atom_site_fract_x
  _atom_site_fract_y
  _atom_site_fract_z
  _atom_site_occupancy
  Al  Al1       1.0  0.017125298809155295  0.5000004128002971  0.5000142077630372  1.0000
  Al  Al2       1.0  0.017398370976067695  0.16665933569900912  0.8333306191415275  1.0000
  H   H1        1.0  0.4560077000848039  0.18837839774635515  0.6387409319653514  1.0000
  H   H2        1.0  0.540362821224825  0.37773281017921806  0.8564054933896658  1.0000
  H   H3        1.0  0.4941051145333332  0.4615791157757698  0.8044786598655733  1.0000
  H   H4        1.0  0.45604236880343046  0.47846055921271363  0.6947442176187408  1.0000
  H   H5        1.0  0.5417316213993004  0.2890281822616387  0.4770701860064577  1.0000
  H   H6        1.0  0.49513261631228994  0.205227959020327  0.5290797831200749  1.0000
  H   H7        1.0  0.45604510942507653  0.950360914925355  0.8116104052186017  1.0000
  H   H8        1.0  0.5403416588028519  0.9786492787287315  0.6222414626008188  1.0000
  H   H9        1.0  0.49416795347081427  0.8428730769708536  0.5384004686763858  1.0000
  H   H10       1.0  0.45614184918992606  0.7162574156807581  0.5215244590462262  1.0000
  H   H11       1.0  0.5417051728506194  0.68804781337915  0.7109766527974344  1.0000
  H   H12       1.0  0.49515107206504166  0.8238627336349751  0.7947710983327453  1.0000
  H   H13       1.0  0.4559816960344775  0.3612624140409579  0.049640612147129594  1.0000
  H   H14       1.0  0.5403773021057886  0.1436092123076946  0.021339924850018087  1.0000
  H   H15       1.0  0.49417316584292337  0.1955364722108328  0.1571220603359933  1.0000
  H   H16       1.0  0.45612070271014454  0.30527563692045595  0.2837399877843154  1.0000
  H   H17       1.0  0.5417340967660422  0.52293630052813  0.3119648885343551  1.0000
  H   H18       1.0  0.49512955247615753  0.47092383312647706  0.17615022591154872  1.0000
  C   C1        1.0  0.5133211452932824  0.4494039281650046  0.3867573159142238  1.0000
  C   C2        1.0  0.5132992438202562  0.43735500606017313  0.5506111870679007  1.0000
  C   C3        1.0  0.5133109696740091  0.6132480604546586  0.5626530613492875  1.0000
  C   C4        1.0  0.5132485032365252  0.22930688334957966  0.78268498084865  1.0000
  C   C5        1.0  0.513246882652524  0.053362962455793216  0.7706739051746965  1.0000
  C   C6        1.0  0.5132190099183943  0.2173119299666341  0.9466253780873045  1.0000
  C   C7        1.0  0.46926420359474  0.24815034591484414  0.6744932506038097  1.0000
  C   C8        1.0  0.514720555518437  0.3556848490691066  0.7971658581953774  1.0000
  C   C9        1.0  0.49178919822755046  0.4017809500156986  0.7681742277302845  1.0000
  C   C10       1.0  0.47565410255330676  0.3727612405010703  0.6906877523487864  1.0000
  C   C11       1.0  0.4696203500707696  0.4186916951343989  0.6589513154492151  1.0000
  C   C12       1.0  0.515860682746215  0.31109173058495543  0.5363089998425963  1.0000
  C   C13       1.0  0.4926063027202615  0.26502764635858267  0.5653311223942126  1.0000
  C   C14       1.0  0.4756671069738231  0.2941185122877173  0.642808838035485  1.0000
  C   C15       1.0  0.49611007733997775  0.2781139674541749  0.7499957828931372  1.0000
  C   C16       1.0  0.49697921843587517  0.3886567408188312  0.5834269580845302  1.0000
  C   C17       1.0  0.4692949535932128  0.926335647364617  0.7518351612021519  1.0000
  C   C18       1.0  0.5147125003081499  0.9414604620749785  0.6442897313874738  1.0000
  C   C19       1.0  0.4918434636055834  0.8663688830117806  0.5981985595432844  1.0000
  C   C20       1.0  0.47574375819521453  0.8179104321639558  0.6272238092198633  1.0000
  C   C21       1.0  0.4697062672176243  0.7402403594006302  0.5812959287127697  1.0000
  C   C22       1.0  0.5158792562080236  0.7252197911177517  0.6889083788195193  1.0000
  C   C23       1.0  0.4926206900005496  0.8003043943016905  0.7349667699634352  1.0000
  C   C24       1.0  0.4757320379216806  0.8486828177546004  0.7058698609954135  1.0000
  C   C25       1.0  0.49610277589911067  0.9718669772072559  0.7218653095475033  1.0000
  C   C26       1.0  0.4970147216955212  0.6947631096606983  0.6113412294475822  1.0000
  C   C27       1.0  0.46924183340745873  0.3255158794612568  0.0736668823729616  1.0000
  C   C28       1.0  0.5147238905805337  0.2028480406076909  0.05853466204893457  1.0000
  C   C29       1.0  0.4918383261209768  0.23184188600336603  0.13362540559715796  1.0000
  C   C30       1.0  0.4757063649935559  0.3093271660249712  0.18208947292176697  1.0000
  C   C31       1.0  0.46970009475285207  0.341064755176177  0.25975788199867367  1.0000
  C   C32       1.0  0.5158692466316309  0.4637003832878293  0.2747925204967672  1.0000
  C   C33       1.0  0.4926196219531036  0.4346787175600113  0.19970609025733663  1.0000
  C   C34       1.0  0.47569244477794104  0.3572032825621321  0.15132038435051237  1.0000
  C   C35       1.0  0.49608905102584794  0.2500107981050305  0.02812550025529957  1.0000
  C   C36       1.0  0.49701971454742727  0.4165877428592921  0.3052436290358358  1.0000
  O   O1        1.0  0.7542587970728363  0.5796256841981277  0.5740262684680104  1.0000
  O   O2        1.0  0.7542918476490709  0.4943910060281668  0.42037930701388854  1.0000
  O   O3        1.0  0.7542790611986092  0.425981957486897  0.5056182974772767  1.0000
  O   O4        1.0  0.2853297668942218  0.582254651916621  0.5133255317064636  1.0000
  O   O5        1.0  0.2853355604488285  0.48668796053978974  0.5689502195674194  1.0000
  O   O6        1.0  0.28536840803765523  0.43106050191754264  0.41775158363028453  1.0000
  O   O7        1.0  0.7546649246138272  0.17245885142378367  0.9130631933707178  1.0000
  O   O8        1.0  0.7546954354190021  0.24059094570547068  0.8275334474813931  1.0000
  O   O9        1.0  0.7546903954597254  0.08692965770736576  0.7593915396092827  1.0000
  O   O10       1.0  0.2857993759645722  0.23568977834840152  0.9155498341417568  1.0000
  O   O11       1.0  0.2858354707274628  0.08444388827417994  0.8201365874937353  1.0000
  O   O12       1.0  0.28585497408603533  0.17984944631605534  0.7643022043361043  1.0000
