data_image0
_chemical_formula_structural       Zr6H23C50N2Cl5O36
_chemical_formula_sum              "Zr6 H23 C50 N2 Cl5 O36"
_cell_length_a       14.775716618772394
_cell_length_b       14.760856445405894
_cell_length_c       14.799664239590285
_cell_angle_alpha    60.529378320189416
_cell_angle_beta     59.83085236010501
_cell_angle_gamma    60.09591522399365

_space_group_name_H-M_alt    "P 1"
_space_group_IT_number       1

loop_
  _space_group_symop_operation_xyz
  'x, y, z'

loop_
  _atom_site_type_symbol
  _atom_site_label
  _atom_site_symmetry_multiplicity
  _atom_site_fract_x
  _atom_site_fract_y
  _atom_site_fract_z
  _atom_site_occupancy
  Zr  Zr1       1.0  0.8783774942469188  0.8836394767844952  0.6148935586162948  1.0000
  Zr  Zr2       1.0  0.12056832737421529  0.11929277633576163  0.38019802090826726  1.0000
  Zr  Zr3       1.0  0.11685540598169523  0.8825976899679518  0.6169783101797749  1.0000
  Zr  Zr4       1.0  0.8801643889672235  0.12157207497980235  0.378217594913778  1.0000
  Zr  Zr5       1.0  0.1190371472111947  0.8829395484870092  0.3759766947654626  1.0000
  Zr  Zr6       1.0  0.8780672976607421  0.12272739097301164  0.6171819466092572  1.0000
  H   H1        1.0  0.09288585591318091  0.7204363300804034  0.5878300694127248  1.0000
  H   H2        1.0  0.09690178712357064  0.09423960206847677  0.21530440331527248  1.0000
  H   H3        1.0  0.09192112104278759  0.09407945876104401  0.5946435583576672  1.0000
  H   H4        1.0  0.7152652992222244  0.09757877092621922  0.5914018582271012  1.0000
  H   H5        1.0  0.8223855580477704  0.6271477510890336  0.5879532408956436  1.0000
  H   H6        1.0  0.1725521423830329  0.5513725219738675  0.40290428675166373  1.0000
  H   H7        1.0  0.8306358266638438  0.45312249737636284  0.587461669099632  1.0000
  H   H8        1.0  0.5648162164739644  0.8743661465455761  0.9002085635340364  1.0000
  H   H9        1.0  0.6300383292837707  0.09838015996063378  0.9477071069213849  1.0000
  H   H10       1.0  0.39782244007282225  0.8778456104337878  0.07355769180312428  1.0000
  H   H11       1.0  0.13249929569127497  0.8466606492230043  0.0859741156151799  1.0000
  H   H12       1.0  0.8461870366113261  0.14099463587273678  0.09622439000676755  1.0000
  H   H13       1.0  0.12338825197436866  0.8539212727409479  0.9178947334293285  1.0000
  H   H14       1.0  0.584628771973307  0.4332747095824062  0.6343753263019778  1.0000
  H   H15       1.0  0.5971675810407007  0.41565374932831384  0.34676775594105896  1.0000
  H   H16       1.0  0.41487811458365087  0.6019441920574166  0.626214251800853  1.0000
  H   H17       1.0  0.7399515096379897  0.6342133676096041  0.9661756800096626  1.0000
  H   H18       1.0  0.8243447484064745  0.5482311271546437  0.8807616213441066  1.0000
  H   H19       1.0  0.8261358618223369  0.3788468229135731  0.05058435066019472  1.0000
  H   H20       1.0  0.7404138811284752  0.4649627914348288  0.13591776631996313  1.0000
  H   H21       1.0  0.5841085344677666  0.140433007834595  0.3478232648578441  1.0000
  H   H22       1.0  0.5988412076471905  0.8485557046779277  0.6322757154831395  1.0000
  H   H23       1.0  0.41389303248000436  0.13120726864897136  0.35778541445967704  1.0000
  C   C1        1.0  0.9948890663815532  0.702763921425408  0.4920996025080129  1.0000
  C   C2        1.0  0.3118284650353186  0.9950489904313216  0.2019965913902907  1.0000
  C   C3        1.0  0.0004472036398510306  0.30541300277176475  0.49702505315897844  1.0000
  C   C4        1.0  0.7001168490460968  0.9949351349594976  0.8058096196315105  1.0000
  C   C5        1.0  0.994421980539137  0.7025414574134744  0.8025721066697714  1.0000
  C   C6        1.0  0.6995472204534889  0.9993433345213917  0.49087319640962324  1.0000
  C   C7        1.0  0.9957812563510657  0.3094135320264685  0.20152038800661387  1.0000
  C   C8        1.0  0.3068661930315102  0.9918179594855585  0.4988789347065675  1.0000
  C   C9        1.0  0.30648642725560643  0.7030716830066694  0.48830999319292107  1.0000
  C   C10       1.0  0.9874481145306291  0.000644328101628672  0.8072389667334364  1.0000
  C   C11       1.0  0.699861429342647  0.3112256602258585  0.4942581919975169  1.0000
  C   C12       1.0  0.9955589520286021  0.9969493606745561  0.19754172951654442  1.0000
  C   C13       1.0  0.00490737619141867  0.4045102549008632  0.49669302657292047  1.0000
  C   C14       1.0  0.9967872544005513  0.6000584757602354  0.4936535079490128  1.0000
  C   C15       1.0  0.1025546890448367  0.4314786054143412  0.4464739928967846  1.0000
  C   C16       1.0  0.9000039883505832  0.5723393659184384  0.5477638921981054  1.0000
  C   C17       1.0  0.09745968489698235  0.5299197621975651  0.4432300238825775  1.0000
  C   C18       1.0  0.9047990964484214  0.47602845164047375  0.547785419307843  1.0000
  C   C19       1.0  0.4189651919395275  0.9902332407475142  0.1070187589712432  1.0000
  C   C20       1.0  0.605381474280989  0.98856131295598  0.912568810041641  1.0000
  C   C21       1.0  0.4874642753134708  0.05023565143932976  0.07264660352926458  1.0000
  C   C22       1.0  0.5422232423543671  0.9234645663587815  0.9488780273948335  1.0000
  C   C23       1.0  0.5789190654520979  0.050106194739072185  0.9752138859303373  1.0000
  C   C24       1.0  0.4501170806788223  0.9254270603464931  0.0446310506761876  1.0000
  C   C25       1.0  0.9816423111079474  0.0012950107552141593  0.9109834758429827  1.0000
  C   C26       1.0  0.990632293360143  0.9948799210681329  0.10006389455789841  1.0000
  C   C27       1.0  0.9017641642649181  0.08211355602158203  0.963411874148541  1.0000
  C   C28       1.0  0.06861964469862149  0.9125268896974748  0.050955646128578266  1.0000
  C   C29       1.0  0.9072407972929922  0.07823872341760563  0.056687806288941524  1.0000
  C   C30       1.0  0.06339623475630406  0.9166612976493127  0.9578406902179353  1.0000
  C   C31       1.0  0.4104582088053662  0.6045747797912994  0.4826168580911984  1.0000
  C   C32       1.0  0.6011351203506337  0.414498070209234  0.4905365837985585  1.0000
  C   C33       1.0  0.46352473036935044  0.5514298076138928  0.402487388109293  1.0000
  C   C34       1.0  0.5506166271568631  0.4670365247339489  0.5695487901924566  1.0000
  C   C35       1.0  0.5575990410841954  0.45731868492103434  0.4074511305735554  1.0000
  C   C36       1.0  0.45672469893511897  0.5605222689215594  0.5648314327650966  1.0000
  C   C37       1.0  0.9959378385604507  0.6035706239998293  0.904036617929158  1.0000
  C   C38       1.0  0.9939092968489902  0.41236967686166537  0.10380419916760533  1.0000
  C   C39       1.0  0.914979016330044  0.5540894473991993  0.9586759014077515  1.0000
  C   C40       1.0  0.0744434005836537  0.4642310815110022  0.05122448139009349  1.0000
  C   C41       1.0  0.9149469753309559  0.4612444012553778  0.05353461038968988  1.0000
  C   C42       1.0  0.07739297852078397  0.5537990923150035  0.953622125628037  1.0000
  C   C43       1.0  0.8118624024685342  0.5596392926574721  0.954650429634924  1.0000
  C   C44       1.0  0.8124870493315725  0.45382486220905355  0.06113881731842235  1.0000
  C   C45       1.0  0.4104791876003234  0.986367755634319  0.4992571457780812  1.0000
  C   C46       1.0  0.6009354055218873  0.9950382747639852  0.49032249575744646  1.0000
  C   C47       1.0  0.4641038212102444  0.9050118891765921  0.5769987563285072  1.0000
  C   C48       1.0  0.549961663266849  0.07513169262276166  0.4115654221369739  1.0000
  C   C49       1.0  0.558284614292539  0.9104227539478487  0.5717749422233425  1.0000
  C   C50       1.0  0.45608455066054887  0.06991621855378578  0.41710137327568486  1.0000
  N   N1        1.0  0.1594454352040841  0.4264484286101577  0.0997000226673137  1.0000
  N   N2        1.0  0.17322751948624657  0.5931323975243786  0.9014653212022878  1.0000
  Cl  Cl1       1.0  0.2330342289084442  0.345058718082818  0.39273997818825285  1.0000
  Cl  Cl2       1.0  0.467256081150623  0.1245352715348531  0.14560055652216872  1.0000
  Cl  Cl3       1.0  0.7934222795967469  0.19049179739062075  0.9201092368052741  1.0000
  Cl  Cl4       1.0  0.4197221040127415  0.5937895238111182  0.29479602970812374  1.0000
  Cl  Cl5       1.0  0.4210870149282331  0.7955763700056052  0.6823921079473507  1.0000
  O   O1        1.0  0.9164223485565443  0.7430765219599139  0.5685531444137554  1.0000
  O   O2        1.0  0.2674191556159188  0.07392755115366609  0.2404705826728275  1.0000
  O   O3        1.0  0.07543390609579602  0.2643769453595013  0.42039003758690546  1.0000
  O   O4        1.0  0.7366833827240739  0.9209826139930045  0.7627915453053334  1.0000
  O   O5        1.0  0.06978994145269717  0.743794363614647  0.7628677411356506  1.0000
  O   O6        1.0  0.73686289239523  0.07770022924909636  0.4160547201618244  1.0000
  O   O7        1.0  0.9191898949950783  0.27100057782672593  0.2370226634716132  1.0000
  O   O8        1.0  0.2620974577118458  0.9192145281145017  0.575362955874354  1.0000
  O   O9        1.0  0.2636994276336748  0.7431166334310507  0.41452802988879967  1.0000
  O   O10       1.0  0.9145206035193354  0.07779494769782505  0.7635871460569278  1.0000
  O   O11       1.0  0.736650129144081  0.2717371790904295  0.5725777177367064  1.0000
  O   O12       1.0  0.07448220098675054  0.9217206196596592  0.23370057226520652  1.0000
  O   O13       1.0  0.06659177122999431  0.9240505228575558  0.7677998276149439  1.0000
  O   O14       1.0  0.7390275776784706  0.26906507684672215  0.4191064312140966  1.0000
  O   O15       1.0  0.9210254408008538  0.07570860460636913  0.23616089221415862  1.0000
  O   O16       1.0  0.2662520686415417  0.7394329306537132  0.5679359122748197  1.0000
  O   O17       1.0  0.918455518879682  0.7369492857219485  0.7645758664946954  1.0000
  O   O18       1.0  0.2686341681433433  0.0702198808696082  0.4229179227008615  1.0000
  O   O19       1.0  0.07432509980755946  0.26752408872661704  0.23834738224583424  1.0000
  O   O20       1.0  0.7378633690138159  0.9246773052845896  0.5681868837874192  1.0000
  O   O21       1.0  0.736014137237497  0.07453139685734549  0.7646826537931658  1.0000
  O   O22       1.0  0.07275565692699347  0.7410451455309115  0.4163408078798554  1.0000
  O   O23       1.0  0.26960177585370787  0.9219274121468786  0.2353754823030769  1.0000
  O   O24       1.0  0.9209019810884415  0.2695596477605021  0.5732824583416162  1.0000
  O   O25       1.0  0.7957956711375901  0.07072170575123232  0.5642902393395134  1.0000
  O   O26       1.0  0.06524426418466335  0.06838123368715543  0.5665856345590329  1.0000
  O   O27       1.0  0.0677024422639079  0.06910382389530406  0.2953286899702334  1.0000
  O   O28       1.0  0.06472842322482118  0.8004506452092385  0.5636363755487395  1.0000
  O   O29       1.0  0.14753769653975707  0.9515259704813276  0.44827731106146734  1.0000
  O   O30       1.0  0.9490867422729534  0.9531031299897422  0.4464390073082854  1.0000
  O   O31       1.0  0.9499592029497208  0.15042409903176682  0.44851133161304096  1.0000
  O   O32       1.0  0.947298725841591  0.9531034763533485  0.6457763415460034  1.0000
  O   O33       1.0  0.12867378430997417  0.4601545235548913  0.17530780925226  1.0000
  O   O34       1.0  0.25384455170685544  0.36893520533889307  0.0572577712563245  1.0000
  O   O35       1.0  0.25131768027585366  0.5594399844863176  0.8254080913461054  1.0000
  O   O36       1.0  0.16851739789221643  0.6522145876244493  0.9415918317627502  1.0000
