data_image0
_chemical_formula_structural       Al2H6C30S6O24
_chemical_formula_sum              "Al2 H6 C30 S6 O24"
_cell_length_a       4.027142165168345
_cell_length_b       20.1087185109225
_cell_length_c       20.1086443232533
_cell_angle_alpha    119.9997502245265
_cell_angle_beta     89.99903956305253
_cell_angle_gamma    90.00013528729997

_space_group_name_H-M_alt    "P 1"
_space_group_IT_number       1

loop_
  _space_group_symop_operation_xyz
  'x, y, z'

loop_
  _atom_site_type_symbol
  _atom_site_label
  _atom_site_symmetry_multiplicity
  _atom_site_fract_x
  _atom_site_fract_y
  _atom_site_fract_z
  _atom_site_occupancy
  Al  Al1       1.0  0.0034636438981720985  0.5000012480236647  0.49999787982579147  1.0000
  Al  Al2       1.0  0.0034551405295956995  0.1666643039333238  0.833332310028773  1.0000
  H   H1        1.0  0.2599203692563208  0.49683300604831243  0.8112909922368914  1.0000
  H   H2        1.0  0.2599800568916919  0.16980826212618172  0.5220401008270841  1.0000
  H   H3        1.0  0.25994014094670337  0.814453601233012  0.5031604705786705  1.0000
  H   H4        1.0  0.25994909881255507  0.8522243489440484  0.8301830978148177  1.0000
  H   H5        1.0  0.25992963092505755  0.18871793215591026  0.18555405094570432  1.0000
  H   H6        1.0  0.2599652781674918  0.47796605829135774  0.14777127681480814  1.0000
  C   C1        1.0  0.5039769002115263  0.4388640111080662  0.3833919833380008  1.0000
  C   C2        1.0  0.503964563782091  0.44453348331249737  0.5611367670537534  1.0000
  C   C3        1.0  0.5039733156944661  0.6166050673873116  0.5554646655677119  1.0000
  C   C4        1.0  0.5039519095580401  0.22212823855127073  0.7721923374014993  1.0000
  C   C5        1.0  0.5039679886994788  0.05006195021712044  0.7778760511538253  1.0000
  C   C6        1.0  0.5039470227432972  0.22781064596639997  0.9499351263366904  1.0000
  C   C7        1.0  0.4910818130255449  0.4309823541644774  0.6823111925717599  1.0000
  C   C8        1.0  0.49112412002118316  0.2356842849256963  0.6510240103306941  1.0000
  C   C9        1.0  0.5018419206892446  0.4014533262808866  0.6035170530683445  1.0000
  C   C10       1.0  0.5018010507431824  0.26520983467917597  0.729810624773215  1.0000
  C   C11       1.0  0.492654828362525  0.29661417714617494  0.6339791832993456  1.0000
  C   C12       1.0  0.49262276184582987  0.3700519621150916  0.6993555158607663  1.0000
  C   C13       1.0  0.49113818096498096  0.7513303112470098  0.569017692583522  1.0000
  C   C14       1.0  0.4911484424008278  0.9153387059375434  0.7643215219469826  1.0000
  C   C15       1.0  0.5018613724704293  0.7020664589669748  0.5985451295458831  1.0000
  C   C16       1.0  0.5018324911086154  0.9646026738067804  0.7347958960027655  1.0000
  C   C17       1.0  0.49267018596610507  0.837364778898575  0.70338886320954  1.0000
  C   C18       1.0  0.49265581355607657  0.8293044459597779  0.629951129355483  1.0000
  C   C19       1.0  0.49113642486661035  0.31769147640221007  0.24866903108002703  1.0000
  C   C20       1.0  0.49112606986572155  0.34897935129691854  0.08465517809623449  1.0000
  C   C21       1.0  0.501857104467241  0.39648228450645456  0.2979307493836957  1.0000
  C   C22       1.0  0.5018200799377793  0.2701931550511745  0.035395747462530436  1.0000
  C   C23       1.0  0.4926649633284369  0.36602439753742283  0.1626296498227333  1.0000
  C   C24       1.0  0.49265428969997754  0.3006475760971838  0.1706934044734255  1.0000
  C   C25       1.0  0.5075979178418705  0.5148312237245347  0.7382778727400209  1.0000
  C   C26       1.0  0.5077357259573743  0.1518386232291319  0.595053030834066  1.0000
  C   C27       1.0  0.5076892164340379  0.7234546745537074  0.4851676225417663  1.0000
  C   C28       1.0  0.5077151849057842  0.9432164583598919  0.8481713686175355  1.0000
  C   C29       1.0  0.5077000133937231  0.2617216479668513  0.27654887140585066  1.0000
  C   C30       1.0  0.5077150234507285  0.40495108525173157  0.05677432991351599  1.0000
  S   S1        1.0  0.51564732213955  0.30229111062508435  0.5511354765775137  1.0000
  S   S2        1.0  0.5155288216152342  0.36437300159472846  0.7821971370776952  1.0000
  S   S3        1.0  0.5156414991667049  0.7488438315419828  0.6977102946863597  1.0000
  S   S4        1.0  0.5155905032690525  0.9178250683351763  0.6356298886600202  1.0000
  S   S5        1.0  0.5156383800210873  0.44886657555042586  0.25115057562830156  1.0000
  S   S6        1.0  0.51558439271362  0.2178073493999122  0.08217437152359965  1.0000
  O   O1        1.0  0.7402988552540319  0.5849203190065637  0.5713448388884927  1.0000
  O   O2        1.0  0.7403097218813028  0.4864269467808739  0.41507436862553254  1.0000
  O   O3        1.0  0.7402978108057494  0.4286520708448051  0.5135723771834293  1.0000
  O   O4        1.0  0.26746737776770857  0.5830063873511903  0.5089546134893723  1.0000
  O   O5        1.0  0.26745664670151825  0.49104365219875484  0.5740450590494961  1.0000
  O   O6        1.0  0.2674702360056712  0.4259524769846479  0.41699287913058924  1.0000
  O   O7        1.0  0.7402794117099628  0.18024659230628962  0.9182544664391729  1.0000
  O   O8        1.0  0.740293806127745  0.23800729255690078  0.8197497471645859  1.0000
  O   O9        1.0  0.7403101430954209  0.0817421764756999  0.7619930506140804  1.0000
  O   O10       1.0  0.2674482847477861  0.24071916612984254  0.9163306705550909  1.0000
  O   O11       1.0  0.26746604098829607  0.08366635742726898  0.8243907101705403  1.0000
  O   O12       1.0  0.26747428957033037  0.17561097977505813  0.7592815775330736  1.0000
  O   O13       1.0  0.38377029657935674  0.537958789097459  0.809870773801926  1.0000
  O   O14       1.0  0.6328762264370339  0.5611975407142822  0.7239616781790874  1.0000
  O   O15       1.0  0.38390385068950633  0.12869503542460578  0.5234639465953563  1.0000
  O   O16       1.0  0.6331413909065445  0.10548179948207793  0.609370934371853  1.0000
  O   O17       1.0  0.38383590061656037  0.7719193380478302  0.4620402766280309  1.0000
  O   O18       1.0  0.6330551071855693  0.6627814098345937  0.438805615388283  1.0000
  O   O19       1.0  0.3838543749889637  0.8947570490851788  0.8713031358008866  1.0000
  O   O20       1.0  0.6330916338178836  0.0038884197902148304  0.8945295452603901  1.0000
  O   O21       1.0  0.38384452606410235  0.19013085341081387  0.22808694647160624  1.0000
  O   O22       1.0  0.6330792915550346  0.27603353051137697  0.3372200444012918  1.0000
  O   O23       1.0  0.383871284347009  0.47654333013922207  0.1052305556568598  1.0000
  O   O24       1.0  0.633092281549409  0.3906323056553517  0.996100212353298  1.0000
