data_image0
_chemical_formula_structural       Ho2CuH20C32N4O28
_chemical_formula_sum              "Ho2 Cu1 H20 C32 N4 O28"
_cell_length_a       10.219834655156212
_cell_length_b       10.641996727491277
_cell_length_c       11.368197634589075
_cell_angle_alpha    84.37389854683809
_cell_angle_beta     75.01341577535632
_cell_angle_gamma    68.86905872874281

_space_group_name_H-M_alt    "P 1"
_space_group_IT_number       1

loop_
  _space_group_symop_operation_xyz
  'x, y, z'

loop_
  _atom_site_type_symbol
  _atom_site_label
  _atom_site_symmetry_multiplicity
  _atom_site_fract_x
  _atom_site_fract_y
  _atom_site_fract_z
  _atom_site_occupancy
  Ho  Ho1       1.0  0.5861682948129145  0.6079952382631718  0.6271466060765505  1.0000
  Ho  Ho2       1.0  0.41383721380110944  0.3920030857790877  0.37285489973471914  1.0000
  Cu  Cu1       1.0  0.9999957351438769  0.49999720341138226  0.5000013495215614  1.0000
  H   H1        1.0  0.36962280132823383  0.9776502450391008  0.4525270106363948  1.0000
  H   H2        1.0  0.6303859761333329  0.0223529738394603  0.547464443617564  1.0000
  H   H3        1.0  0.9638098865329215  0.18144127489804873  0.3563204944113423  1.0000
  H   H4        1.0  0.03618988203361087  0.8185420129720029  0.6436759378954309  1.0000
  H   H5        1.0  0.1609991345219442  0.7488257747998334  0.3256990994503113  1.0000
  H   H6        1.0  0.8390264414505283  0.2511562505736293  0.6742993098892853  1.0000
  H   H7        1.0  0.6679474353877382  0.4794189190567694  0.9464075245627729  1.0000
  H   H8        1.0  0.33204490905723116  0.52060460899353  0.05359105142134983  1.0000
  H   H9        1.0  0.9264149288073545  0.3173675793744763  0.20908910115324622  1.0000
  H   H10       1.0  0.07355669832585221  0.6826572539088575  0.7909186126897083  1.0000
  H   H11       1.0  0.13407965232015331  0.33719066746389365  0.8302377487668341  1.0000
  H   H12       1.0  0.8659125518773864  0.6628107804093022  0.1697604157713286  1.0000
  H   H13       1.0  0.4630921313955839  0.8330389248832049  0.8146285174737642  1.0000
  H   H14       1.0  0.536917890020881  0.16694138568725947  0.18538427422311807  1.0000
  H   H15       1.0  0.34969562101988344  0.8708054063041357  0.7342498265539776  1.0000
  H   H16       1.0  0.6503263152015251  0.1292007912295006  0.26575407310074445  1.0000
  H   H17       1.0  0.7151525851842706  0.46937196547941085  0.3837673912608751  1.0000
  H   H18       1.0  0.2848710257746348  0.5306211451470801  0.6162338968236654  1.0000
  H   H19       1.0  0.8008863975326934  0.5682423719337705  0.38229791607595603  1.0000
  H   H20       1.0  0.19911612802669523  0.4317670272769831  0.6177040697246737  1.0000
  C   C1        1.0  0.27585905435834224  0.8501950661979267  0.3925767598004343  1.0000
  C   C2        1.0  0.7241485628882316  0.14980020755466938  0.6074227942425525  1.0000
  C   C3        1.0  0.2806399668194148  0.9748942997321492  0.41807336083701335  1.0000
  C   C4        1.0  0.7193628519429681  0.02510302517375611  0.5819253577745515  1.0000
  C   C5        1.0  0.16949426458572966  0.0943519816276108  0.4035304425243283  1.0000
  C   C6        1.0  0.8305017934946479  0.9056443960393993  0.5964664405002152  1.0000
  C   C7        1.0  0.05400740374795282  0.0897557140521883  0.36213460699728744  1.0000
  C   C8        1.0  0.9459956346665593  0.9102325378309079  0.6378596837284221  1.0000
  C   C9        1.0  0.05505263954869129  0.9663426347145008  0.3310429328152581  1.0000
  C   C10       1.0  0.9449610868703503  0.033638485232970104  0.668952193794411  1.0000
  C   C11       1.0  0.16414500855660935  0.8452185926945646  0.34594679948693857  1.0000
  C   C12       1.0  0.8358655917446003  0.15476560588954413  0.6540522745666878  1.0000
  C   C13       1.0  0.38445533268092197  0.721515822533391  0.42574903690545096  1.0000
  C   C14       1.0  0.615552211570595  0.27848249093275257  0.574253750871982  1.0000
  C   C15       1.0  0.16575598782969078  0.22992865221745262  0.4340870496441483  1.0000
  C   C16       1.0  0.8342383984400996  0.7700667363977516  0.5659094449362744  1.0000
  C   C17       1.0  0.8997384925087888  0.41722036514545396  0.8754695904312018  1.0000
  C   C18       1.0  0.10024535037590017  0.5827902595454758  0.1245349052181695  1.0000
  C   C19       1.0  0.7735066121019545  0.43628635080130346  0.9679625007376417  1.0000
  C   C20       1.0  0.22647192136989966  0.563733327234921  0.03203794456467793  1.0000
  C   C21       1.0  0.7831258557657748  0.39948087787988856  0.08822681009806392  1.0000
  C   C22       1.0  0.21686663893015648  0.6005225870200165  0.9117728450378452  1.0000
  C   C23       1.0  0.9183360194030004  0.3442242592558174  0.1158724552494519  1.0000
  C   C24       1.0  0.08165116643588992  0.6557882974209052  0.8841275439706636  1.0000
  C   C25       1.0  0.042274499422127604  0.32171909146009636  0.0214813553582474  1.0000
  C   C26       1.0  0.9577161036999303  0.6782924497245162  0.9785214603331555  1.0000
  C   C27       1.0  0.035377229795173576  0.3567829691412499  0.9017444350653252  1.0000
  C   C28       1.0  0.9646079938459097  0.6432265891432608  0.09825456399916994  1.0000
  C   C29       1.0  0.8917645459023619  0.45996091280322554  0.747352896514393  1.0000
  C   C30       1.0  0.10822991132484826  0.5400455735478076  0.25265039543588597  1.0000
  C   C31       1.0  0.6496600094815009  0.4124209480296059  0.18721254127651585  1.0000
  C   C32       1.0  0.35033881222368995  0.5875734428643398  0.812790047417025  1.0000
  N   N1        1.0  0.9332120452720435  0.9655298335937489  0.28636349269002903  1.0000
  N   N2        1.0  0.06679833630309423  0.03444922370076141  0.7136211892826482  1.0000
  N   N3        1.0  0.18568725786660426  0.2604238940534103  0.04835440700398411  1.0000
  N   N4        1.0  0.8142957110406501  0.7395947862615557  0.9516521324114536  1.0000
  O   O1        1.0  0.3909541001942289  0.610822433849421  0.3878180434172692  1.0000
  O   O2        1.0  0.6090486454619324  0.38917792308372884  0.6121830300425016  1.0000
  O   O3        1.0  0.45901906349545407  0.7341312855416717  0.49426152726660194  1.0000
  O   O4        1.0  0.5409867352834753  0.26586903246838745  0.5057388324836654  1.0000
  O   O5        1.0  0.28017371537976743  0.24798749708969578  0.43676791964216494  1.0000
  O   O6        1.0  0.7198197945782497  0.7520157857371644  0.5632121620930804  1.0000
  O   O7        1.0  0.038436713013275954  0.3187823757819856  0.4551399677370541  1.0000
  O   O8        1.0  0.9615507721791448  0.6812042535337568  0.5448792519809518  1.0000
  O   O9        1.0  0.841420800508452  0.07754131062267079  0.2709674938025373  1.0000
  O   O10       1.0  0.15862228532595427  0.9224449513951569  0.728963042387882  1.0000
  O   O11       1.0  0.92617202162522  0.8562602021406748  0.2668260128506646  1.0000
  O   O12       1.0  0.07381365047196912  0.14371756457227042  0.7332103480578168  1.0000
  O   O13       1.0  0.012289620018791032  0.4378289306051997  0.6683885259659661  1.0000
  O   O14       1.0  0.9877036757706746  0.5621695260705196  0.33161319802457717  1.0000
  O   O15       1.0  0.7700603532642561  0.5132534250608954  0.7226782805154672  1.0000
  O   O16       1.0  0.22994057021921327  0.4867659982845326  0.27732044646214865  1.0000
  O   O17       1.0  0.5298462847850801  0.4366958907854226  0.16107111483503195  1.0000
  O   O18       1.0  0.47014737909214016  0.5632875825390683  0.8389390492982544  1.0000
  O   O19       1.0  0.6611495089496204  0.39027761464182475  0.2982190656056645  1.0000
  O   O20       1.0  0.3388591258933929  0.6097176384500997  0.7017793716479022  1.0000
  O   O21       1.0  0.19064876880057116  0.24607806075470512  0.15710026259579027  1.0000
  O   O22       1.0  0.80934430655865  0.7539294151397089  0.842899737076856  1.0000
  O   O23       1.0  0.29320224731887384  0.22747727981241184  0.961357161722134  1.0000
  O   O24       1.0  0.7067834107730635  0.7725423535210894  0.03864689157551031  1.0000
  O   O25       1.0  0.45263846341138975  0.8242766057426252  0.7335320699157963  1.0000
  O   O26       1.0  0.5473836902021815  0.17573464084495777  0.26647567518487864  1.0000
  O   O27       1.0  0.7367771933726961  0.5258449258663659  0.4361878068545764  1.0000
  O   O28       1.0  0.2632325295795185  0.47416137355550364  0.5638127954344159  1.0000
