data_image0
_chemical_formula_structural       Sm2H10C20O18
_chemical_formula_sum              "Sm2 H10 C20 O18"
_cell_length_a       6.2860223830993665
_cell_length_b       9.296698979123288
_cell_length_c       9.6625876309812
_cell_angle_alpha    87.93732202090249
_cell_angle_beta     73.86924836769484
_cell_angle_gamma    76.94935859076857

_space_group_name_H-M_alt    "P 1"
_space_group_IT_number       1

loop_
  _space_group_symop_operation_xyz
  'x, y, z'

loop_
  _atom_site_type_symbol
  _atom_site_label
  _atom_site_symmetry_multiplicity
  _atom_site_fract_x
  _atom_site_fract_y
  _atom_site_fract_z
  _atom_site_occupancy
  Sm  Sm1       1.0  0.1499361595628699  0.058184086328054684  0.7793825135046577  1.0000
  Sm  Sm2       1.0  0.8500682814869335  0.9418172591424325  0.22061666810642316  1.0000
  H   H1        1.0  0.20536057651693782  0.5654453262791608  0.8696066271641103  1.0000
  H   H2        1.0  0.7946363496013829  0.434553803311104  0.1303919277368523  1.0000
  H   H3        1.0  0.6831168122679258  0.6591988225344282  0.6065000447048093  1.0000
  H   H4        1.0  0.3168830505060072  0.34080140918226937  0.39350000863001366  1.0000
  H   H5        1.0  0.7314906149882745  0.9272204405735921  0.8831664920682063  1.0000
  H   H6        1.0  0.26851001432404337  0.0727775862145634  0.1168324561141105  1.0000
  H   H7        1.0  0.019824202816906198  0.42355898969297107  0.7594681710924578  1.0000
  H   H8        1.0  0.9801723500370441  0.5764412359272415  0.24053248715915038  1.0000
  H   H9        1.0  0.7638666069962521  0.9416783228836897  0.7166305018530112  1.0000
  H   H10       1.0  0.23613081426969265  0.058324123581975605  0.2833678575439152  1.0000
  C   C1        1.0  0.4039564151621065  0.389652737433778  0.9620181398104467  1.0000
  C   C2        1.0  0.5960401577014592  0.6103474753177738  0.0379856199899464  1.0000
  C   C3        1.0  0.33431573797139424  0.5368040453966075  0.927544708815411  1.0000
  C   C4        1.0  0.6656820899082945  0.4631972835913416  0.07245671647884676  1.0000
  C   C5        1.0  0.5715183658936597  0.3530238581824251  0.035864950790333625  1.0000
  C   C6        1.0  0.42847947532577285  0.6469774622264169  0.9641385422031166  1.0000
  C   C7        1.0  0.30153149897650167  0.27646050987029724  0.9162317791419811  1.0000
  C   C8        1.0  0.6984650672171924  0.7235397071708011  0.08377094680881915  1.0000
  C   C9        1.0  0.656432193552476  0.20200085595001138  0.0847500700695889  1.0000
  C   C10       1.0  0.34356563432721987  0.798000473037945  0.9152513552246688  1.0000
  C   C11       1.0  0.603365611225179  0.5900079998319896  0.5578571697587693  1.0000
  C   C12       1.0  0.39663881648487365  0.4099933542176117  0.44213994415311936  1.0000
  C   C13       1.0  0.663243817319632  0.43607970278985425  0.5706547477451879  1.0000
  C   C14       1.0  0.33675439716417793  0.5639205215890473  0.4293466418976237  1.0000
  C   C15       1.0  0.44114545521039616  0.6567076276211878  0.4879405980945963  1.0000
  C   C16       1.0  0.5588556625796599  0.34329372033192135  0.5120571207340846  1.0000
  C   C17       1.0  0.8352335479308053  0.37411241822255903  0.6484383923082718  1.0000
  C   C18       1.0  0.16476427327901177  0.6258889150549508  0.3515619991363864  1.0000
  C   C19       1.0  0.39206967119216046  0.8242780299267242  0.4787979524088898  1.0000
  C   C20       1.0  0.607935143122013  0.17572221951382264  0.5211991258515456  1.0000
  O   O1        1.0  0.3648532388390393  0.14076599305795412  0.9417498707102684  1.0000
  O   O2        1.0  0.6351457488530271  0.8592320221028444  0.05825144762963666  1.0000
  O   O3        1.0  0.8387955326286016  0.9452403750184079  0.7917029668540536  1.0000
  O   O4        1.0  0.16120062695134146  0.05476095950041332  0.20829669319940797  1.0000
  O   O5        1.0  0.15056469947615614  0.31653972406066805  0.8481935853544942  1.0000
  O   O6        1.0  0.8494342882159102  0.6834582911001308  0.1518077329854037  1.0000
  O   O7        1.0  0.5464344771455528  0.15773417374978047  0.20235340766412693  1.0000
  O   O8        1.0  0.45357073711249996  0.8422649625026043  0.7976457026440543  1.0000
  O   O9        1.0  0.8525489394906032  0.12709582250244014  0.01525214000871956  1.0000
  O   O10       1.0  0.14745092328333695  0.8729044092142575  0.9847479133260962  1.0000
  O   O11       1.0  0.9124005280334939  0.47478756136379735  0.7017082384071714  1.0000
  O   O12       1.0  0.08760049455282365  0.5252093565257497  0.2982917079732914  1.0000
  O   O13       1.0  0.8995818957078254  0.2386894883185207  0.6625923665575189  1.0000
  O   O14       1.0  0.10042128365598302  0.7613107452051225  0.33740811571009743  1.0000
  O   O15       1.0  0.5269300361641809  0.8781637058710601  0.37868141996042237  1.0000
  O   O16       1.0  0.4730747914897434  0.12183653499037926  0.6213177259992051  1.0000
  O   O17       1.0  0.22789431462766166  0.8986368720263088  0.5744868971197264  1.0000
  O   O18       1.0  0.772110139761878  0.10136446486507111  0.42551435219055384  1.0000
