data_image0
_chemical_formula_structural       Zn2H24C44N4O8
_chemical_formula_sum              "Zn2 H24 C44 N4 O8"
_cell_length_a       9.13419360947435
_cell_length_b       10.226196689209834
_cell_length_c       13.219036206683011
_cell_angle_alpha    90.15341201424496
_cell_angle_beta     93.1170226760807
_cell_angle_gamma    103.34459307255075

_space_group_name_H-M_alt    "P 1"
_space_group_IT_number       1

loop_
  _space_group_symop_operation_xyz
  'x, y, z'

loop_
  _atom_site_type_symbol
  _atom_site_label
  _atom_site_symmetry_multiplicity
  _atom_site_fract_x
  _atom_site_fract_y
  _atom_site_fract_z
  _atom_site_occupancy
  Zn  Zn1       1.0  0.8505483107287475  0.1210876262667142  0.966463116510745  1.0000
  Zn  Zn2       1.0  0.14944586684116967  0.8789161159263159  0.0335289290661933  1.0000
  H   H1        1.0  0.11017928542916171  0.41034693189980936  0.0510653551502429  1.0000
  H   H2        1.0  0.8898098916006205  0.5896536818744451  0.9489348419011421  1.0000
  H   H3        1.0  0.9014988079701993  0.2853532414468489  0.161698749195466  1.0000
  H   H4        1.0  0.0984915495349057  0.714661568379931  0.8382902928552127  1.0000
  H   H5        1.0  0.585768518037348  0.9401671512348597  0.07012776407523089  1.0000
  H   H6        1.0  0.4142254035217475  0.0598395580529925  0.9298680914457051  1.0000
  H   H7        1.0  0.5389963984346837  0.6689820475849331  0.13873960571548594  1.0000
  H   H8        1.0  0.46099275031549786  0.3310225560667632  0.8612629059198369  1.0000
  H   H9        1.0  0.6535705709831062  0.4677203114600913  0.1564083304198007  1.0000
  H   H10       1.0  0.34641884861586897  0.5322852884402848  0.8435949565248819  1.0000
  H   H11       1.0  0.11313149081991011  0.31232608982408294  0.8773421435316705  1.0000
  H   H12       1.0  0.8868588679835341  0.6876796113293578  0.12265284738884222  1.0000
  H   H13       1.0  0.7729820298536295  0.301609884905595  0.323370800601225  1.0000
  H   H14       1.0  0.22701940211489105  0.6983918217662578  0.6766259578212441  1.0000
  H   H15       1.0  0.44609308993466373  0.9379590973104754  0.22462116570203253  1.0000
  H   H16       1.0  0.5539139861776334  0.06203855969162218  0.7753802389631872  1.0000
  H   H17       1.0  0.4918810153192156  0.23891208642231015  0.1186138472695859  1.0000
  H   H18       1.0  0.5081135624522588  0.761092572417546  0.881385785624957  1.0000
  H   H19       1.0  0.835347407281148  0.9566546955774128  0.7676331371610772  1.0000
  H   H20       1.0  0.1646532103771747  0.043349158833592596  0.23235151809993226  1.0000
  H   H21       1.0  0.28375852747036123  0.3227148353806725  0.7330502767126035  1.0000
  H   H22       1.0  0.7162633426604755  0.6772797379830849  0.2669620858428416  1.0000
  H   H23       1.0  0.9918535885294093  0.9500351913152729  0.6193395444960927  1.0000
  H   H24       1.0  0.0081792667675344  0.0499605771199825  0.38066026698908917  1.0000
  C   C1        1.0  0.19550207758060623  0.1709070859985218  0.0647300765672796  1.0000
  C   C2        1.0  0.8044937677342503  0.8290986349644738  0.93526506317167  1.0000
  C   C3        1.0  0.2284277160257204  0.4221089071323477  0.075923697005301  1.0000
  C   C4        1.0  0.7715628147826196  0.5778927156971392  0.9240765482293226  1.0000
  C   C5        1.0  0.2912340152127513  0.3097025029834199  0.0857135727598077  1.0000
  C   C6        1.0  0.7087608473146078  0.6902991710723186  0.9142837639703458  1.0000
  C   C7        1.0  0.3187328860872682  0.5510098852949881  0.09509850852391818  1.0000
  C   C8        1.0  0.6812552080127646  0.44899071567269994  0.9049024156535806  1.0000
  C   C9        1.0  0.25558389151797206  0.6723025391571866  0.0779195141336899  1.0000
  C   C10       1.0  0.7444043871956866  0.32769911112708167  0.9220776440143368  1.0000
  C   C11       1.0  0.8005257308804374  0.21118546291339865  0.1802291130937803  1.0000
  C   C12       1.0  0.19947037091069572  0.7888212631429211  0.8197660450647248  1.0000
  C   C13       1.0  0.6248317349458787  0.0176616064612105  0.1284277049170015  1.0000
  C   C14       1.0  0.3751669468134012  0.9823420808222638  0.8715705148331238  1.0000
  C   C15       1.0  0.4713008042223306  0.5671041920198121  0.1258075436858803  1.0000
  C   C16       1.0  0.5286848105172551  0.4328993858081773  0.8741956171286347  1.0000
  C   C17       1.0  0.533983987168959  0.45547503374049825  0.135392622263943  1.0000
  C   C18       1.0  0.46600765577964154  0.5445305563943988  0.8646122379877282  1.0000
  C   C19       1.0  0.09192797641099301  0.23423694207092186  0.8184746365035807  1.0000
  C   C20       1.0  0.9080748524536658  0.7657657471222165  0.1815244407715468  1.0000
  C   C21       1.0  0.729470448437624  0.2192716845465554  0.2695046989315841  1.0000
  C   C22       1.0  0.2705296584974021  0.7807289953807554  0.7304935250872545  1.0000
  C   C23       1.0  0.5468483236581746  0.016991538231224002  0.21579657267920993  1.0000
  C   C24       1.0  0.4531579260006425  0.9830071110576454  0.7842055775316723  1.0000
  C   C25       1.0  0.597515849906422  0.12124795226212368  0.2879957675390372  1.0000
  C   C26       1.0  0.40248988679984893  0.8787486868400837  0.7120063458327409  1.0000
  C   C27       1.0  0.44458259169438463  0.3271893699183224  0.11441228332306248  1.0000
  C   C28       1.0  0.5554174582159775  0.6728153175757396  0.8855867415001057  1.0000
  C   C29       1.0  0.9362375977010232  0.03528245894964499  0.7572262825522174  1.0000
  C   C30       1.0  0.06376839371772296  0.9647203217310789  0.242766072005729  1.0000
  C   C31       1.0  0.1534416144929125  0.1355587545630783  0.6648566318059821  1.0000
  C   C32       1.0  0.8465900033040438  0.8644268253864024  0.3351551354842357  1.0000
  C   C33       1.0  0.5124374445249344  0.12835068879895323  0.37286505135336506  1.0000
  C   C34       1.0  0.4875778125816979  0.8716399062944901  0.6271417904767986  1.0000
  C   C35       1.0  0.1855764096827528  0.23984409446290295  0.7385660345589287  1.0000
  C   C36       1.0  0.8144455318452799  0.7601464624894587  0.2614462840819911  1.0000
  C   C37       1.0  0.023317466850251392  0.032022761977501105  0.6747915635632821  1.0000
  C   C38       1.0  0.9767091185993807  0.9679739524010103  0.3252111153185524  1.0000
  C   C39       1.0  0.42883849789926387  0.13133119242812794  0.44196658133510164  1.0000
  C   C40       1.0  0.5711876621313436  0.8686543500224885  0.5580465509162948  1.0000
  C   C41       1.0  0.3355961100924604  0.13378981749141874  0.5170384015671488  1.0000
  C   C42       1.0  0.6644480640008865  0.8661926974298454  0.4829819934165229  1.0000
  C   C43       1.0  0.2493609494969391  0.13476768793731964  0.5849221206964756  1.0000
  C   C44       1.0  0.7506932579493082  0.8652107931618358  0.41510303958467887  1.0000
  N   N1        1.0  0.7485187566977842  0.11312431336102693  0.1101677141642767  1.0000
  N   N2        1.0  0.2514748508949226  0.8868814262121062  0.8898250953778799  1.0000
  N   N3        1.0  0.9702648258235911  0.1328896249284313  0.8287982742480439  1.0000
  N   N4        1.0  0.02973211632809839  0.867112127808326  0.17119306689104258  1.0000
  O   O1        1.0  0.2637669082305579  0.07465254466920608  0.0627079528776235  1.0000
  O   O2        1.0  0.7362319150247599  0.9253522184648019  0.93728423017361  1.0000
  O   O3        1.0  0.05419442649515101  0.1557909717630181  0.053667583882265994  1.0000
  O   O4        1.0  0.9458000789482314  0.8442097591119408  0.9463244361996956  1.0000
  O   O5        1.0  0.12320945281714306  0.6574953964351309  0.03631031999344  1.0000
  O   O6        1.0  0.8767837419652693  0.34250429885064193  0.9636839225747025  1.0000
  O   O7        1.0  0.3366162586504444  0.7884035345349502  0.102634126003025  1.0000
  O   O8        1.0  0.6633689702601159  0.21159911780156185  0.8973622043836968  1.0000
