data_image0
_chemical_formula_structural       Zn2H16C26N2Cl2O8
_chemical_formula_sum              "Zn2 H16 C26 N2 Cl2 O8"
_cell_length_a       7.6293125157626465
_cell_length_b       9.704691018094632
_cell_length_c       10.703464254687315
_cell_angle_alpha    114.85689033438845
_cell_angle_beta     95.11011539430238
_cell_angle_gamma    102.32895933789973

_space_group_name_H-M_alt    "P 1"
_space_group_IT_number       1

loop_
  _space_group_symop_operation_xyz
  'x, y, z'

loop_
  _atom_site_type_symbol
  _atom_site_label
  _atom_site_symmetry_multiplicity
  _atom_site_fract_x
  _atom_site_fract_y
  _atom_site_fract_z
  _atom_site_occupancy
  Zn  Zn1       1.0  0.3514187326477869  0.03236340887819721  0.4303718927621532  1.0000
  Zn  Zn2       1.0  0.6485818608143957  0.9676379100944458  0.5696277683443896  1.0000
  H   H1        1.0  0.9486350665602715  0.9210353833749921  0.32117770446154753  1.0000
  H   H2        1.0  0.05136305206772821  0.07896238963262901  0.6788223107202995  1.0000
  H   H3        1.0  0.720611975049195  0.9657608304109504  0.16895517187223422  1.0000
  H   H4        1.0  0.27938389374220673  0.034238127538465314  0.831047954550705  1.0000
  H   H5        1.0  0.16694916039327273  0.3064306426741795  0.14346742722013775  1.0000
  H   H6        1.0  0.833044087672782  0.6935683324961701  0.8565318002906254  1.0000
  H   H7        1.0  0.3770220587384969  0.24583064434905583  0.29589226755169323  1.0000
  H   H8        1.0  0.6229747536712581  0.7541671413820626  0.7041039314547748  1.0000
  H   H9        1.0  0.1172068624404474  0.3340022523828949  0.5932976537283992  1.0000
  H   H10       1.0  0.882790714541116  0.6659978914116282  0.4067022986284743  1.0000
  H   H11       1.0  0.6686064069774603  0.4290655694470758  0.4001570287923003  1.0000
  H   H12       1.0  0.3313943427369423  0.5709321966221952  0.5998422185034828  1.0000
  H   H13       1.0  0.20261878076660622  0.3670425563298353  0.8284557101550337  1.0000
  H   H14       1.0  0.7973878415123963  0.632961108886022  0.1715452351701359  1.0000
  H   H15       1.0  0.7702309445030124  0.39979750874869785  0.9412769875990252  1.0000
  H   H16       1.0  0.22977529030955424  0.6002049722941792  0.05872441445006167  1.0000
  C   C1        1.0  0.9916357840314662  0.003599493326170501  0.2780939503874294  1.0000
  C   C2        1.0  0.008360476370789502  0.9964006529092656  0.7219068525923051  1.0000
  C   C3        1.0  0.8652074198278471  0.028488922824493612  0.19375860939511116  1.0000
  C   C4        1.0  0.13479015093708577  0.9715112148004865  0.8062441430407008  1.0000
  C   C5        1.0  0.9281818176659514  0.13825271134452777  0.1442739306150997  1.0000
  C   C6        1.0  0.07180972428216144  0.8617450800372312  0.8557275376020855  1.0000
  C   C7        1.0  0.114032065641176  0.2197964012794245  0.18020858666101705  1.0000
  C   C8        1.0  0.8859628781817792  0.7802037473969321  0.8197930669415712  1.0000
  C   C9        1.0  0.23056608759764433  0.18695746070031302  0.26457947510277086  1.0000
  C   C10       1.0  0.7694288624419343  0.8130426941455939  0.7354193784208791  1.0000
  C   C11       1.0  0.7495291766900181  0.22572432882896012  0.4936925335292842  1.0000
  C   C12       1.0  0.2504706439115054  0.7742746238542184  0.5063071076654355  1.0000
  C   C13       1.0  0.8790761871926804  0.36732130724950446  0.49685130942862094  1.0000
  C   C14       1.0  0.12092363340884298  0.632677645433681  0.5031483317660987  1.0000
  C   C15       1.0  0.06613975086387569  0.4076675157505747  0.5536956403190274  1.0000
  C   C16       1.0  0.9338604572040837  0.5923326211055907  0.44630354415178186  1.0000
  C   C17       1.0  0.8141385775045439  0.46055376938849696  0.44340331476291794  1.0000
  C   C18       1.0  0.18585993066210446  0.539445189848628  0.5565953103353678  1.0000
  C   C19       1.0  0.4715150454123391  0.22693334559258466  0.7356894495940552  1.0000
  C   C20       1.0  0.528491193544653  0.7730691395633188  0.26431008573572984  1.0000
  C   C21       1.0  0.48509874228017225  0.3688522710469968  0.8714757274521717  1.0000
  C   C22       1.0  0.5149082695374718  0.6311525803983714  0.12852382778943655  1.0000
  C   C23       1.0  0.3323544665893864  0.4252711276934634  0.9040088747375707  1.0000
  C   C24       1.0  0.6676551721702353  0.574733712700521  0.09599177933726825  1.0000
  C   C25       1.0  0.6527259444888855  0.4449217480512645  0.9680317913010301  1.0000
  C   C26       1.0  0.3472829234822968  0.555080728109772  0.031967909502341754  1.0000
  N   N1        1.0  0.17114289860414544  0.08082633933743472  0.31253988953199763  1.0000
  N   N2        1.0  0.8288563803509422  0.9191749841326387  0.6874596888377554  1.0000
  Cl  Cl1       1.0  0.7778169753138613  0.17161905656392665  0.038187863683781124  1.0000
  Cl  Cl2       1.0  0.2221741791678156  0.828377550644845  0.9618140612573215  1.0000
  O   O1        1.0  0.5817219409981292  0.194473229604057  0.43895198406584524  1.0000
  O   O2        1.0  0.41827679009388424  0.8055304584833678  0.5610503315578727  1.0000
  O   O3        1.0  0.8159413213858148  0.1470171276867021  0.5457815178065603  1.0000
  O   O4        1.0  0.18405812003812372  0.8529806490495492  0.4542148466734874  1.0000
  O   O5        1.0  0.34613884209791473  0.19452031804587477  0.6324145368797289  1.0000
  O   O6        1.0  0.6538624409740806  0.8054750690104342  0.3675885066796099  1.0000
  O   O7        1.0  0.5866663258263216  0.14947278651024484  0.7354941209858056  1.0000
  O   O8        1.0  0.4133497292165559  0.8505355842999479  0.26450736058374263  1.0000
