data_image0
_chemical_formula_structural       K2Tb2H20C20O30
_chemical_formula_sum              "K2 Tb2 H20 C20 O30"
_cell_length_a       8.29606214303685
_cell_length_b       10.066984745775805
_cell_length_c       10.067071144344483
_cell_angle_alpha    105.65922946686244
_cell_angle_beta     89.99973541666077
_cell_angle_gamma    89.99986360046455

_space_group_name_H-M_alt    "P 1"
_space_group_IT_number       1

loop_
  _space_group_symop_operation_xyz
  'x, y, z'

loop_
  _atom_site_type_symbol
  _atom_site_label
  _atom_site_symmetry_multiplicity
  _atom_site_fract_x
  _atom_site_fract_y
  _atom_site_fract_z
  _atom_site_occupancy
  K   K1        1.0  0.5356595817925225  0.9897128642696275  0.9897085073174169  1.0000
  K   K2        1.0  0.03566386471534601  0.010291159088232901  0.0102902077369862  1.0000
  Tb  Tb1       1.0  0.6569826511182061  0.31546775700621765  0.31546916861548624  1.0000
  Tb  Tb2       1.0  0.15697759888983143  0.6845307721797982  0.6845316441752161  1.0000
  H   H1        1.0  0.357928034023658  0.2570635977335699  0.1602122645132837  1.0000
  H   H2        1.0  0.8579253000088728  0.7429384348655788  0.8397906633459656  1.0000
  H   H3        1.0  0.35792790053590556  0.16021227697828516  0.25706464630215464  1.0000
  H   H4        1.0  0.8579254334944084  0.8397907871601551  0.7429385463643428  1.0000
  H   H5        1.0  0.9993657185293118  0.21674484109353642  0.3141126594932686  1.0000
  H   H6        1.0  0.49936278681553153  0.7832598561780061  0.6858923964937277  1.0000
  H   H7        1.0  0.9993646473470508  0.31410785333979163  0.21674292401876025  1.0000
  H   H8        1.0  0.4993650634113467  0.6858916296584636  0.7832568196820517  1.0000
  H   H9        1.0  0.6124467747223223  0.2931032626644807  0.0007302944681555229  1.0000
  H   H10       1.0  0.11243506829432452  0.7069015293378342  0.9992673298249456  1.0000
  H   H11       1.0  0.6124439609863758  0.0007291298303541989  0.2931010998922686  1.0000
  H   H12       1.0  0.11243908741056433  0.999271635018928  0.706902444601546  1.0000
  H   H13       1.0  0.792406817883297  0.2651364972841962  0.027792156965524836  1.0000
  H   H14       1.0  0.2923975942498133  0.7348646312010487  0.972204829670531  1.0000
  H   H15       1.0  0.7924028745943661  0.027791420595619298  0.2651357925197786  1.0000
  H   H16       1.0  0.29240033213226724  0.9722077438190695  0.7348676439371148  1.0000
  H   H17       1.0  0.5043996623264065  0.47696352466925884  0.5745630472800585  1.0000
  H   H18       1.0  0.004398939130460601  0.5230365303910959  0.4254387427668078  1.0000
  H   H19       1.0  0.5043985914405839  0.5745648469683929  0.4769663935897769  1.0000
  H   H20       1.0  0.004397599226088302  0.42543626792260625  0.5230376553935443  1.0000
  C   C1        1.0  0.6229207224617852  0.5686822590618661  0.18118292283149634  1.0000
  C   C2        1.0  0.12291925674796292  0.43130805744006306  0.818810945230048  1.0000
  C   C3        1.0  0.6229189830112818  0.1811846617770456  0.5686780293271099  1.0000
  C   C4        1.0  0.12291376381457303  0.8188150234525509  0.43132420438723784  1.0000
  C   C5        1.0  0.794543035367717  0.5639353231466872  0.21050107762324902  1.0000
  C   C6        1.0  0.29454413157420595  0.4360637353222927  0.7894953693995462  1.0000
  C   C7        1.0  0.7945473698026434  0.21050964106615314  0.5639348790076255  1.0000
  C   C8        1.0  0.29454582409167784  0.7894884141412247  0.4360632973174248  1.0000
  C   C9        1.0  0.884681089442154  0.6416874907550039  0.1323614049004362  1.0000
  C   C10       1.0  0.3846940230418525  0.3583164757909714  0.8676389364327406  1.0000
  C   C11       1.0  0.8846948521427864  0.1323683721509639  0.6416901980519114  1.0000
  C   C12       1.0  0.38469954659077393  0.8676346193993749  0.3583138666761485  1.0000
  C   C13       1.0  0.7622568171055093  0.7122975232116886  0.06940813590696147  1.0000
  C   C14       1.0  0.26226477757888494  0.2876871982977961  0.9305847545531165  1.0000
  C   C15       1.0  0.7622571363759152  0.06942070356558361  0.7123132418058874  1.0000
  C   C16       1.0  0.2622584313064423  0.9305815965527556  0.2876871415767753  1.0000
  C   C17       1.0  0.5990263606140476  0.6639389130002301  0.09450324512215504  1.0000
  C   C18       1.0  0.09903793979885481  0.3360546745180386  0.905498508333622  1.0000
  C   C19       1.0  0.5990243704067596  0.09450329861918762  0.6639369948589007  1.0000
  C   C20       1.0  0.09902787608743323  0.9054974672624571  0.336063621090375  1.0000
  O   O1        1.0  0.5218583007313599  0.49612480973029705  0.22376807896703352  1.0000
  O   O2        1.0  0.021862893516775703  0.5038680528458529  0.7762377582674418  1.0000
  O   O3        1.0  0.5218687739212343  0.223758138953464  0.49611438990849877  1.0000
  O   O4        1.0  0.021869295829368703  0.7762407148189325  0.503879077265026  1.0000
  O   O5        1.0  0.8478224180318961  0.4915066056660181  0.28731983143632794  1.0000
  O   O6        1.0  0.34782253313976236  0.5085005749342031  0.712681476453497  1.0000
  O   O7        1.0  0.8478233420077784  0.28732123924411473  0.4915044740464579  1.0000
  O   O8        1.0  0.3478228145610985  0.712681829340724  0.5084967716733645  1.0000
  O   O9        1.0  0.03472365179815991  0.6455338830619867  0.11845792291038754  1.0000
  O   O10       1.0  0.5347326438181952  0.35447207910555534  0.8815323525615781  1.0000
  O   O11       1.0  0.034720514550343806  0.1184700805753565  0.6455369695540298  1.0000
  O   O12       1.0  0.5347273432954438  0.8815289012741446  0.3544684023373037  1.0000
  O   O13       1.0  0.7901074477321474  0.7979903512695117  0.0016230461505913137  1.0000
  O   O14       1.0  0.29012853190149474  0.20200971064572573  0.9983706951585988  1.0000
  O   O15       1.0  0.7901099662858544  0.0016338428957566994  0.7979959261891025  1.0000
  O   O16       1.0  0.2901139593962299  0.998370500777135  0.20200984205686012  1.0000
  O   O17       1.0  0.471282705570367  0.6978175688555838  0.04723855430349745  1.0000
  O   O18       1.0  0.9712974740119694  0.3021717604257006  0.9527636577239207  1.0000
  O   O19       1.0  0.4712926574521036  0.0472353056857244  0.6978127977137447  1.0000
  O   O20       1.0  0.9713007814311825  0.9527652573564678  0.30218435066810667  1.0000
  O   O21       1.0  0.3942859922759539  0.25312444795136463  0.25312589425193727  1.0000
  O   O22       1.0  0.8942837690958785  0.7468764353142703  0.7468765990318786  1.0000
  O   O23       1.0  0.9503547297565762  0.230330870577653  0.23033447952965252  1.0000
  O   O24       1.0  0.450353776953179  0.7696698593205227  0.7696697460718057  1.0000
  O   O25       1.0  0.6837105812385647  0.2555199027188167  0.06417775965157803  1.0000
  O   O26       1.0  0.1837039453141713  0.7444826094582241  0.9358199993233569  1.0000
  O   O27       1.0  0.6837079067558066  0.06417533511471873  0.2555155208261297  1.0000
  O   O28       1.0  0.18370541440395988  0.9358241248775839  0.7444844349152434  1.0000
  O   O29       1.0  0.5667872672020522  0.5004952586711581  0.5004954929399476  1.0000
  O   O30       1.0  0.06678860595244633  0.4995055975128223  0.4995042764779995  1.0000
