data_image0
_chemical_formula_structural       Cu12H24C36N52
_chemical_formula_sum              "Cu12 H24 C36 N52"
_cell_length_a       20.799897502193264
_cell_length_b       21.929343259547842
_cell_length_c       24.389481794371584
_cell_angle_alpha    85.61860643373781
_cell_angle_beta     89.42976610389967
_cell_angle_gamma    87.79300269586214

_space_group_name_H-M_alt    "P 1"
_space_group_IT_number       1

loop_
  _space_group_symop_operation_xyz
  'x, y, z'

loop_
  _atom_site_type_symbol
  _atom_site_label
  _atom_site_symmetry_multiplicity
  _atom_site_fract_x
  _atom_site_fract_y
  _atom_site_fract_z
  _atom_site_occupancy
  Cu  Cu1       1.0  0.09030000665065777  0.12573238159399838  0.16686217035952916  1.0000
  Cu  Cu2       1.0  0.11906317556041297  0.168777889284911  0.042062580132615296  1.0000
  Cu  Cu3       1.0  0.1612355140334287  0.036907711887188596  0.0861892527448234  1.0000
  Cu  Cu4       1.0  0.43207376643422163  0.891671023657139  0.6703602879319845  1.0000
  Cu  Cu5       1.0  0.41160238944624444  0.8805439529355329  0.5488115394992619  1.0000
  Cu  Cu6       1.0  0.2957208850488939  0.9345035740279428  0.618137344206005  1.0000
  Cu  Cu7       1.0  0.9410786444459234  0.6194415751564009  0.3299788559215884  1.0000
  Cu  Cu8       1.0  0.8874030753420284  0.6487967513696233  0.44448697245096713  1.0000
  Cu  Cu9       1.0  0.8234023434655882  0.5430280664463466  0.3858378453940148  1.0000
  Cu  Cu10      1.0  0.5862976089593203  0.37012946939882596  0.8327380350302532  1.0000
  Cu  Cu11      1.0  0.6087829995168121  0.33000643005130564  0.9591209932333555  1.0000
  Cu  Cu12      1.0  0.6417003240692479  0.4599131110266654  0.9151618369943436  1.0000
  H   H1        1.0  0.9895258485091175  0.23157650584556677  0.1985591463411183  1.0000
  H   H2        1.0  0.011978034661574101  0.2751613062220315  0.0228818144743883  1.0000
  H   H3        1.0  0.15886724843729638  0.9118242966376615  0.16160585564842475  1.0000
  H   H4        1.0  0.10422948383585147  0.0425903240703178  0.2803436173649203  1.0000
  H   H5        1.0  0.21522518776201593  0.18904902652176495  0.9385761599092319  1.0000
  H   H6        1.0  0.2588065728590577  0.9983015579786354  0.991537041928801  1.0000
  H   H7        1.0  0.5361746438252197  0.7782787190527928  0.6981443496798432  1.0000
  H   H8        1.0  0.5248392039501509  0.7854754097987852  0.5199143604298584  1.0000
  H   H9        1.0  0.23975307915971908  0.0164663728165877  0.7131050228589758  1.0000
  H   H10       1.0  0.43799464273343597  0.9823070656837557  0.7640812955994105  1.0000
  H   H11       1.0  0.35297565412670895  0.8974758981076646  0.42980530731293953  1.0000
  H   H12       1.0  0.1813064641704898  0.9219240544130332  0.5298454105365806  1.0000
  H   H13       1.0  0.0372067425243969  0.7324868623664786  0.3062855414441472  1.0000
  H   H14       1.0  0.9919286261834795  0.7412052450425506  0.47977715185637476  1.0000
  H   H15       1.0  0.8011758024690396  0.4521198134349901  0.29281967708000417  1.0000
  H   H16       1.0  0.9768478298217219  0.5360109531313312  0.23333061923675302  1.0000
  H   H17       1.0  0.7912118723040464  0.6638432638654947  0.5434206923499048  1.0000
  H   H18       1.0  0.7170639734570797  0.5019186546149542  0.4780564223257072  1.0000
  H   H19       1.0  0.4934901228203187  0.2655110123977167  0.8006490506238038  1.0000
  H   H20       1.0  0.4998620180735003  0.2325532313998266  0.9783523497216393  1.0000
  H   H21       1.0  0.635203645123397  0.5834971317917592  0.8386310639567397  1.0000
  H   H22       1.0  0.6072353513760191  0.4512788721409678  0.7180455040542242  1.0000
  H   H23       1.0  0.7101320721255887  0.30816964571647526  0.0597596641371752  1.0000
  H   H24       1.0  0.7267619210075864  0.5022189793033007  0.013355157085797497  1.0000
  C   C1        1.0  0.004199349561858396  0.23481926772617362  0.1556926719051148  1.0000
  C   C2        1.0  0.9798525831445772  0.2736835239992886  0.11132386496008449  1.0000
  C   C3        1.0  0.015341538517113  0.25645196340762066  0.0652830271714393  1.0000
  C   C4        1.0  0.14509506935978317  0.9519067414114558  0.18307503450020587  1.0000
  C   C5        1.0  0.1334543136870252  0.9567131966004753  0.23942413671040436  1.0000
  C   C6        1.0  0.118452501854847  0.019332553847163998  0.2442229597513759  1.0000
  C   C7        1.0  0.21770676297280286  0.14325859382933  0.9588134092893483  1.0000
  C   C8        1.0  0.2571687992777072  0.09198835510063222  0.9468548372722836  1.0000
  C   C9        1.0  0.23950398762713826  0.044994385057300704  0.9859329579020083  1.0000
  C   C10       1.0  0.5255604535496018  0.7886025873760545  0.6549135518065511  1.0000
  C   C11       1.0  0.5493384598244546  0.7598523101905242  0.6085089520603333  1.0000
  C   C12       1.0  0.5201825515766955  0.7930778463060334  0.5632171196988196  1.0000
  C   C13       1.0  0.2894584984233219  0.0006538389311927997  0.7187003374530079  1.0000
  C   C14       1.0  0.3351873829270176  0.017945907564090598  0.755887631351193  1.0000
  C   C15       1.0  0.391673102678844  0.9840088353237632  0.7438960673562535  1.0000
  C   C16       1.0  0.3182037684918412  0.904675980353531  0.4623477227794694  1.0000
  C   C17       1.0  0.2507011351216589  0.9078878282544377  0.45952167111070696  1.0000
  C   C18       1.0  0.2297421579714651  0.9156774229800605  0.5138775121790573  1.0000
  C   C19       1.0  0.017342660787584  0.7274044553744615  0.3475836484080546  1.0000
  C   C20       1.0  0.033221378997581  0.757337068913152  0.3944832435932568  1.0000
  C   C21       1.0  0.9950976160303568  0.7308244193612908  0.4370362131250899  1.0000
  C   C22       1.0  0.8425729157710007  0.48022492472225753  0.2852240453576513  1.0000
  C   C23       1.0  0.8905444352656816  0.4773418511093013  0.2441902085803704  1.0000
  C   C24       1.0  0.9334936033355347  0.5226487976308221  0.2554487043502291  1.0000
  C   C25       1.0  0.7806450060393572  0.6257516553404229  0.5195641443805883  1.0000
  C   C26       1.0  0.7339972121846472  0.5812139767763256  0.5291640136175104  1.0000
  C   C27       1.0  0.7432253177549198  0.5419150917929798  0.4866431226202436  1.0000
  C   C28       1.0  0.5042386768594013  0.2643204003446442  0.844142723057189  1.0000
  C   C29       1.0  0.4765852268157573  0.22951913065437418  0.888666580888426  1.0000
  C   C30       1.0  0.5067345587459188  0.24820197461878726  0.9354982215563225  1.0000
  C   C31       1.0  0.6277084644086273  0.543076432312013  0.81682692830595  1.0000
  C   C32       1.0  0.623237254097056  0.5378116651864672  0.7599466911872951  1.0000
  C   C33       1.0  0.614952183257124  0.47501455339898496  0.7546932950182637  1.0000
  C   C34       1.0  0.7066739291356966  0.3545660459966414  0.04091108549717859  1.0000
  C   C35       1.0  0.7383082220338436  0.40708614127864  0.05455042515317389  1.0000
  C   C36       1.0  0.7141350107669738  0.45455800936278473  0.017554105130607  1.0000
  N   N1        1.0  0.6370273335650651  0.6247857338723435  0.6362035524511354  1.0000
  N   N2        1.0  0.8603504892057998  0.3757529271374552  0.147861607805325  1.0000
  N   N3        1.0  0.37476973827385507  0.12294730433695379  0.84689176779532  1.0000
  N   N4        1.0  0.13360278793103936  0.8780636747432948  0.3673497785635291  1.0000
  N   N5        1.0  0.05817251404503308  0.2113017704340621  0.08098974945340838  1.0000
  N   N6        1.0  0.0507506643865696  0.1973677921418968  0.1369629286655467  1.0000
  N   N7        1.0  0.1210758299328347  0.04936571347903399  0.1941354070599672  1.0000
  N   N8        1.0  0.13869148460475597  0.007743810792412398  0.1563503160684974  1.0000
  N   N9        1.0  0.19360485033540437  0.06651317293081152  0.0190705150660051  1.0000
  N   N10       1.0  0.179834367946107  0.12737345236462974  0.001907705349935899  1.0000
  N   N11       1.0  0.48119809723191054  0.8376810178175091  0.5810539832879228  1.0000
  N   N12       1.0  0.4849472005688397  0.8351497948877761  0.6378430984796708  1.0000
  N   N13       1.0  0.38018015761787183  0.949086942807213  0.7023873082522057  1.0000
  N   N14       1.0  0.3172319004173687  0.9600940483882283  0.6859338772343051  1.0000
  N   N15       1.0  0.281411499209014  0.9166926300327347  0.5463690656626311  1.0000
  N   N16       1.0  0.3363007847419012  0.9086755352592277  0.5145487534556281  1.0000
  N   N17       1.0  0.9581382437027627  0.6890033508807675  0.41679028408901075  1.0000
  N   N18       1.0  0.9730092163467248  0.6858009213479122  0.3617659273487206  1.0000
  N   N19       1.0  0.9120738164456056  0.5513424353098911  0.2991798555168259  1.0000
  N   N20       1.0  0.8564796635412577  0.5240792957030179  0.3184176280411251  1.0000
  N   N21       1.0  0.7911502032104494  0.5623835401002353  0.45344299329396875  1.0000
  N   N22       1.0  0.8150448778214711  0.6135283061597434  0.4746266926025342  1.0000
  N   N23       1.0  0.5501097607001029  0.2901787438698804  0.9200246712124522  1.0000
  N   N24       1.0  0.5478416061193911  0.3008903756084607  0.8634749857768682  1.0000
  N   N25       1.0  0.6144097509432244  0.44542240419153234  0.8051225981987215  1.0000
  N   N26       1.0  0.6235503440409856  0.4874845855666976  0.8435237874879673  1.0000
  N   N27       1.0  0.6722110121151843  0.4319277118410625  0.9836222048938834  1.0000
  N   N28       1.0  0.6668474659521663  0.3701878479412812  0.998717086969087  1.0000
  N   N29       1.0  0.9146147104587286  0.33858132564497373  0.153562795592542  1.0000
  N   N30       1.0  0.9312550066130568  0.3186302243872348  0.10758986814512639  1.0000
  N   N31       1.0  0.5997072018365371  0.6755802127229417  0.6464645724364216  1.0000
  N   N32       1.0  0.5889458448505138  0.7087737116095455  0.6021835029716484  1.0000
  N   N33       1.0  0.08768287940510787  0.836755698235379  0.3599921572969862  1.0000
  N   N34       1.0  0.0785020089296324  0.8007141445725952  0.4023623823249451  1.0000
  N   N35       1.0  0.4249337571279668  0.16079891880514913  0.8456956002171269  1.0000
  N   N36       1.0  0.4290317384561532  0.18671700236069455  0.8904791884876389  1.0000
  N   N37       1.0  0.1451633054466441  0.923279540817511  0.32663110530515377  1.0000
  N   N38       1.0  0.1338797822352475  0.9074764401150119  0.2787929631902983  1.0000
  N   N39       1.0  0.6421072878131255  0.5752245624975316  0.6740558067452297  1.0000
  N   N40       1.0  0.6232487685522301  0.5878117427758481  0.7216344325063275  1.0000
  N   N41       1.0  0.3766134132423389  0.08625623725620099  0.8045345625723641  1.0000
  N   N42       1.0  0.325325865517101  0.0587273488793514  0.7966667147823613  1.0000
  N   N43       1.0  0.8475049046432943  0.4191136375232957  0.18440699054191612  1.0000
  N   N44       1.0  0.8995149154387788  0.43976055018993776  0.2014340768323066  1.0000
  N   N45       1.0  0.3231575609189433  0.1339878792063587  0.884014067924312  1.0000
  N   N46       1.0  0.30709066956750763  0.08466424584474198  0.9097730063918875  1.0000
  N   N47       1.0  0.6746146291284773  0.6270299969546116  0.5894357077420409  1.0000
  N   N48       1.0  0.688223408632055  0.5754951322361208  0.5711083417275447  1.0000
  N   N49       1.0  0.8171333959490426  0.3663763776697664  0.1076887826288839  1.0000
  N   N50       1.0  0.7857201787326175  0.41563759332462513  0.09242077560328  1.0000
  N   N51       1.0  0.1620483635969165  0.881777420145667  0.41783802105759077  1.0000
  N   N52       1.0  0.21864533448677997  0.9010107754281477  0.4110697343145162  1.0000
