data_image0
_chemical_formula_structural       Er2P8H54C40N4O32
_chemical_formula_sum              "Er2 P8 H54 C40 N4 O32"
_cell_length_a       7.877799829087279
_cell_length_b       12.491801143579343
_cell_length_c       15.3008
_cell_angle_alpha    110.57107373643197
_cell_angle_beta     90.29750621283469
_cell_angle_gamma    90.58520322229279

_space_group_name_H-M_alt    "P 1"
_space_group_IT_number       1

loop_
  _space_group_symop_operation_xyz
  'x, y, z'

loop_
  _atom_site_type_symbol
  _atom_site_label
  _atom_site_symmetry_multiplicity
  _atom_site_fract_x
  _atom_site_fract_y
  _atom_site_fract_z
  _atom_site_occupancy
  Er  Er1       1.0  0.7565613640726594  0.8856897909538475  0.5273890982906339  1.0000
  Er  Er2       1.0  0.24344171820728625  0.1143067727626104  0.4726116888208196  1.0000
  P   P1        1.0  0.8650819617767808  0.0119741889895906  0.3622760686456701  1.0000
  P   P2        1.0  0.13492362667044225  0.9880206644949183  0.637723581003037  1.0000
  P   P3        1.0  0.4680584080977965  0.3263815202268603  0.41563775371037087  1.0000
  P   P4        1.0  0.5319459435892141  0.6736150434895904  0.5843630367947057  1.0000
  P   P5        1.0  0.9842995440209421  0.627019774044264  0.4349745130787923  1.0000
  P   P6        1.0  0.015701032091719497  0.3729784999041428  0.565020875889431  1.0000
  P   P7        1.0  0.4384526700310829  0.852421503969623  0.35264826997145354  1.0000
  P   P8        1.0  0.5615529837098663  0.1475767699787838  0.6473530146166341  1.0000
  H   H1        1.0  0.8289332725185758  0.2654793054137699  0.3946530755367235  1.0000
  H   H2        1.0  0.17106990770195551  0.7345223889985348  0.6053498372035053  1.0000
  H   H3        1.0  0.3444215332667824  0.6594517576055239  0.4024008757552978  1.0000
  H   H4        1.0  0.6555816143068895  0.3405482265748319  0.597599585613743  1.0000
  H   H5        1.0  0.6431389355156439  0.0578639877560363  0.2679850769151741  1.0000
  H   H6        1.0  0.3568616732438841  0.9421359964243194  0.732017991909018  1.0000
  H   H7        1.0  0.6112019836800541  0.1237010768574223  0.388920444821153  1.0000
  H   H8        1.0  0.3888049884382666  0.8762997624389044  0.61108419343703  1.0000
  H   H9        1.0  0.5518735206926806  0.2386679991522769  0.2545071895338182  1.0000
  H   H10       1.0  0.4481308636411966  0.7613302747961299  0.7454940916606463  1.0000
  H   H11       1.0  0.6738744412964977  0.3661854586034679  0.3144945209961705  1.0000
  H   H12       1.0  0.3261274042232357  0.6338128153449389  0.685506099850457  1.0000
  H   H13       1.0  0.943700674019034  0.2972819236178594  0.27118460526481414  1.0000
  H   H14       1.0  0.0563012531178586  0.7027206259104163  0.7288192029870828  1.0000
  H   H15       1.0  0.007729249378321899  0.1623813928436562  0.27426446791146475  1.0000
  H   H16       1.0  0.9922764533329271  0.8376194464526705  0.7257368991501068  1.0000
  H   H17       1.0  0.8531356708871769  0.9794053710527849  0.15716203794666941  1.0000
  H   H18       1.0  0.1468586398072915  0.0205971784754908  0.8428424035041074  1.0000
  H   H19       1.0  0.7567323422878613  0.8919201659433611  0.9922728661419812  1.0000
  H   H20       1.0  0.24325690710175246  0.1080832387008925  0.007731807079011307  1.0000
  H   H21       1.0  0.7494972429177478  0.2228355268861648  0.9662112445144827  1.0000
  H   H22       1.0  0.2505008923213694  0.7771678777580889  0.03379279890125287  1.0000
  H   H23       1.0  0.8279618973985451  0.3137429061251567  0.13410201981272965  1.0000
  H   H24       1.0  0.17204255222905823  0.686258788287148  0.8659002427605175  1.0000
  H   H25       1.0  0.1547070497069214  0.8014762595624987  0.37840724260040304  1.0000
  H   H26       1.0  0.845298685651187  0.198526289965784  0.6215946151505565  1.0000
  H   H27       1.0  0.2005896878620774  0.7438174996403148  0.2572599271125213  1.0000
  H   H28       1.0  0.7994122392748153  0.2561850498879608  0.7427406133363875  1.0000
  H   H29       1.0  0.16020735224659427  0.49112388827585113  0.3256032343490817  1.0000
  H   H30       1.0  0.8397932891598001  0.5088778061364465  0.6743950966797172  1.0000
  H   H31       1.0  0.0486768013283552  0.5768176254188973  0.2718156896509356  1.0000
  H   H32       1.0  0.9513263952156095  0.4231849241093784  0.7281828935098034  1.0000
  H   H33       1.0  0.5219357055884403  0.6298083072368001  0.2684699202673499  1.0000
  H   H34       1.0  0.4780674256617985  0.3701908218275776  0.7315263743934041  1.0000
  H   H35       1.0  0.4520236601228901  0.5072795943802859  0.29325315384936357  1.0000
  H   H36       1.0  0.5479756302592733  0.4927178244521428  0.706745254183538  1.0000
  H   H37       1.0  0.282932272580048  0.3597840604190736  0.18726204222597434  1.0000
  H   H38       1.0  0.7170581645994788  0.6402150686453112  0.8127348720591813  1.0000
  H   H39       1.0  0.15721449452106379  0.2700362184413692  0.029075765322090802  1.0000
  H   H40       1.0  0.8427759589818891  0.7299637657389796  0.9709220478683634  1.0000
  H   H41       1.0  0.2725351306606001  0.5714799915066635  0.966360341655367  1.0000
  H   H42       1.0  0.7274553881360859  0.4285234131375902  0.033641067156253306  1.0000
  H   H43       1.0  0.394260059469559  0.6655872147218815  0.1271792265359153  1.0000
  H   H44       1.0  0.6057253490519799  0.3344144796904231  0.8728216780118389  1.0000
  H   H45       1.0  0.6837227942826087  0.0275219076362205  0.7533500025226162  1.0000
  H   H46       1.0  0.3162815900512754  0.972476366312179  0.24665062511125063  1.0000
  H   H47       1.0  0.08210662406950318  0.2035586474751554  0.8076345485747326  1.0000
  H   H48       1.0  0.9178965398276019  0.7964421918211713  0.19235896897242816  1.0000
  H   H49       1.0  0.3970425752204747  0.5060550683049385  0.4409974724266448  1.0000
  H   H50       1.0  0.6029566335445294  0.4939380749476214  0.5590010160039753  1.0000
  H   H51       1.0  0.8758931318595913  0.4683367577899133  0.44009248487833474  1.0000
  H   H52       1.0  0.124104938085793  0.5316632263904424  0.5599027344314393  1.0000
  H   H53       1.0  0.6772496859989515  0.8413144025780781  0.27338943037372593  1.0000
  H   H54       1.0  0.3227533962809943  0.1586821611383797  0.726608742495337  1.0000
  C   C1        1.0  0.7073186391369006  0.1046661952671712  0.3343705611810392  1.0000
  C   C2        1.0  0.2926870146040485  0.8953320786812357  0.6656326840888412  1.0000
  C   C3        1.0  0.62082179765342  0.2868358268745297  0.31929269748621897  1.0000
  C   C4        1.0  0.37917752537561  0.713163302189848  0.6807088154784607  1.0000
  C   C5        1.0  0.9025512642704001  0.20862264427557883  0.2572579241375621  1.0000
  C   C6        1.0  0.09745191595013838  0.7913790501367259  0.7427449886026666  1.0000
  C   C7        1.0  0.8431254494657523  0.153439445099302  0.1579511769974431  1.0000
  C   C8        1.0  0.15687520826407564  0.8465631044289736  0.842051974300233  1.0000
  C   C9        1.0  0.8247077180333449  0.0340789369279619  0.11703930707520982  1.0000
  C   C10       1.0  0.17529041720576538  0.9659244677162917  0.882964082779928  1.0000
  C   C11       1.0  0.7733695772144813  0.9841743528420395  0.024249336350358478  1.0000
  C   C12       1.0  0.22662221098927657  0.0158290518022071  0.9757566507790756  1.0000
  C   C13       1.0  0.7468147496737174  0.051654990665881  0.9693293288799155  1.0000
  C   C14       1.0  0.2531795446973177  0.9483467037464237  0.030676174347362906  1.0000
  C   C15       1.0  0.7673229142746434  0.170668321751613  0.009335472852853903  1.0000
  C   C16       1.0  0.2326739515573948  0.8293350828926336  0.9906685671692659  1.0000
  C   C17       1.0  0.8124262487168536  0.2209431552348065  0.1032346715754286  1.0000
  C   C18       1.0  0.1875744090129672  0.7790593942934692  0.8967678261616499  1.0000
  C   C19       1.0  0.7018334705401726  0.9940193030553671  0.8686343087747517  1.0000
  C   C20       1.0  0.29815828501671854  0.0059823913569375  0.1313705341046898  1.0000
  C   C21       1.0  0.251871093370525  0.7582424510125562  0.3273243762951665  1.0000
  C   C22       1.0  0.7481282296584979  0.2417566780518214  0.6726732153059274  1.0000
  C   C23       1.0  0.12334522990309438  0.5782473793281042  0.3331490731133187  1.0000
  C   C24       1.0  0.876652840042297  0.4217526048522515  0.6668494139994507  1.0000
  C   C25       1.0  0.4134036179870506  0.5733338829391741  0.265900848365746  1.0000
  C   C26       1.0  0.5865956887185461  0.42666439100923276  0.7340971514512518  1.0000
  C   C27       1.0  0.3414688693336316  0.5204013490075283  0.16906501869230087  1.0000
  C   C28       1.0  0.6585228535764002  0.4795986351728203  0.830933451452367  1.0000
  C   C29       1.0  0.2772053394551647  0.408028848579022  0.14008890799936322  1.0000
  C   C30       1.0  0.7227838609641495  0.5919719907173047  0.8599098007027592  1.0000
  C   C31       1.0  0.2084395921057123  0.3566551910687252  0.05108547259751365  1.0000
  C   C32       1.0  0.7915521634511862  0.6433465033435795  0.9489108739941514  1.0000
  C   C33       1.0  0.205340430989132  0.4160105010841235  0.9885291000486305  1.0000
  C   C34       1.0  0.7946563858726208  0.5839903382122102  0.011467668333416758  1.0000
  C   C35       1.0  0.271877925290724  0.5275424225097893  0.016574770519937956  1.0000
  C   C36       1.0  0.7281074995542481  0.4724601270184934  0.9834250722513148  1.0000
  C   C37       1.0  0.33927048989351505  0.5795976074516886  0.10615041207907441  1.0000
  C   C38       1.0  0.6607187268492325  0.42040408696061604  0.893848541967742  1.0000
  C   C39       1.0  0.1421929216396478  0.359042674869265  0.8907023161770269  1.0000
  C   C40       1.0  0.8578115279879553  0.6409590195430397  0.10929014298724844  1.0000
  N   N1        1.0  0.7676217870485758  0.21684800483338046  0.3303811415841055  1.0000
  N   N2        1.0  0.2323788380343856  0.7831528344629461  0.6696215190241831  1.0000
  N   N3        1.0  0.28486784642750956  0.6451165934105987  0.3369836162022183  1.0000
  N   N4        1.0  0.7151327460085923  0.354882535653779  0.6630159394742918  1.0000
  O   O1        1.0  0.6597203532913909  0.8925803154756053  0.8337686881932316  1.0000
  O   O2        1.0  0.34026380214650226  0.1074222340526774  0.16623703322978403  1.0000
  O   O3        1.0  0.7143118865976702  0.0655027387553986  0.8206875225317702  1.0000
  O   O4        1.0  0.28569249773621413  0.9344955351930082  0.1793144122232917  1.0000
  O   O5        1.0  0.08062701031634839  0.2534597952775286  0.8759177227336181  1.0000
  O   O6        1.0  0.9193698881625564  0.7465453195986669  0.12407569744771513  1.0000
  O   O7        1.0  0.1494349023429535  0.4035976375996598  0.8306079617246952  1.0000
  O   O8        1.0  0.8505859353125584  0.5963980710008272  0.169381517022579  1.0000
  O   O9        1.0  0.8445714874365748  0.8939142963956712  0.2850455160312535  1.0000
  O   O10       1.0  0.15542912132296036  0.10608568778467739  0.7149503636263647  1.0000
  O   O11       1.0  0.8154469574848733  0.008853015683016  0.4581233528657549  1.0000
  O   O12       1.0  0.1845611208061939  0.991139272453573  0.5418742604149145  1.0000
  O   O13       1.0  0.04043594454398659  0.0660465925151144  0.3647213119359663  1.0000
  O   O14       1.0  0.9595709133103085  0.9339482609693945  0.6352750733033687  1.0000
  O   O15       1.0  0.3641854933841556  0.42321057758861264  0.3967241201438654  1.0000
  O   O16       1.0  0.6358150174347869  0.5767842758958963  0.6032794372939493  1.0000
  O   O17       1.0  0.5626561892367477  0.3736112857251968  0.5086127563452152  1.0000
  O   O18       1.0  0.4373469256900577  0.6263869882232029  0.4913872143344307  1.0000
  O   O19       1.0  0.3527233330552093  0.22460903741708194  0.40234231690231337  1.0000
  O   O20       1.0  0.647286079936663  0.7753866711833979  0.5976588953931454  1.0000
  O   O21       1.0  0.8487922385491231  0.5255089567226534  0.40773427374068666  1.0000
  O   O22       1.0  0.15120967226434348  0.4744927376896513  0.5922620999999353  1.0000
  O   O23       1.0  0.07868434272553772  0.6312816720607017  0.5231857353250505  1.0000
  O   O24       1.0  0.9213099679689306  0.3687208774675739  0.47681151695914553  1.0000
  O   O25       1.0  0.9038023761081462  0.737593965578597  0.43743406050136  1.0000
  O   O26       1.0  0.09619564486694537  0.2624034532538317  0.56256107633493  1.0000
  O   O27       1.0  0.5532041041487119  0.8049189564754472  0.26403879895487853  1.0000
  O   O28       1.0  0.4468053251665864  0.1950776072410036  0.7359633122458719  1.0000
  O   O29       1.0  0.5216936382571404  0.843157177502917  0.43924058498891594  1.0000
  O   O30       1.0  0.4783094276993721  0.1568385310975628  0.5607606103384413  1.0000
  O   O31       1.0  0.3746019289093638  0.9708123106259876  0.3613401620631294  1.0000
  O   O32       1.0  0.6254075493762342  0.0291868184383901  0.6386607244899095  1.0000
