data_image0
_chemical_formula_structural       Zn20H164C152N52O52
_chemical_formula_sum              "Zn20 H164 C152 N52 O52"
_cell_length_a       15.331927741120639
_cell_length_b       19.30554344215505
_cell_length_c       25.373524907004686
_cell_angle_alpha    90.00006771094566
_cell_angle_beta     89.9999944438959
_cell_angle_gamma    89.99954547785246

_space_group_name_H-M_alt    "P 1"
_space_group_IT_number       1

loop_
  _space_group_symop_operation_xyz
  'x, y, z'

loop_
  _atom_site_type_symbol
  _atom_site_label
  _atom_site_symmetry_multiplicity
  _atom_site_fract_x
  _atom_site_fract_y
  _atom_site_fract_z
  _atom_site_occupancy
  Zn  Zn1       1.0  0.4600014338084862  0.6611339381406792  0.5163672392395569  1.0000
  Zn  Zn2       1.0  0.04000110379755029  0.33886576871243784  0.016365236541354  1.0000
  Zn  Zn3       1.0  0.9599989918762618  0.8388688513594714  0.48363160631739543  1.0000
  Zn  Zn4       1.0  0.5399997049272117  0.16113311145596035  0.9836316191697281  1.0000
  Zn  Zn5       1.0  0.4471384866483277  0.8410128848876465  0.5188671681758308  1.0000
  Zn  Zn6       1.0  0.05286405054739161  0.15898889789282578  0.018866977672146804  1.0000
  Zn  Zn7       1.0  0.9471378418171597  0.6589868777338381  0.4811316781361087  1.0000
  Zn  Zn8       1.0  0.55286020319123  0.341007311312566  0.9811318478393859  1.0000
  Zn  Zn9       1.0  0.3240311833136857  0.7414024442872672  0.44242958126032056  1.0000
  Zn  Zn10      1.0  0.17596802498647432  0.2585969052833689  0.942427306845886  1.0000
  Zn  Zn11      1.0  0.8240308357767036  0.7585991299393697  0.5575696664028699  1.0000
  Zn  Zn12      1.0  0.6759751037426583  0.241401636188101  0.057568752646588506  1.0000
  Zn  Zn13      1.0  0.0333066853520521  0.04354553265907409  0.7933186474084266  1.0000
  Zn  Zn14      1.0  0.466690590084646  0.9564556513426151  0.2933183430795836  1.0000
  Zn  Zn15      1.0  0.5333057221802946  0.4564487278147095  0.2066809674753216  1.0000
  Zn  Zn16      1.0  0.9666871488424108  0.5435470960180523  0.7066832608651128  1.0000
  Zn  Zn17      1.0  0.9800779567611004  0.9759378813801689  0.7005124507743831  1.0000
  Zn  Zn18      1.0  0.5199214375336966  0.02406829232248949  0.20051174987824544  1.0000
  Zn  Zn19      1.0  0.4800746278907937  0.5240658176037413  0.2994871818256328  1.0000
  Zn  Zn20      1.0  0.0199232987904736  0.4759358942076019  0.7994866834621067  1.0000
  H   H1        1.0  0.6230569353104799  0.5932860909434722  0.5394574139910517  1.0000
  H   H2        1.0  0.8769424847739631  0.4067136103800023  0.03945466270447891  1.0000
  H   H3        1.0  0.12305693322480951  0.9067146775712086  0.46054263371251386  1.0000
  H   H4        1.0  0.37693640207218243  0.0932852188596627  0.9605445378635624  1.0000
  H   H5        1.0  0.719136701551406  0.6184252268289467  0.5734854101380478  1.0000
  H   H6        1.0  0.7808640175711546  0.38157193876366324  0.07348185425016851  1.0000
  H   H7        1.0  0.2191343470915115  0.8815713104435757  0.4265142378025218  1.0000
  H   H8        1.0  0.2808583414217622  0.11842697782861931  0.9265177460790357  1.0000
  H   H9        1.0  0.7188242895139183  0.6179610567568191  0.5036043032983174  1.0000
  H   H10       1.0  0.781174484081305  0.3820365155147697  0.0036023242453211003  1.0000
  H   H11       1.0  0.21882583262853927  0.8820385903870753  0.49639495055029675  1.0000
  H   H12       1.0  0.28117010585613406  0.1179639530760852  0.9963984584010106  1.0000
  H   H13       1.0  0.7089141468826555  0.8998744189468152  0.5073721338024484  1.0000
  H   H14       1.0  0.7910878872653982  0.10012574924737547  0.0073718777163165015  1.0000
  H   H15       1.0  0.20891981090375822  0.6001252906264154  0.492631849967765  1.0000
  H   H16       1.0  0.2910839549876556  0.3998772468132897  0.9926296925713487  1.0000
  H   H17       1.0  0.7147823060537347  0.8962454465247942  0.5771003233924787  1.0000
  H   H18       1.0  0.7852177602283207  0.10375742267540738  0.0770992826091472  1.0000
  H   H19       1.0  0.21478337935085534  0.6037526721348171  0.4229060247015967  1.0000
  H   H20       1.0  0.28522104994152647  0.3962466463192483  0.9229026821355218  1.0000
  H   H21       1.0  0.6149786842361421  0.9217839972037679  0.5465216141077462  1.0000
  H   H22       1.0  0.8850239958918494  0.07821467939342598  0.0465229097467983  1.0000
  H   H23       1.0  0.11498131219166652  0.5782152682444274  0.4534819810743188  1.0000
  H   H24       1.0  0.3850276778541755  0.4217825449425448  0.9534790491261163  1.0000
  H   H25       1.0  0.5275954141838711  0.9750388625543777  0.4686168156977502  1.0000
  H   H26       1.0  0.9724019805535775  0.0249630763481363  0.9686170779250816  1.0000
  H   H27       1.0  0.027599213837305604  0.5249609534442427  0.5313848140648858  1.0000
  H   H28       1.0  0.47239940798034047  0.47503566942575753  0.031380934694922806  1.0000
  H   H29       1.0  0.5257009258234149  0.011720686872436699  0.40329988740709416  1.0000
  H   H30       1.0  0.9742932181867516  0.9882821839691686  0.9033013876837758  1.0000
  H   H31       1.0  0.025703348436906002  0.48827880137116586  0.5967013043724024  1.0000
  H   H32       1.0  0.47429330624098753  0.5117163715902392  0.09669706291929003  1.0000
  H   H33       1.0  0.5991201736885614  0.9439226638606327  0.418167364786335  1.0000
  H   H34       1.0  0.900876576909461  0.05607401482563289  0.9181708113734575  1.0000
  H   H35       1.0  0.09912039330421858  0.5560777374808975  0.5818334725477357  1.0000
  H   H36       1.0  0.40087756819320935  0.44392259165164905  0.08182799367446592  1.0000
  H   H37       1.0  0.27088824600869543  0.7911182981251057  0.3347311271539297  1.0000
  H   H38       1.0  0.22910641391104042  0.20887466407836539  0.8347335353904344  1.0000
  H   H39       1.0  0.7708838122106699  0.7088789490661468  0.6652677295207924  1.0000
  H   H40       1.0  0.7291077609423979  0.2911219886605991  0.16526764442730985  1.0000
  H   H41       1.0  0.3542533965326626  0.8119363706072845  0.2874302560618887  1.0000
  H   H42       1.0  0.1457497499696672  0.18806066011025988  0.7874318627381955  1.0000
  H   H43       1.0  0.8542491630995883  0.688062423286496  0.7125674133767675  1.0000
  H   H44       1.0  0.6457437069534252  0.3119391077659656  0.21256695731314326  1.0000
  H   H45       1.0  0.2781217490257575  0.8758711114737918  0.3061056576558556  1.0000
  H   H46       1.0  0.22188009004045034  0.12412232309419115  0.8061068097234884  1.0000
  H   H47       1.0  0.778122070584203  0.6241271260989407  0.6938920162590777  1.0000
  H   H48       1.0  0.7218766725616065  0.3758738572005739  0.19389121762647224  1.0000
  H   H49       1.0  0.6139448134939585  0.5481326705559508  0.41764302255523233  1.0000
  H   H50       1.0  0.8860525893987303  0.45186866916265683  0.917641693352323  1.0000
  H   H51       1.0  0.11394629762905592  0.9518666014078364  0.582358208018178  1.0000
  H   H52       1.0  0.386054924924025  0.048139426400346984  0.0823586890185837  1.0000
  H   H53       1.0  0.5404808199904352  0.4782120483179779  0.41257235449058544  1.0000
  H   H54       1.0  0.9595204971101483  0.5217903192843493  0.9125726586782152  1.0000
  H   H55       1.0  0.040478772272010105  0.021787864803165698  0.5874260776390869  1.0000
  H   H56       1.0  0.45952244949382504  0.9782135092042666  0.0874265810189314  1.0000
  H   H57       1.0  0.5496346851144125  0.5242641259813751  0.47387800716546746  1.0000
  H   H58       1.0  0.95036988336026  0.47573626731946195  0.9738759068706033  1.0000
  H   H59       1.0  0.0496307219780476  0.975732961253307  0.5261224389655156  1.0000
  H   H60       1.0  0.45037181404954657  0.02427038704186659  0.026122107048259104  1.0000
  H   H61       1.0  0.2662214388680583  0.6755054072717  0.33664015313696183  1.0000
  H   H62       1.0  0.23378235197959904  0.32449532773084394  0.8366399036198543  1.0000
  H   H63       1.0  0.7662249818672534  0.8244923872850051  0.6633606743700826  1.0000
  H   H64       1.0  0.7337842019110283  0.17550647540591768  0.16336206414834462  1.0000
  H   H65       1.0  0.30021102820206386  0.5986392678627934  0.3024028572553519  1.0000
  H   H66       1.0  0.19979276812659214  0.40136037663035035  0.8024018888625051  1.0000
  H   H67       1.0  0.8002124935173712  0.9013541686641415  0.6975999388090985  1.0000
  H   H68       1.0  0.6997895102350213  0.09864060469973879  0.19759850445780103  1.0000
  H   H69       1.0  0.35733457179567557  0.6766058049149561  0.29213785951094456  1.0000
  H   H70       1.0  0.1426705306423131  0.3233938232209112  0.7921344614941007  1.0000
  H   H71       1.0  0.8573368142120188  0.8233898616327763  0.7078633567492006  1.0000
  H   H72       1.0  0.6426691012801202  0.1766090719578627  0.20786554107428407  1.0000
  H   H73       1.0  0.7834822193558325  0.08057093104555689  0.8622854093525163  1.0000
  H   H74       1.0  0.7165191057975377  0.9194292845127376  0.3622886342967889  1.0000
  H   H75       1.0  0.2834808374336078  0.41942900500477254  0.1377086732609314  1.0000
  H   H76       1.0  0.21651646288790977  0.5805724491118268  0.6377106196883988  1.0000
  H   H77       1.0  0.6941282478844997  0.9791839806485635  0.7213136698141724  1.0000
  H   H78       1.0  0.8058711431947785  0.020799952792358994  0.2213117669151003  1.0000
  H   H79       1.0  0.19412625933096453  0.5207997645394044  0.27868597959131597  1.0000
  H   H80       1.0  0.3058775407907958  0.47919984217553924  0.7786858613857819  1.0000
  H   H81       1.0  0.50945556357415  0.04022844311163709  0.8415488248238887  1.0000
  H   H82       1.0  0.990545764955492  0.9597598257360858  0.34154891610476323  1.0000
  H   H83       1.0  0.009455079895524  0.45976234172796626  0.1584452738986855  1.0000
  H   H84       1.0  0.4905480871971548  0.5402422533185315  0.6584487453209462  1.0000
  H   H85       1.0  0.2463994463042667  0.9235101233561805  0.6367621424750213  1.0000
  H   H86       1.0  0.25359133179837556  0.07649806308643285  0.1367591091065137  1.0000
  H   H87       1.0  0.7463944264383714  0.5764950479219378  0.3632430214284527  1.0000
  H   H88       1.0  0.7535925494518524  0.4234989533714355  0.8632408869369073  1.0000
  H   H89       1.0  0.2779246464934176  0.11117347022727131  0.7259114015881636  1.0000
  H   H90       1.0  0.22207850977519428  0.8888379661059105  0.22591735817796635  1.0000
  H   H91       1.0  0.7779171733741492  0.38883789654911277  0.274083863692006  1.0000
  H   H92       1.0  0.7220809046778172  0.6111699483178368  0.7740952952766168  1.0000
  H   H93       1.0  0.4748754093245041  0.04945318162098998  0.6130740704131697  1.0000
  H   H94       1.0  0.025125808396559503  0.9505368375473533  0.11307023986375951  1.0000
  H   H95       1.0  0.9748659972735326  0.45054554859256507  0.38692630673106987  1.0000
  H   H96       1.0  0.5251170613980207  0.5494541882857789  0.8869266607016402  1.0000
  H   H97       1.0  0.0029565186503362  0.26067234254523436  0.7422568588502401  1.0000
  H   H98       1.0  0.4970446783785151  0.7393240982333608  0.24225596837889907  1.0000
  H   H99       1.0  0.5029583682040198  0.23933609476500808  0.25774866949797837  1.0000
  H   H100      1.0  0.9970481915104161  0.7606696520969434  0.7577424808841474  1.0000
  H   H101      1.0  0.9583622425921164  0.37368287208320067  0.5986765139884015  1.0000
  H   H102      1.0  0.5416319501670942  0.6263138156707554  0.09867239838467162  1.0000
  H   H103      1.0  0.45836439843674276  0.1263169981099566  0.4013281993543814  1.0000
  H   H104      1.0  0.0416569923647359  0.8736859118219726  0.9013264717708652  1.0000
  H   H105      1.0  0.9763291362492553  0.15020037100169495  0.5960449325317613  1.0000
  H   H106      1.0  0.5236683180780163  0.8498004564440363  0.09604889603071601  1.0000
  H   H107      1.0  0.47633362507453114  0.3498040478564022  0.40395820331014687  1.0000
  H   H108      1.0  0.023667546072019305  0.6501967943834258  0.9039547045197481  1.0000
  H   H109      1.0  0.5305982893323745  0.9729437920319125  0.709748467563081  1.0000
  H   H110      1.0  0.9693893633902207  0.027040123020832096  0.20974301351190416  1.0000
  H   H111      1.0  0.030609281266492903  0.5270415014183031  0.29025316201640555  1.0000
  H   H112      1.0  0.469394517010528  0.4729570877493073  0.7902518463917048  1.0000
  H   H113      1.0  0.4629746123141061  0.9894833370675257  0.7612915716092988  1.0000
  H   H114      1.0  0.03702853843137891  0.010501220345332699  0.2612861284905392  1.0000
  H   H115      1.0  0.9629728803543003  0.5105028581520799  0.23871239721608364  1.0000
  H   H116      1.0  0.5370330302249187  0.489491980688399  0.7387115156158401  1.0000
  H   H117      1.0  0.4147890567551755  0.17338573215680944  0.716090164236917  1.0000
  H   H118      1.0  0.08521671007891742  0.8266137748431389  0.2160909509090061  1.0000
  H   H119      1.0  0.914784812425225  0.3266195924414673  0.2839070635505792  1.0000
  H   H120      1.0  0.58521717746315  0.6733872320878688  0.783917375362897  1.0000
  H   H121      1.0  0.49357314483434317  0.14865887336863887  0.673484324583221  1.0000
  H   H122      1.0  0.006435890008646099  0.8513353858912467  0.17348119643513374  1.0000
  H   H123      1.0  0.9935647333213142  0.35134388292598817  0.3265176279096238  1.0000
  H   H124      1.0  0.5064365974983432  0.6486671533614298  0.8265200404614178  1.0000
  H   H125      1.0  0.9375026328297765  0.21863932313300433  0.5181432922388609  1.0000
  H   H126      1.0  0.5624902683107322  0.7813634521779278  0.018144040597661604  1.0000
  H   H127      1.0  0.43749866152293754  0.2813632684335445  0.48186023999712563  1.0000
  H   H128      1.0  0.0624881480357047  0.7186351080134796  0.9818575871127281  1.0000
  H   H129      1.0  0.9315473029131242  0.30596555586178187  0.5192740367950961  1.0000
  H   H130      1.0  0.5684488592073295  0.6940387751974909  0.019274314178446206  1.0000
  H   H131      1.0  0.43154355179460424  0.19403707322388186  0.4807275252331848  1.0000
  H   H132      1.0  0.06844847581970731  0.8059602654333985  0.9807284955164662  1.0000
  H   H133      1.0  0.33860406910105223  0.7341843428430933  0.5409779665578754  1.0000
  H   H134      1.0  0.1613991167974831  0.2658164391815419  0.0409747103810929  1.0000
  H   H135      1.0  0.8386075786462684  0.7658140316397348  0.45902128024689404  1.0000
  H   H136      1.0  0.6613917743761563  0.23417805023852614  0.9590209558551237  1.0000
  H   H137      1.0  0.8634721581649174  0.6134466609020918  0.23902064049641336  1.0000
  H   H138      1.0  0.6365396224419584  0.3865533582752078  0.7390259686345502  1.0000
  H   H139      1.0  0.3634631781190762  0.8865562188094102  0.7609742696210308  1.0000
  H   H140      1.0  0.1365386681445742  0.11344128775562715  0.2609752166254466  1.0000
  H   H141      1.0  0.7561348718368707  0.5812008120626613  0.22838552852989125  1.0000
  H   H142      1.0  0.7438762582348418  0.4187997081599803  0.7283885139406509  1.0000
  H   H143      1.0  0.25612556799227093  0.9188053338564826  0.7716113584584863  1.0000
  H   H144      1.0  0.24388149439826634  0.08120047741195438  0.2716134532332006  1.0000
  H   H145      1.0  0.7932276979234986  0.6532426676818941  0.19126103635521474  1.0000
  H   H146      1.0  0.7067801769196863  0.3467572754302849  0.6912655372709794  1.0000
  H   H147      1.0  0.29322041219949574  0.8467606545973889  0.8087338778928556  1.0000
  H   H148      1.0  0.20677164289408267  0.15324210793653484  0.30873722030739265  1.0000
  H   H149      1.0  0.725814180716398  0.5125739219075881  0.1468824363179522  1.0000
  H   H150      1.0  0.7741858743944263  0.4874311303953504  0.6468842977434975  1.0000
  H   H151      1.0  0.22581591857364464  0.9874329329995105  0.853117211234377  1.0000
  H   H152      1.0  0.2741911307943  0.012570418169175899  0.35311727353712297  1.0000
  H   H153      1.0  0.8105563338722706  0.5059164613385009  0.09872514868445853  1.0000
  H   H154      1.0  0.6894398155795685  0.49408022649372885  0.5987297797036677  1.0000
  H   H155      1.0  0.31056060649987677  0.9940836438111446  0.9012709468776524  1.0000
  H   H156      1.0  0.18944839188584695  0.005916158153809199  0.40127022011146357  1.0000
  H   H157      1.0  0.7563866156750123  0.5867737277283992  0.11007086987515183  1.0000
  H   H158      1.0  0.743614749816544  0.4132260860737914  0.6100730621946013  1.0000
  H   H159      1.0  0.256387132085827  0.9132308626168355  0.8899271994321936  1.0000
  H   H160      1.0  0.24361665023930362  0.08676995726752777  0.38992732854659107  1.0000
  H   H161      1.0  0.9015673796967932  0.5732424759915132  0.153074738879603  1.0000
  H   H162      1.0  0.5984333266957834  0.4267548163878414  0.6530812868181216  1.0000
  H   H163      1.0  0.4015671156329574  0.9267549838156626  0.8469205631067425  1.0000
  H   H164      1.0  0.09843602137815571  0.07323747979003059  0.3469206889046036  1.0000
  C   C1        1.0  0.6788168696388581  0.6287695052920554  0.5386983689930105  1.0000
  C   C2        1.0  0.8211838550395996  0.37122915884601326  0.03869519578295671  1.0000
  C   C3        1.0  0.17881656962683934  0.8712293579519537  0.4613016754309669  1.0000
  C   C4        1.0  0.32117872224973354  0.12877053968311708  0.9613051903988679  1.0000
  C   C5        1.0  0.6477701816826524  0.7015999795434239  0.5384639054221269  1.0000
  C   C6        1.0  0.8522324997267249  0.2984002381721281  0.0384598783507002  1.0000
  C   C7        1.0  0.1477699568513984  0.7983990793109609  0.46153850549700354  1.0000
  C   C8        1.0  0.35222729169887407  0.20159874675024267  0.9615405060051148  1.0000
  C   C9        1.0  0.6433070369301676  0.8140402389561243  0.5411490370096814  1.0000
  C   C10       1.0  0.8566949918132566  0.18596050102671308  0.0411476699382192  1.0000
  C   C11       1.0  0.14330793561075691  0.6859598839874436  0.4588545565070633  1.0000
  C   C12       1.0  0.3566899656000687  0.31403845578054757  0.9588542906014937  1.0000
  C   C13       1.0  0.6715562161881153  0.8874667301056716  0.5432764826575679  1.0000
  C   C14       1.0  0.8284471166901356  0.1125324593049655  0.043276235245748806  1.0000
  C   C15       1.0  0.17155719638488162  0.6125326968701612  0.4567290797556751  1.0000
  C   C16       1.0  0.3284472274875441  0.38746874740569126  0.9567269092905523  1.0000
  C   C17       1.0  0.5334231804938979  0.9640668324183465  0.42634243205400685  1.0000
  C   C18       1.0  0.9665742210046703  0.03593503914548529  0.9263434924607239  1.0000
  C   C19       1.0  0.0334249070935897  0.5359329468688259  0.5736588032544105  1.0000
  C   C20       1.0  0.46657240349556867  0.464063743343651  0.07365452050195391  1.0000
  C   C21       1.0  0.4664364272108302  0.9128822502248607  0.4101463962055406  1.0000
  C   C22       1.0  0.0335582206139122  0.08711756592331449  0.9101459504742807  1.0000
  C   C23       1.0  0.9664371350746067  0.587118426778133  0.5898524489720104  1.0000
  C   C24       1.0  0.533559015783851  0.4128808368454314  0.0898509056153785  1.0000
  C   C25       1.0  0.3735925593145382  0.8545075629172343  0.3640865529667678  1.0000
  C   C26       1.0  0.1264040525932444  0.14548907194186  0.8640885175914407  1.0000
  C   C27       1.0  0.8735874588986476  0.6454890371893994  0.6359107212222032  1.0000
  C   C28       1.0  0.626408032354675  0.35451133577382876  0.13590793892795722  1.0000
  C   C29       1.0  0.3156012752329431  0.8313946606349983  0.3207764406473573  1.0000
  C   C30       1.0  0.18439795255983432  0.1685972433526786  0.8207776338880138  1.0000
  C   C31       1.0  0.8155985459595527  0.6686033408090208  0.6792216251752876  1.0000
  C   C32       1.0  0.6843949816552026  0.33139917309608075  0.17922078977761666  1.0000
  C   C33       1.0  0.5499620852257082  0.5291999786467584  0.43082171327719015  1.0000
  C   C34       1.0  0.9500379244941116  0.4708013820554837  0.9308196086773962  1.0000
  C   C35       1.0  0.049962077898690914  0.9707986604708052  0.5691791269466862  1.0000
  C   C36       1.0  0.4500384945466323  0.029203720444442593  0.0691791934835067  1.0000
  C   C37       1.0  0.4798897724705285  0.5769626327376896  0.4133834811664344  1.0000
  C   C38       1.0  0.020110092703625095  0.4230377065353536  0.9133817541090395  1.0000
  C   C39       1.0  0.9798903867575605  0.9230369235344678  0.5866193043353577  1.0000
  C   C40       1.0  0.5201135914043392  0.07696596081565589  0.0866174674431051  1.0000
  C   C41       1.0  0.38160899231570516  0.6276048357159709  0.3660664699059026  1.0000
  C   C42       1.0  0.11839022819245323  0.3723954281869907  0.8660642985857268  1.0000
  C   C43       1.0  0.8816127138100853  0.872392749830588  0.6339347449276646  1.0000
  C   C44       1.0  0.6183938657421991  0.1276055480100239  0.13393649363253962  1.0000
  C   C45       1.0  0.3224578288883535  0.6461167683788814  0.3220252988746637  1.0000
  C   C46       1.0  0.17754596430465602  0.3538823893841466  0.8220231078557492  1.0000
  C   C47       1.0  0.8224617282532376  0.8538785999178838  0.6779763135476815  1.0000
  C   C48       1.0  0.677546800956307  0.14611976807118046  0.17797846910783485  1.0000
  C   C49       1.0  0.6264601193096482  0.09932358879820667  0.9077643221099123  1.0000
  C   C50       1.0  0.8735451119384834  0.9006834330100161  0.40776909783937754  1.0000
  C   C51       1.0  0.126462193116275  0.40068044446834244  0.09222779918045634  1.0000
  C   C52       1.0  0.373540332351496  0.5993204191985978  0.5922293586902897  1.0000
  C   C53       1.0  0.6446224020923879  0.06347575634274702  0.8568931713035255  1.0000
  C   C54       1.0  0.8553802284062257  0.936521342707401  0.3568975853945845  1.0000
  C   C55       1.0  0.14462541421083597  0.4365203927018157  0.1431001312501294  1.0000
  C   C56       1.0  0.355376450889331  0.5634800340181908  0.6431040250947363  1.0000
  C   C57       1.0  0.7305757388563806  0.0592145189113964  0.8388830559110403  1.0000
  C   C58       1.0  0.7694275467668064  0.9407804795038214  0.338886690565829  1.0000
  C   C59       1.0  0.2305747921219208  0.44078316054483224  0.16111260625869767  1.0000
  C   C60       1.0  0.26942511335759894  0.5592250646617173  0.6611153190909962  1.0000
  C   C61       1.0  0.747920096553031  0.028140967196570377  0.7902555844471877  1.0000
  C   C62       1.0  0.7520851535693468  0.9718498098645298  0.2902576708999192  1.0000
  C   C63       1.0  0.24791296159229154  0.47185142314531675  0.2097440178163482  1.0000
  C   C64       1.0  0.2520830227462625  0.5281491097465434  0.7097423692158529  1.0000
  C   C65       1.0  0.8411125852293609  0.021866813677703992  0.7723294137266379  1.0000
  C   C66       1.0  0.6588926677522906  0.9781254887864318  0.27233151115723336  1.0000
  C   C67       1.0  0.3411073414376631  0.47812498950110427  0.22766939483357623  1.0000
  C   C68       1.0  0.15889451014749773  0.5218734999836058  0.7276697167730434  1.0000
  C   C69       1.0  0.6793143738532523  0.0022915886781759995  0.7595369421214287  1.0000
  C   C70       1.0  0.820690228977071  0.9976934416057543  0.25953668251700185  1.0000
  C   C71       1.0  0.17930697579405572  0.4976996799528448  0.2404599053946725  1.0000
  C   C72       1.0  0.3206896558134957  0.5023112615874151  0.7404633535671794  1.0000
  C   C73       1.0  0.5924720482453978  0.005411187991633399  0.7776546495013436  1.0000
  C   C74       1.0  0.9075312472174276  0.9945743891406593  0.27765241149947434  1.0000
  C   C75       1.0  0.0924666409700663  0.49457492993529645  0.222342203118906  1.0000
  C   C76       1.0  0.40753129806725513  0.5054230330922421  0.7223452548056387  1.0000
  C   C77       1.0  0.576136696396013  0.03641377290498579  0.8268476710222288  1.0000
  C   C78       1.0  0.92386724342213  0.9635739545322151  0.3268493460124305  1.0000
  C   C79       1.0  0.07613291111059789  0.4635740018937894  0.1731476061129129  1.0000
  C   C80       1.0  0.4238669925037187  0.5364223288056209  0.6731487134431902  1.0000
  C   C81       1.0  0.39856292271882415  0.9318947566782467  0.581934520951819  1.0000
  C   C82       1.0  0.1014298209237339  0.0680993568017811  0.08193070095484961  1.0000
  C   C83       1.0  0.8985592823105364  0.5681084199181257  0.4180655105527507  1.0000
  C   C84       1.0  0.6014257280585157  0.43189602843000335  0.91806654525427  1.0000
  C   C85       1.0  0.36428974555953897  0.9818774311053173  0.6214836409441489  1.0000
  C   C86       1.0  0.135710818551722  0.018118817292616995  0.12148056336146602  1.0000
  C   C87       1.0  0.8642826973152182  0.5181259614392388  0.3785167866875128  1.0000
  C   C88       1.0  0.6357068850305225  0.4818753159813268  0.8785178631660671  1.0000
  C   C89       1.0  0.2841120203774565  0.9695822712379892  0.6462551271859455  1.0000
  C   C90       1.0  0.2158872352707348  0.030420750441884085  0.1462544203340599  1.0000
  C   C91       1.0  0.7841028965831358  0.5304216264723534  0.3537476698300495  1.0000
  C   C92       1.0  0.7158847330517091  0.4695739136512457  0.8537451838139135  1.0000
  C   C93       1.0  0.2538935715996828  0.01655509354736749  0.6840992750610368  1.0000
  C   C94       1.0  0.24610698244239876  0.9834521323001579  0.18410097791219474  1.0000
  C   C95       1.0  0.7538884078938751  0.4834543526885183  0.3159003268586673  1.0000
  C   C96       1.0  0.7461050978531034  0.5165499328935537  0.815902215449114  1.0000
  C   C97       1.0  0.1671556745218155  0.0052954096548702995  0.7106556932967152  1.0000
  C   C98       1.0  0.3328422663071606  0.9947180743334979  0.21065661269283006  1.0000
  C   C99       1.0  0.6671471414135652  0.4947171730127308  0.2893462783942553  1.0000
  C   C100      1.0  0.8328463685521187  0.5052927681142022  0.7893453932372481  1.0000
  C   C101      1.0  0.3031754042066551  0.07517179073735748  0.6965343078747779  1.0000
  C   C102      1.0  0.19682514785167635  0.9248344189474194  0.19653753871035926  1.0000
  C   C103      1.0  0.8031675668120358  0.42483579104916885  0.3034637147000155  1.0000
  C   C104      1.0  0.6968246364666513  0.5751664027857186  0.8034692045524282  1.0000
  C   C105      1.0  0.38305179146559  0.08866660659687398  0.671278064923584  1.0000
  C   C106      1.0  0.11695006912299281  0.9113349009775215  0.17127892396042205  1.0000
  C   C107      1.0  0.8830447370764888  0.4113368460268274  0.3287199529525325  1.0000
  C   C108      1.0  0.616946157697882  0.5886648700584373  0.8287270357756145  1.0000
  C   C109      1.0  0.4133274167320735  0.0409610125025708  0.6336908334933186  1.0000
  C   C110      1.0  0.08667249319056938  0.9590357733280326  0.13368740088012743  1.0000
  C   C111      1.0  0.9133205320758722  0.4590406954136837  0.3663091531596835  1.0000
  C   C112      1.0  0.5866697044582169  0.5409600445770337  0.8663150136302917  1.0000
  C   C113      1.0  0.9995233078346504  0.13074275679014136  0.699723462655122  1.0000
  C   C114      1.0  0.5004669553504969  0.8692561638835482  0.1997254740079555  1.0000
  C   C115      1.0  0.49952892336843047  0.36925996197084726  0.3002777012642497  1.0000
  C   C116      1.0  0.00047422105080840006  0.6307427870555812  0.80027773379571  1.0000
  C   C117      1.0  0.9907641235182398  0.19885739462019095  0.6715598851103196  1.0000
  C   C118      1.0  0.5092313620513025  0.8011394092305648  0.17156104804256964  1.0000
  C   C119      1.0  0.4907684581858406  0.30114745127774967  0.32844403810614153  1.0000
  C   C120      1.0  0.009235986178175901  0.6988589685098103  0.8284405827992458  1.0000
  C   C121      1.0  0.9938299606078189  0.261188727104205  0.6997546547850109  1.0000
  C   C122      1.0  0.5061674771717577  0.7388044957489794  0.19975379272398902  1.0000
  C   C123      1.0  0.4938329656809159  0.2388135095523509  0.30024966236164374  1.0000
  C   C124      1.0  0.006182571157658901  0.7611944192460667  0.8002450795168485  1.0000
  C   C125      1.0  0.9822166282722977  0.32394118466253013  0.6730374644748454  1.0000
  C   C126      1.0  0.5177782048326308  0.6760545855697797  0.17303575852596256  1.0000
  C   C127      1.0  0.4822209080942273  0.1760616431444575  0.3269656710201759  1.0000
  C   C128      1.0  0.017790058848078202  0.82394373829932  0.826966660036206  1.0000
  C   C129      1.0  0.9843230027270308  0.39163367544615096  0.7022793909954146  1.0000
  C   C130      1.0  0.5156790002693157  0.6083626593282857  0.20227644352428342  1.0000
  C   C131      1.0  0.4843214410194392  0.10836965709339094  0.2977229561529811  1.0000
  C   C132      1.0  0.0156908350591749  0.8916372317259156  0.7977275516083325  1.0000
  C   C133      1.0  0.968377536537716  0.32421934329617125  0.6185326216651461  1.0000
  C   C134      1.0  0.5316218709151884  0.6757773760725881  0.11853130877064902  1.0000
  C   C135      1.0  0.46837789703401705  0.17578046380032217  0.3814705146424303  1.0000
  C   C136      1.0  0.0316369746062648  0.8242224145218556  0.8814703207548791  1.0000
  C   C137      1.0  0.9674171084987435  0.26216719807553085  0.5896800798232676  1.0000
  C   C138      1.0  0.5325836080359637  0.7378294753312032  0.08968079179953752  1.0000
  C   C139      1.0  0.4674194535118303  0.23783416902398347  0.4103234506529888  1.0000
  C   C140      1.0  0.03259606574785321  0.7621687552531142  0.9103192612225117  1.0000
  C   C141      1.0  0.9781792753607307  0.1995038372432773  0.6169793730016623  1.0000
  C   C142      1.0  0.5218162189356266  0.800493397651209  0.11698014051610531  1.0000
  C   C143      1.0  0.47818360777659313  0.300496944057329  0.38302415684144364  1.0000
  C   C144      1.0  0.0218214801149443  0.699504900797585  0.8830226719203866  1.0000
  C   C145      1.0  0.8136513402024191  0.6032331471470513  0.2088797720451367  1.0000
  C   C146      1.0  0.6863578362877193  0.3967673420120617  0.7088843179798234  1.0000
  C   C147      1.0  0.313643557783756  0.8967705644411834  0.7911151410021732  1.0000
  C   C148      1.0  0.18635893587485697  0.10323061603538258  0.29111647024059556  1.0000
  C   C149      1.0  0.7820274626463259  0.539280567716588  0.1292952170924124  1.0000
  C   C150      1.0  0.7179745520041152  0.46071927670782026  0.6292994230904584  1.0000
  C   C151      1.0  0.2820294644600169  0.9607233430873804  0.8707012742605471  1.0000
  C   C152      1.0  0.21797692986976366  0.03927848213447759  0.370700180935991  1.0000
  N   N1        1.0  0.5661293430614407  0.7205409027872277  0.5287971472776576  1.0000
  N   N2        1.0  0.9338726876628202  0.2794587815467721  0.028793887032748006  1.0000
  N   N3        1.0  0.0661293058668662  0.7794591884275446  0.471204480219356  1.0000
  N   N4        1.0  0.43386728890389753  0.2205386530315039  0.9712049160755073  1.0000
  N   N5        1.0  0.5627530254059324  0.791793506527078  0.5308469529216638  1.0000
  N   N6        1.0  0.9372496572214501  0.20820669905747738  0.030845600605594804  1.0000
  N   N7        1.0  0.0627537002318803  0.7082066059584661  0.4691554629970369  1.0000
  N   N8        1.0  0.4372435471003159  0.29179123223435954  0.9691555669738109  1.0000
  N   N9        1.0  0.6978660096433417  0.7587419649427287  0.5467993889071394  1.0000
  N   N10       1.0  0.8021366704301515  0.24125878403797424  0.046797285272376116  1.0000
  N   N11       1.0  0.19786700912957397  0.7412572962661554  0.4532026249547556  1.0000
  N   N12       1.0  0.30213089298529644  0.258741034497838  0.9532011314716158  1.0000
  N   N13       1.0  0.43248594399523205  0.8647734027688614  0.4420615319037609  1.0000
  N   N14       1.0  0.06750804649386309  0.13522594623499629  0.9420630968863224  1.0000
  N   N15       1.0  0.932483567509138  0.6352259341894209  0.557936527046472  1.0000
  N   N16       1.0  0.5675112839839543  0.36477379658368386  0.05793336309597662  1.0000
  N   N17       1.0  0.37363508566972575  0.8274687354577991  0.4125027546536586  1.0000
  N   N18       1.0  0.1263608662530942  0.1725295304841764  0.9125051370842671  1.0000
  N   N19       1.0  0.8736323318440428  0.672530972289756  0.5874953077572656  1.0000
  N   N20       1.0  0.6263664283134815  0.3274708774986194  0.08749131943762481  1.0000
  N   N21       1.0  0.43095820501353904  0.9076460032097982  0.3612454241771275  1.0000
  N   N22       1.0  0.06903449392072501  0.09235580699370867  0.8612453750601577  1.0000
  N   N23       1.0  0.9309595049854594  0.5923554153067483  0.6387534230869036  1.0000
  N   N24       1.0  0.5690340291249427  0.4076423722621171  0.1387518730549715  1.0000
  N   N25       1.0  0.4440401509390313  0.6261994047920962  0.4434025887540258  1.0000
  N   N26       1.0  0.055959709436614  0.37380046431242403  0.9434004223361258  1.0000
  N   N27       1.0  0.944039305106486  0.873802449296626  0.5565986224104976  1.0000
  N   N28       1.0  0.5559659823163088  0.12620194118822065  0.05659840299578891  1.0000
  N   N29       1.0  0.3814053380495963  0.6583571809626249  0.4131994696124224  1.0000
  N   N30       1.0  0.1185951793929618  0.3416421220423728  0.9131964831117899  1.0000
  N   N31       1.0  0.881405460827999  0.8416435137936912  0.5868013511230076  1.0000
  N   N32       1.0  0.6185998217770462  0.15835833487362552  0.08680352087100833  1.0000
  N   N33       1.0  0.44239742748504807  0.5767467121825263  0.3650074680216377  1.0000
  N   N34       1.0  0.05760505434799511  0.4232561399536151  0.8650061330614278  1.0000
  N   N35       1.0  0.9423960751815985  0.9232520443436698  0.6349957137960445  1.0000
  N   N36       1.0  0.5576033296174998  0.0767488451376579  0.13499545095616844  1.0000
  N   N37       1.0  0.5241698543767869  0.976229428680433  0.74942683487739  1.0000
  N   N38       1.0  0.9758327933722485  0.02375506751665309  0.24942334812708822  1.0000
  N   N39       1.0  0.0241678408106765  0.5237538333685378  0.2505740068564322  1.0000
  N   N40       1.0  0.47583596382283844  0.47624262064965694  0.7505722996210624  1.0000
  N   N41       1.0  0.42886894919416824  0.14920814881495656  0.681670812473115  1.0000
  N   N42       1.0  0.0711368231474268  0.8507907853717993  0.18167122704542044  1.0000
  N   N43       1.0  0.9288631534072209  0.3507955331210864  0.3183272027089501  1.0000
  N   N44       1.0  0.5711381787451515  0.6492108282513057  0.8183359177198998  1.0000
  N   N45       1.0  0.9594089832817404  0.2630063169403342  0.5349628109460838  1.0000
  N   N46       1.0  0.5405839151765264  0.7369949312044353  0.0349631276068934  1.0000
  N   N47       1.0  0.459408066754051  0.2369956186103437  0.46504072000140445  1.0000
  N   N48       1.0  0.0405859200550793  0.763004802965227  0.9650373190572739  1.0000
  N   N49       1.0  0.8467420165624591  0.5534550816311705  0.17026114961841193  1.0000
  N   N50       1.0  0.6532619482423457  0.44654379207027245  0.6702653470017312  1.0000
  N   N51       1.0  0.3467409053562421  0.9465453135342371  0.8297345497046325  1.0000
  N   N52       1.0  0.15326419107621095  0.0534528205344742  0.32973426082941876  1.0000
  O   O1        1.0  0.5453379026958132  0.09858831706358727  0.9237617073305913  1.0000
  O   O2        1.0  0.954664064827874  0.9014182122510659  0.4237660848224962  1.0000
  O   O3        1.0  0.0453399717629352  0.40140638558236924  0.0762355421763274  1.0000
  O   O4        1.0  0.454662556280745  0.5985908267081468  0.5762363080552433  1.0000
  O   O5        1.0  0.6859749866062401  0.12967687930807156  0.9330024510398192  1.0000
  O   O6        1.0  0.8140276316626257  0.8703317366704508  0.43300996245547213  1.0000
  O   O7        1.0  0.18598062874895763  0.37033662070242457  0.06698217863500132  1.0000
  O   O8        1.0  0.3140225529771286  0.6296667926794014  0.5669853446789475  1.0000
  O   O9        1.0  0.8999505098467894  0.03688980109288309  0.8057918564189492  1.0000
  O   O10       1.0  0.6000449543013602  0.9630978928253525  0.3057864560245704  1.0000
  O   O11       1.0  0.3999499871036676  0.4631005953941594  0.19420891923865474  1.0000
  O   O12       1.0  0.10005056532652651  0.5369056105869986  0.6942128048100075  1.0000
  O   O13       1.0  0.8550046182424965  0.0011182878099091993  0.7253323864955021  1.0000
  O   O14       1.0  0.6449986855129383  0.9988822275755069  0.22533726170731685  1.0000
  O   O15       1.0  0.35500046410582803  0.49888430554096874  0.2746628742483068  1.0000
  O   O16       1.0  0.14500203216063315  0.501121510603724  0.7746663317114654  1.0000
  O   O17       1.0  0.35206218619028823  0.8789810753716693  0.5688507828935201  1.0000
  O   O18       1.0  0.14792273270628442  0.12101975111370679  0.06885291820149321  1.0000
  O   O19       1.0  0.8520606240993801  0.6210234301690462  0.4311524042385315  1.0000
  O   O20       1.0  0.6479185140864488  0.3789784491119121  0.931150631060298  1.0000
  O   O21       1.0  0.47371063973046296  0.9404941058485788  0.5610734083389773  1.0000
  O   O22       1.0  0.026282759479705903  0.059500492384806584  0.061068797003173414  1.0000
  O   O23       1.0  0.973709690813685  0.5595091152567874  0.4389234658541029  1.0000
  O   O24       1.0  0.5262740117469847  0.4404964022909396  0.938922936063378  1.0000
  O   O25       1.0  0.1138601313639782  0.9644739455850126  0.6880723391859576  1.0000
  O   O26       1.0  0.38614107427174105  0.0355343225556908  0.1880672915737378  1.0000
  O   O27       1.0  0.6138509631894777  0.5355387945836653  0.3119332266260315  1.0000
  O   O28       1.0  0.8861438476419751  0.4644691105696666  0.8119263908930494  1.0000
  O   O29       1.0  0.15305617024508686  0.038317091491300886  0.753302128175335  1.0000
  O   O30       1.0  0.3469443727268172  0.9616907625720399  0.2532986825792136  1.0000
  O   O31       1.0  0.6530473215767644  0.46169091813987945  0.24670299723536004  1.0000
  O   O32       1.0  0.8469416295812877  0.5383174011132468  0.7466978049585437  1.0000
  O   O33       1.0  0.011389887497117002  0.13254746429011988  0.7493937690799513  1.0000
  O   O34       1.0  0.48859239362043644  0.867447433960997  0.24939575014703766  1.0000
  O   O35       1.0  0.5113989375242483  0.3674521140994995  0.25060821176406023  1.0000
  O   O36       1.0  0.9886011009948703  0.6325536214119295  0.7506058525087056  1.0000
  O   O37       1.0  0.9943794174087232  0.0757657954850615  0.6719125609426939  1.0000
  O   O38       1.0  0.5056206337218683  0.924234634818191  0.1719181671678456  1.0000
  O   O39       1.0  0.4943805659427555  0.42424161756827766  0.328083479830795  1.0000
  O   O40       1.0  0.0056245307228906  0.5757627297000026  0.8280810992163767  1.0000
  O   O41       1.0  0.017809832800558905  0.39196930376063216  0.7482324357151882  1.0000
  O   O42       1.0  0.48219332001549736  0.6080188587512011  0.24822630762207612  1.0000
  O   O43       1.0  0.5178025590393958  0.1080323061754882  0.2517695447526905  1.0000
  O   O44       1.0  0.9821981315242355  0.8919739491783859  0.7517780541875043  1.0000
  O   O45       1.0  0.9529685627154267  0.4443652416799819  0.6785937031515632  1.0000
  O   O46       1.0  0.5470399663885246  0.5556346812412156  0.17858440185002422  1.0000
  O   O47       1.0  0.4529655672090557  0.0556398423696081  0.32140864584133066  1.0000
  O   O48       1.0  0.047054531891035416  0.9443660481817697  0.8214124974303587  1.0000
  O   O49       1.0  0.38063721355781877  0.7459424691926413  0.5133613897037819  1.0000
  O   O50       1.0  0.11936467228233032  0.25405982280410194  0.013359308031709805  1.0000
  O   O51       1.0  0.8806395316536568  0.7540577124097394  0.4866386428533645  1.0000
  O   O52       1.0  0.6193604691647964  0.24593855734565293  0.9866379371241225  1.0000
