data_image0
_chemical_formula_structural       Gd4H24C12N24O24
_chemical_formula_sum              "Gd4 H24 C12 N24 O24"
_cell_length_a       8.890481288019092
_cell_length_b       10.100604608946606
_cell_length_c       12.761770815138696
_cell_angle_alpha    90.00018395736676
_cell_angle_beta     89.99946914268372
_cell_angle_gamma    106.4750200535554

_space_group_name_H-M_alt    "P 1"
_space_group_IT_number       1

loop_
  _space_group_symop_operation_xyz
  'x, y, z'

loop_
  _atom_site_type_symbol
  _atom_site_label
  _atom_site_symmetry_multiplicity
  _atom_site_fract_x
  _atom_site_fract_y
  _atom_site_fract_z
  _atom_site_occupancy
  Gd  Gd1       1.0  0.22409451399821734  0.12946252039871103  0.32217573393946003  1.0000
  Gd  Gd2       1.0  0.7240994691577001  0.12946288438566  0.6778293148647448  1.0000
  Gd  Gd3       1.0  0.8535197254377851  0.577781607138846  0.1763786753676513  1.0000
  Gd  Gd4       1.0  0.35352932691387207  0.577790496550577  0.8236149116225634  1.0000
  H   H1        1.0  0.8507702771632426  0.5150247065860755  0.4221720808604488  1.0000
  H   H2        1.0  0.35075826877352523  0.5150236127107776  0.5778245008710314  1.0000
  H   H3        1.0  0.8146519224457194  0.6582989715946754  0.3947874622828138  1.0000
  H   H4        1.0  0.31465548372740676  0.6583047809921042  0.6051995241645899  1.0000
  H   H5        1.0  0.7471949180210017  0.8446310364436938  0.24243131360208994  1.0000
  H   H6        1.0  0.24720017162314906  0.8446410454128073  0.7575636260173513  1.0000
  H   H7        1.0  0.9235437897741223  0.8544999463221644  0.2730354460181417  1.0000
  H   H8        1.0  0.42354723729509663  0.8545068620047332  0.7269599518289169  1.0000
  H   H9        1.0  0.9005815048542447  0.35733437087299796  0.0086632784620093  1.0000
  H   H10       1.0  0.40057817272168716  0.3573384713049493  0.9913294532817504  1.0000
  H   H11       1.0  0.9397890699343135  0.5033999048611407  0.9572229183468226  1.0000
  H   H12       1.0  0.4397896359594853  0.5033982153039175  0.042773845508634195  1.0000
  H   H13       1.0  0.07946341475848581  0.48258926736674823  0.3091235940893142  1.0000
  H   H14       1.0  0.5794578231988582  0.4825857436528622  0.6908738668607697  1.0000
  H   H15       1.0  0.1622379080079953  0.4872996175172022  0.19967927477197384  1.0000
  H   H16       1.0  0.6622500626493137  0.48731547947569004  0.8003153150498366  1.0000
  H   H17       1.0  0.6916598038123355  0.6756587918356232  0.9884155279188962  1.0000
  H   H18       1.0  0.1916563650297931  0.6756509410811093  0.011585613779388404  1.0000
  H   H19       1.0  0.831867918548376  0.794200274258728  0.027084688117895408  1.0000
  H   H20       1.0  0.3318622571871828  0.7942002596757618  0.9729134986889606  1.0000
  H   H21       1.0  0.0004670804097486032  0.12144969714029943  0.1409241671853039  1.0000
  H   H22       1.0  0.5004696169786129  0.1214564638749778  0.8590815155943403  1.0000
  H   H23       1.0  0.9243525289708431  0.1733950700336848  0.23966617960946482  1.0000
  H   H24       1.0  0.4243610440056785  0.17341124484791953  0.7603392591322092  1.0000
  C   C1        1.0  0.4627621927241847  0.1930379447885286  0.5201828336897734  1.0000
  C   C2        1.0  0.9627825886986159  0.1930586386090242  0.4798247581161093  1.0000
  C   C3        1.0  0.43811245698739754  0.0428483033357594  0.5043690885087315  1.0000
  C   C4        1.0  0.9381118701220644  0.04286433782669972  0.49564690474340983  1.0000
  C   C5        1.0  0.2680657758694168  0.9717206022200957  0.0952065797015891  1.0000
  C   C6        1.0  0.7680599085802557  0.9717276083133797  0.9047932459743464  1.0000
  C   C7        1.0  0.1555340802700159  0.8639339116256937  0.15766600662896477  1.0000
  C   C8        1.0  0.6555463889766528  0.8639549979235782  0.8423342721852196  1.0000
  C   C9        1.0  0.5756943855400607  0.3083736805099734  0.24592365460929952  1.0000
  C   C10       1.0  0.0756933578366557  0.3083848905949651  0.7540694758067232  1.0000
  C   C11       1.0  0.4849705071262703  0.4063178875376394  0.2207825737939899  1.0000
  C   C12       1.0  0.9849751557817047  0.4063308076074464  0.7792120890098249  1.0000
  N   N1        1.0  0.3788734857277376  0.2679178432984415  0.47447010547558943  1.0000
  N   N2        1.0  0.8788899860970788  0.26793241225895065  0.5255350790206563  1.0000
  N   N3        1.0  0.4334231456281615  0.39501455270382735  0.5148673045173311  1.0000
  N   N4        1.0  0.9334383317761946  0.3950270521282206  0.4851378479690993  1.0000
  N   N5        1.0  0.5481096573204952  0.39562716191555586  0.5813898363471495  1.0000
  N   N6        1.0  0.048123053802122256  0.3956378303514542  0.4186107424429437  1.0000
  N   N7        1.0  0.5680321751858699  0.2698428044898478  0.5864821680679242  1.0000
  N   N8        1.0  0.06804265665510911  0.26985458667016365  0.41351875086355255  1.0000
  N   N9        1.0  0.29375037014587246  0.10527126487657061  0.12096515888583072  1.0000
  N   N10       1.0  0.7937496401820566  0.10528229129347719  0.879037814315062  1.0000
  N   N11       1.0  0.38931540639977424  0.17645848213765453  0.046689982267324105  1.0000
  N   N12       1.0  0.8893207832275821  0.17646730657371992  0.9533149058101601  1.0000
  N   N13       1.0  0.423111059539842  0.08785532169041231  0.9803940401791709  1.0000
  N   N14       1.0  0.9231263956985174  0.08786653890762612  0.0196064904969759  1.0000
  N   N15       1.0  0.34736882883777304  0.9587386096593067  0.0081337528268648  1.0000
  N   N16       1.0  0.8473729499693903  0.9587485273915847  0.9918694484039676  1.0000
  N   N17       1.0  0.7292018437640311  0.33288127641645104  0.2275096031160544  1.0000
  N   N18       1.0  0.22920394439606895  0.3328892912888152  0.7724880870085401  1.0000
  N   N19       1.0  0.7624144200501135  0.21710550039959034  0.2572802980139528  1.0000
  N   N20       1.0  0.2624206191988279  0.21711443611676634  0.7427231570180555  1.0000
  N   N21       1.0  0.6342186432943963  0.12516632012980014  0.29088878338809115  1.0000
  N   N22       1.0  0.13421939031102434  0.12516808925393974  0.7091254519407073  1.0000
  N   N23       1.0  0.5149510010057912  0.18150706460594535  0.2845515589308505  1.0000
  N   N24       1.0  0.01495200512805182  0.18151299587199082  0.715447912600695  1.0000
  O   O1        1.0  0.824037957804471  0.5721550030726731  0.3649560408632696  1.0000
  O   O2        1.0  0.3240381233492329  0.5721650805025078  0.6350385051716856  1.0000
  O   O3        1.0  0.81963528292917  0.7901910493477474  0.25520666898198396  1.0000
  O   O4        1.0  0.31963961235163657  0.7901979514298392  0.7447908027989811  1.0000
  O   O5        1.0  0.9040674469007186  0.4548826998588568  0.023636233269684205  1.0000
  O   O6        1.0  0.40405987395061527  0.4548837775661384  0.9763598550210661  1.0000
  O   O7        1.0  0.07814380896229521  0.515553783088656  0.2340925163219794  1.0000
  O   O8        1.0  0.5781490431811207  0.515561474413353  0.7659026849728079  1.0000
  O   O9        1.0  0.7879905431537608  0.6903342081807581  0.030099170880376405  1.0000
  O   O10       1.0  0.28799199958650235  0.6903319262781552  0.9698998211401957  1.0000
  O   O11       1.0  0.014422672180273807  0.1369230176294636  0.2183107375446909  1.0000
  O   O12       1.0  0.514431701222847  0.1369420746237111  0.7816956778998118  1.0000
  O   O13       1.0  0.33994745389417613  0.9853671269113137  0.43507455982346954  1.0000
  O   O14       1.0  0.8399600697826844  0.9853849399524112  0.5649201363730683  1.0000
  O   O15       1.0  0.5182909138936368  0.9888198440598333  0.5647903150591986  1.0000
  O   O16       1.0  0.018304796878467963  0.988835715350412  0.4352142935346635  1.0000
  O   O17       1.0  0.13092877559707727  0.8993019318424161  0.2501532948193983  1.0000
  O   O18       1.0  0.6309337845624654  0.8993179518460437  0.7498448801012358  1.0000
  O   O19       1.0  0.08409359733205692  0.7493963345618442  0.11524956538631413  1.0000
  O   O20       1.0  0.5841017613480447  0.7494008868998208  0.8847493183277635  1.0000
  O   O21       1.0  0.5629358436953211  0.5178582316208633  0.17483037623588876  1.0000
  O   O22       1.0  0.06293905018540616  0.5178745759350677  0.8251672793931562  1.0000
  O   O23       1.0  0.34032855172338833  0.36991155766972383  0.2424108693412137  1.0000
  O   O24       1.0  0.8403338708750852  0.3699223667252483  0.7575877664006043  1.0000
