data_image0
_chemical_formula_structural       Zn4H48C40Se4N8Cl8
_chemical_formula_sum              "Zn4 H48 C40 Se4 N8 Cl8"
_cell_length_a       10.177047093
_cell_length_b       10.26192482
_cell_length_c       12.2033
_cell_angle_alpha    90.0
_cell_angle_beta     90.0
_cell_angle_gamma    90.0

_space_group_name_H-M_alt    "P 1"
_space_group_IT_number       1

loop_
  _space_group_symop_operation_xyz
  'x, y, z'

loop_
  _atom_site_type_symbol
  _atom_site_label
  _atom_site_symmetry_multiplicity
  _atom_site_fract_x
  _atom_site_fract_y
  _atom_site_fract_z
  _atom_site_occupancy
  Zn  Zn1       1.0  0.1842754566096048  0.0067950215211212  0.774651118959625  1.0000
  Zn  Zn2       1.0  0.315724194910139  0.9932035343053727  0.2746502995091475  1.0000
  Zn  Zn3       1.0  0.6842751081293414  0.493202794678048  0.2253488810403752  1.0000
  Zn  Zn4       1.0  0.8157238464298828  0.5067957611484459  0.7253488810403753  1.0000
  H   H1        1.0  0.8889169832202555  0.070057032438875  0.7891258921767061  1.0000
  H   H2        1.0  0.6110829539422653  0.9299424978636708  0.2891258921767061  1.0000
  H   H3        1.0  0.38891536649391867  0.4299417582363461  0.2108732883728166  1.0000
  H   H4        1.0  0.1110833024225286  0.5700567975901407  0.7108741078232939  1.0000
  H   H5        1.0  0.7785450855828131  0.9987541499061551  0.125240713577476  1.0000
  H   H6        1.0  0.7214538689764112  0.0012463548724355  0.625240713577476  1.0000
  H   H7        1.0  0.2785454340630693  0.501249043451871  0.8747584669720467  1.0000
  H   H8        1.0  0.22145421745666738  0.4987553592309411  0.3747592864225241  1.0000
  H   H9        1.0  0.0161255026630371  0.9508557284480261  0.16508321519589236  1.0000
  H   H10       1.0  0.48387414885670665  0.049145750806623305  0.6650832151958923  1.0000
  H   H11       1.0  0.5161271193893667  0.549146490433948  0.8349159653536304  1.0000
  H   H12       1.0  0.9838747829797398  0.4508549888207014  0.33491678480410775  1.0000
  H   H13       1.0  0.1774493115239792  0.9615895821774317  0.011264985700592  1.0000
  H   H14       1.0  0.3225503399957574  0.0384118970772178  0.5112641662501147  1.0000
  H   H15       1.0  0.6774499456470195  0.5384116622284907  0.9887358337498853  1.0000
  H   H16       1.0  0.8225509741187976  0.46158786807405516  0.48873583374988533  1.0000
  H   H17       1.0  0.6636640214277492  0.0862206667384271  0.8372956495374169  1.0000
  H   H18       1.0  0.836334933131475  0.9137788635641187  0.337295649537417  1.0000
  H   H19       1.0  0.1636663351145984  0.4137790984128458  0.1627035310121059  1.0000
  H   H20       1.0  0.3363352816117313  0.5862214063657518  0.6627043504625831  1.0000
  H   H21       1.0  0.5806851384292813  0.1402105380070395  0.16137192398777242  1.0000
  H   H22       1.0  0.9193128335266536  0.8597860688673435  0.6613719239877724  1.0000
  H   H23       1.0  0.080686469512834  0.3597853292400188  0.8386288954627048  1.0000
  H   H24       1.0  0.4193151472134957  0.6402112776343643  0.3386288954627048  1.0000
  H   H25       1.0  0.4382843038102848  0.1849614018123376  0.089318463038687  1.0000
  H   H26       1.0  0.061715347709458995  0.815040077442312  0.589318463038687  1.0000
  H   H27       1.0  0.9382849379333251  0.315040312291039  0.9106823564117905  1.0000
  H   H28       1.0  0.5617159818324922  0.6849611669636033  0.41068235641179035  1.0000
  H   H29       1.0  0.6991753044843634  0.2536181121623144  0.020768972327154203  1.0000
  H   H30       1.0  0.8008236500748608  0.7463823926162831  0.5207681528766842  1.0000
  H   H31       1.0  0.19917663556791607  0.24638165298895842  0.9792326665737934  1.0000
  H   H32       1.0  0.3008249811584136  0.7536178773135873  0.4792318471233159  1.0000
  H   H33       1.0  0.560529979656252  0.2505153804079399  0.9315627740037515  1.0000
  H   H34       1.0  0.9394699575062688  0.7494851243706506  0.4315635934542286  1.0000
  H   H35       1.0  0.060530328136508195  0.2494863336954367  0.0684372259962487  1.0000
  H   H36       1.0  0.439470305986525  0.7505151455592127  0.5684372259962487  1.0000
  H   H37       1.0  0.659729677837305  0.7768981102319188  0.949774241393719  1.0000
  H   H38       1.0  0.8402712419285052  0.22310239454667882  0.4497750608441962  1.0000
  H   H39       1.0  0.1597290437142718  0.7231021596979517  0.0502249391558038  1.0000
  H   H40       1.0  0.3402696252021755  0.2768983450806459  0.5502257586062811  1.0000
  H   H41       1.0  0.6217383040658362  0.8540551751966562  0.8224013176763665  1.0000
  H   H42       1.0  0.8782616330966775  0.1459453295819415  0.3224021371268435  1.0000
  H   H43       1.0  0.1217386525460995  0.6459450947332144  0.1775970434226792  1.0000
  H   H44       1.0  0.3782609989736443  0.3540554100453832  0.6775986823236338  1.0000
  H   H45       1.0  0.4917330100046513  0.7976105987492517  0.9077659321658871  1.0000
  H   H46       1.0  0.0082666415150854  0.2023879570772351  0.4077667516163644  1.0000
  H   H47       1.0  0.991732661524395  0.7023886967045598  0.0922324289331584  1.0000
  H   H48       1.0  0.5082672756381257  0.2976108335979788  0.5922340678341129  1.0000
  C   C1        1.0  0.9116210149387385  0.0408753725404907  0.8730843296485347  1.0000
  C   C2        1.0  0.5883789222237823  0.9591241577620551  0.3730843296485347  1.0000
  C   C3        1.0  0.41162136341899475  0.4591243926107822  0.1269140314505108  1.0000
  C   C4        1.0  0.0883792707040385  0.5408751376917635  0.6269156703514653  1.0000
  C   C5        1.0  0.8144425317340946  0.0383329645168828  0.9535519080904324  1.0000
  C   C6        1.0  0.6855564228251296  0.9616665657856558  0.45355190809043233  1.0000
  C   C7        1.0  0.3144428802143509  0.4616677751104419  0.0464464530086133  1.0000
  C   C8        1.0  0.1855577539086823  0.5383337041442076  0.5464480919095678  1.0000
  C   C9        1.0  0.8518885606772173  0.0043763719563117  0.0602861521064  1.0000
  C   C10       1.0  0.6481103938820069  0.9956241328222859  0.5602861521064  1.0000
  C   C11       1.0  0.3518889091574735  0.49562631662312384  0.9397130284431228  1.0000
  C   C12       1.0  0.1481117249655597  0.5043761371075774  0.4397154867945545  1.0000
  C   C13       1.0  0.9828666319997764  0.9769551205891603  0.0829406799800054  1.0000
  C   C14       1.0  0.5171333051627443  0.0230434352373265  0.5829414994304827  1.0000
  C   C15       1.0  0.4828669804800326  0.5230441748646513  0.9170585005695174  1.0000
  C   C16       1.0  0.0171326710397111  0.4769553554378874  0.4170601394704718  1.0000
  C   C17       1.0  0.0734122573250033  0.9819083823691486  0.9975473847238022  1.0000
  C   C18       1.0  0.4265873941947405  0.018092122409449  0.4975473847238021  1.0000
  C   C19       1.0  0.5734128914480365  0.5180928620367737  0.0024526152761979  1.0000
  C   C20       1.0  0.926587045714477  0.48190666826577205  0.5024534347266751  1.0000
  C   C21       1.0  0.6737691137065056  0.0733877915897665  0.9261978317340365  1.0000
  C   C22       1.0  0.8262298408527186  0.9266117387127792  0.4261978317340365  1.0000
  C   C23       1.0  0.1737694621867689  0.4266119735615064  0.0738013488154863  1.0000
  C   C24       1.0  0.3262301893329749  0.5733875567410394  0.5738021682659635  1.0000
  C   C25       1.0  0.5124020703006096  0.9965732724984022  0.047283931395604405  1.0000
  C   C26       1.0  0.9875929538454358  0.0034262578041364005  0.5472863897470361  1.0000
  C   C27       1.0  0.012407331797341199  0.5034269974314611  0.9527136102529639  1.0000
  C   C28       1.0  0.48759723273887084  0.4965735073471365  0.4527168880548729  1.0000
  C   C29       1.0  0.533442554641816  0.13571820340036572  0.0801619234141597  1.0000
  C   C30       1.0  0.9665554173141118  0.8642823013782319  0.5801635623151142  1.0000
  C   C31       1.0  0.0334438857253687  0.3642815617509072  0.9198372571353631  1.0000
  C   C32       1.0  0.46655773100096093  0.6357189430276904  0.41983807658584044  1.0000
  C   C33       1.0  0.6199106619384125  0.192714333294056  0.988278580383998  1.0000
  C   C34       1.0  0.8800892752241083  0.8072861714845416  0.48827939983446816  1.0000
  C   C35       1.0  0.1199110104186687  0.3072864063332688  0.0117206001655319  1.0000
  C   C36       1.0  0.380090606307661  0.6927140984453217  0.5117206001655319  1.0000
  C   C37       1.0  0.5899255398090375  0.8413665225039111  0.9074094712086094  1.0000
  C   C38       1.0  0.9100743973534833  0.1586339822746794  0.40741029065908674  1.0000
  C   C39       1.0  0.0899249056859972  0.6586327729499004  0.09258970934091343  1.0000
  C   C40       1.0  0.4100747458337395  0.3413667573526453  0.5925905287913907  1.0000
  Se  Se1       1.0  0.4036907722305685  0.8762586120758584  0.11498037416108531  1.0000
  Se  Se2       1.0  0.096303966272707  0.12374384165484291  0.6149836519629943  1.0000
  Se  Se3       1.0  0.9036953367667805  0.6237436068061157  0.8850155285865284  1.0000
  Se  Se4       1.0  0.5963095134122156  0.3762578724485337  0.3850204452893919  1.0000
  N   N1        1.0  0.0382311289752835  0.0128319006726088  0.8945457376283485  1.0000
  N   N2        1.0  0.4617685225444603  0.987167629629937  0.3945457376283486  1.0000
  N   N3        1.0  0.5382317630983167  0.4871678644786641  0.10545426237165152  1.0000
  N   N4        1.0  0.9617691566674934  0.5128306913478227  0.6054542623716515  1.0000
  N   N5        1.0  0.5850213667671013  0.9671440956824284  0.9613489793744351  1.0000
  N   N6        1.0  0.9149785703954193  0.0328554346201102  0.4613481599239578  1.0000
  N   N7        1.0  0.0850217152473576  0.5328551997713831  0.0386518400760423  1.0000
  N   N8        1.0  0.4149789188756756  0.4671443305311628  0.5386518400760423  1.0000
  Cl  Cl1       1.0  0.3429973319472026  0.1495391972672806  0.8267288356428184  1.0000
  Cl  Cl2       1.0  0.1570023195725412  0.850460333035258  0.3267296550932954  1.0000
  Cl  Cl3       1.0  0.8429969834669392  0.3504605678839923  0.17327116435718182  1.0000
  Cl  Cl4       1.0  0.657001971092285  0.6495389624185535  0.6732711643571819  1.0000
  Cl  Cl5       1.0  0.2523413694102246  0.7991609901503837  0.7747412585120445  1.0000
  Cl  Cl6       1.0  0.2476612299193945  0.20083756567610322  0.2747420779625216  1.0000
  Cl  Cl7       1.0  0.7523380731200859  0.7008373308273761  0.2252587414879557  1.0000
  Cl  Cl8       1.0  0.7476589162325524  0.2991612249991107  0.7252587414879559  1.0000
