data_image0
_chemical_formula_structural       Zn4H8C38N6O29
_chemical_formula_sum              "Zn4 H8 C38 N6 O29"
_cell_length_a       10.863948609629691
_cell_length_b       10.760554512697755
_cell_length_c       19.52057587976178
_cell_angle_alpha    98.62015537776956
_cell_angle_beta     91.14475783449
_cell_angle_gamma    98.25826791547865

_space_group_name_H-M_alt    "P 1"
_space_group_IT_number       1

loop_
  _space_group_symop_operation_xyz
  'x, y, z'

loop_
  _atom_site_type_symbol
  _atom_site_label
  _atom_site_symmetry_multiplicity
  _atom_site_fract_x
  _atom_site_fract_y
  _atom_site_fract_z
  _atom_site_occupancy
  Zn  Zn1       1.0  0.4412742681962811  0.6213357418394665  0.4455189963016509  1.0000
  Zn  Zn2       1.0  0.40297962009036326  0.40411039121606523  0.540297349471075  1.0000
  Zn  Zn3       1.0  0.6366032166310943  0.6298759168740633  0.5729603344849539  1.0000
  Zn  Zn4       1.0  0.6210131517562729  0.41456263576947094  0.4334598835316115  1.0000
  H   H1        1.0  0.8858311644937726  0.7112411313546405  0.2222653842718501  1.0000
  H   H2        1.0  0.7150635592081471  0.23758576904894105  0.6438942078542882  1.0000
  H   H3        1.0  0.19386771839541686  0.6560285305237346  0.6463640156164489  1.0000
  H   H4        1.0  0.09576349323803164  0.5011505405388379  0.7112239188599859  1.0000
  H   H5        1.0  0.16413266253837833  0.1786183106243016  0.10590648270842  1.0000
  H   H6        1.0  0.1229994973903956  0.4255464574679452  0.2652387479486578  1.0000
  H   H7        1.0  0.43767995075710076  0.1659719079048898  0.9064807337440969  1.0000
  H   H8        1.0  0.833912720375544  0.4757112452692596  0.0340824444121353  1.0000
  C   C1        1.0  0.5173173122612909  0.18252631390357982  0.4873534020794423  1.0000
  C   C2        1.0  0.47099660938686577  0.4246733220110954  0.016465404153891004  1.0000
  C   C3        1.0  0.4615295935689686  0.5200342539618675  0.9786734700426651  1.0000
  C   C4        1.0  0.5546202296375213  0.8544589239265152  0.539251330148339  1.0000
  C   C5        1.0  0.47501112318452215  0.5148143475076736  0.7575029255163558  1.0000
  C   C6        1.0  0.5631579307154766  0.9953283627590185  0.542278734648292  1.0000
  C   C7        1.0  0.5180029187130445  0.0419536239272986  0.48760736459403387  1.0000
  C   C8        1.0  0.9901079006555092  0.519472675434784  0.5228607953775253  1.0000
  C   C9        1.0  0.05693171980346531  0.4875923518393536  0.4668520255304288  1.0000
  C   C10       1.0  0.19650372117606452  0.490704934398366  0.4740992925222969  1.0000
  C   C11       1.0  0.8534844903590725  0.5231075338580953  0.5161467748819035  1.0000
  C   C12       1.0  0.4850676225460901  0.4535717434263944  0.093633384602505  1.0000
  C   C13       1.0  0.4860785656823694  0.5186057105822074  0.6810623716921286  1.0000
  C   C14       1.0  0.5328729179270154  0.518592705597996  0.31626304590291454  1.0000
  C   C15       1.0  0.5157498047746927  0.5021240069244186  0.2384260914140199  1.0000
  C   C16       1.0  0.6136705680779356  0.5446405829379587  0.19776850065821353  1.0000
  C   C17       1.0  0.5983356808706547  0.5196526787943371  0.1250790556744619  1.0000
  C   C18       1.0  0.7280791197266723  0.6206071476117644  0.23544278936050494  1.0000
  C   C19       1.0  0.25225167525370307  0.5669625928416908  0.8981602440175963  1.0000
  C   C20       1.0  0.6131833638866908  0.07810440732939841  0.6085645059186149  1.0000
  C   C21       1.0  0.46150990001533637  0.9669672042121962  0.4256680186832114  1.0000
  C   C22       1.0  0.05196888067067108  0.5527384937423747  0.5941260920368379  1.0000
  C   C23       1.0  0.38816957069710867  0.4107061533191185  0.1351147860385851  1.0000
  C   C24       1.0  0.012470564567571807  0.45509860922981477  0.39651520696452286  1.0000
  C   C25       1.0  0.6671083125925462  0.4227818529287505  0.7549186388990209  1.0000
  C   C26       1.0  0.2621322372890091  0.5700835640754535  0.7483478252332176  1.0000
  C   C27       1.0  0.4461977711841953  0.6430567686363915  0.013498585874145902  1.0000
  C   C28       1.0  0.27633799548978283  0.32707537008376164  0.0988621260836879  1.0000
  C   C29       1.0  0.6726549633177967  0.4425171443360796  0.9000768535271179  1.0000
  C   C30       1.0  0.29566660485720325  0.4090919392839894  0.2546683950075136  1.0000
  C   C31       1.0  0.46874181882532184  0.28751011956425293  0.9873942653783915  1.0000
  C   C32       1.0  0.7028035129241204  0.5523238881121841  0.07779608432052501  1.0000
  C   C33       1.0  0.40138969706153194  0.4391083963140332  0.20775116746319366  1.0000
  C   C34       1.0  0.5684732032085976  0.47741343653348883  0.8660600117181829  1.0000
  C   C35       1.0  0.5723231320077601  0.4763279369756148  0.7936578916669178  1.0000
  C   C36       1.0  0.3680799003347203  0.54184236061122  0.7917723296058841  1.0000
  C   C37       1.0  0.36231240137581006  0.539917026393667  0.8637360070529355  1.0000
  C   C38       1.0  0.4638494230886608  0.5108243193828416  0.9019105010019006  1.0000
  N   N1        1.0  0.16135577989764016  0.5893441957074971  0.9252013934933601  1.0000
  N   N2        1.0  0.41363724381350414  0.9173601873492887  0.3724173265102878  1.0000
  N   N3        1.0  0.9997974043476532  0.4292193588644296  0.3362212320869773  1.0000
  N   N4        1.0  0.7341155214983247  0.3686461223356758  0.7198404525385342  1.0000
  N   N5        1.0  0.42815387016765527  0.7438199154312386  0.0390991376891563  1.0000
  N   N6        1.0  0.7616120847191468  0.41373963214438464  0.9241045227650276  1.0000
  O   O1        1.0  0.5279175023023084  0.5173074520524708  0.5002852196144759  1.0000
  O   O2        1.0  0.4013621330151551  0.44733321960235617  0.6421596645944234  1.0000
  O   O3        1.0  0.5859880634202242  0.43422266623446165  0.33877042375775096  1.0000
  O   O4        1.0  0.5801736573936367  0.5899468705569931  0.6645365492137216  1.0000
  O   O5        1.0  0.4860047534754913  0.6092501285669273  0.3502084441758768  1.0000
  O   O6        1.0  0.739733384079436  0.6469410201644978  0.2985877399983679  1.0000
  O   O7        1.0  0.8165221563355799  0.6611354918926935  0.19287762524115953  1.0000
  O   O8        1.0  0.5827346591786694  0.05049891192521021  0.6648528441234305  1.0000
  O   O9        1.0  0.6899389775903089  0.1829925474183725  0.5983243447904272  1.0000
  O   O10       1.0  0.013498044892507683  0.4953282763121081  0.6416470805708059  1.0000
  O   O11       1.0  0.1483775851468181  0.6440721204491169  0.5987556696358638  1.0000
  O   O12       1.0  0.2596522649981027  0.5704505156677869  0.44292758197791227  1.0000
  O   O13       1.0  0.2797014714529454  0.6582269957680964  0.7137700348140258  1.0000
  O   O14       1.0  0.1588364007839402  0.49068326469669893  0.7492937703455311  1.0000
  O   O15       1.0  0.2325030983178067  0.3398466450998612  0.0426123488180821  1.0000
  O   O16       1.0  0.2349617165534568  0.23050840553793958  0.1333588831796604  1.0000
  O   O17       1.0  0.3084202763546458  0.36617876698491614  0.3084795189938703  1.0000
  O   O18       1.0  0.1893316418844151  0.44241445669795343  0.23189636905684813  1.0000
  O   O19       1.0  0.490787847269246  0.20932145563141802  0.0233307686620421  1.0000
  O   O20       1.0  0.43698215865665446  0.2576746432317378  0.9185816245287698  1.0000
  O   O21       1.0  0.7113542361317756  0.6416371098198753  0.045692354533329614  1.0000
  O   O22       1.0  0.7777596789843954  0.46231000578143977  0.0721850851326451  1.0000
  O   O23       1.0  0.7987632185582995  0.46153831358198266  0.4607927005766044  1.0000
  O   O24       1.0  0.440401761381814  0.23011802021629532  0.5277629905500022  1.0000
  O   O25       1.0  0.6390238485094528  0.8129081331479783  0.5717739940237294  1.0000
  O   O26       1.0  0.5875814123026046  0.233887183230344  0.44563270809811684  1.0000
  O   O27       1.0  0.463505571944637  0.7885811252035142  0.5025986847893336  1.0000
  O   O28       1.0  0.2315766749938462  0.4128375999336172  0.5103815542111647  1.0000
  O   O29       1.0  0.8079390585728773  0.5901705847551071  0.5658734765613929  1.0000
