data_image0
_chemical_formula_structural       MnH12C8N6O2
_chemical_formula_sum              "Mn1 H12 C8 N6 O2"
_cell_length_a       7.127419149076704
_cell_length_b       7.114392419055576
_cell_length_c       7.114524878578434
_cell_angle_alpha    64.17294353358572
_cell_angle_beta     71.50283682641054
_cell_angle_gamma    71.50544539385936

_space_group_name_H-M_alt    "P 1"
_space_group_IT_number       1

loop_
  _space_group_symop_operation_xyz
  'x, y, z'

loop_
  _atom_site_type_symbol
  _atom_site_label
  _atom_site_symmetry_multiplicity
  _atom_site_fract_x
  _atom_site_fract_y
  _atom_site_fract_z
  _atom_site_occupancy
  Mn  Mn1       1.0  0.5000022355581919  0.9999966300055904  4.270795052738597e-06  1.0000
  H   H1        1.0  0.7846007129187171  0.7594667363775403  0.7594382451798862  1.0000
  H   H2        1.0  0.215396645595213  0.24053510957097052  0.2405657062935517  1.0000
  H   H3        1.0  0.9969609746710829  0.7782449774568863  0.012224016767476198  1.0000
  H   H4        1.0  0.0030576778679218632  0.9877733358931242  0.2217530625176565  1.0000
  H   H5        1.0  0.0030411429738918913  0.22175515546671687  0.9877735586000751  1.0000
  H   H6        1.0  0.9969441195356694  0.0122284542837718  0.7782466766883046  1.0000
  H   H7        1.0  0.2959399982833943  0.7307618330991232  0.7307483574332353  1.0000
  H   H8        1.0  0.7040600055855035  0.26924137097902456  0.2692428824079868  1.0000
  H   H9        1.0  0.1421555831090017  0.788285138621497  0.5510564482703302  1.0000
  H   H10       1.0  0.8578442062049163  0.4489467416647984  0.21172075979009017  1.0000
  H   H11       1.0  0.857838183217531  0.21171974669852742  0.44894025113280367  1.0000
  H   H12       1.0  0.1421510392640782  0.5510581452141141  0.7882754637771396  1.0000
  C   C1        1.0  0.6701305888890943  0.44574215700227887  0.7489374609367586  1.0000
  C   C2        1.0  0.3298819010372184  0.2510671721908295  0.5542437884129326  1.0000
  C   C3        1.0  0.3298638360887125  0.55423735610583  0.2510789549950302  1.0000
  C   C4        1.0  0.6701190562443883  0.7489313623688715  0.44575488371187794  1.0000
  C   C5        1.0  0.9844598005254352  0.8442311265609775  0.8442466060853206  1.0000
  C   C6        1.0  0.015538402497334392  0.1557737936598613  0.1557500581899802  1.0000
  C   C7        1.0  0.14918912435829398  0.7207145270231056  0.720708600470921  1.0000
  C   C8        1.0  0.8508093989058522  0.27928873594444076  0.2792858999659699  1.0000
  N   N1        1.0  0.6276404579467963  0.2821952122251404  0.8731607812522171  1.0000
  N   N2        1.0  0.3723937354470053  0.12683679262348593  0.7177989649491536  1.0000
  N   N3        1.0  0.37236142946101586  0.7178209220904535  0.12683102560986728  1.0000
  N   N4        1.0  0.6276098598781417  0.8731634023072986  0.28220091934225167  1.0000
  N   N5        1.0  0.7276452428914267  0.6248982957046325  0.6248737756089112  1.0000
  N   N6        1.0  0.27235605060664614  0.37507661456889  0.3751509540226081  1.0000
  O   O1        1.0  0.7834381821584202  0.8418238674346842  0.8418934086961796  1.0000
  O   O2        1.0  0.21656202281199194  0.15818584631895766  0.1581004411432474  1.0000
