data_image0
_chemical_formula_structural       Cd6H180C156N48O24
_chemical_formula_sum              "Cd6 H180 C156 N48 O24"
_cell_length_a       20.566198261642477
_cell_length_b       20.566203275849407
_cell_length_c       20.675358289747106
_cell_angle_alpha    60.17444152725615
_cell_angle_beta     60.174447117994625
_cell_angle_gamma    59.999990362253534

_space_group_name_H-M_alt    "P 1"
_space_group_IT_number       1

loop_
  _space_group_symop_operation_xyz
  'x, y, z'

loop_
  _atom_site_type_symbol
  _atom_site_label
  _atom_site_symmetry_multiplicity
  _atom_site_fract_x
  _atom_site_fract_y
  _atom_site_fract_z
  _atom_site_occupancy
  Cd  Cd1       1.0  0.7320587868554966  0.25000038624298065  0.24999874445136783  1.0000
  Cd  Cd2       1.0  0.7679415605437114  0.7320593456448848  0.24999843553388953  1.0000
  Cd  Cd3       1.0  0.2500000183232913  0.7679417715387801  0.24999890249786452  1.0000
  Cd  Cd4       1.0  0.26794108418036433  0.7499999909685968  0.750001007446194  1.0000
  Cd  Cd5       1.0  0.23205831029292767  0.2679404711610047  0.7500015933132573  1.0000
  Cd  Cd6       1.0  0.7499998525133407  0.23205804526710944  0.7500011263492823  1.0000
  H   H1        1.0  0.6091938354158372  0.36910077109386935  0.16541545531829627  1.0000
  H   H2        1.0  0.8562898771410588  0.609194293421666  0.16541484030265258  1.0000
  H   H3        1.0  0.36910107002972836  0.8562901921635417  0.16541447205170084  1.0000
  H   H4        1.0  0.8908053223118697  0.6437096503357725  0.33458578932987854  1.0000
  H   H5        1.0  0.6437098498429775  0.1308990245283043  0.33458552097005156  1.0000
  H   H6        1.0  0.13089898545543116  0.8908057473147792  0.33458538734726057  1.0000
  H   H7        1.0  0.3908054404273713  0.630899245618366  0.8345847687093836  1.0000
  H   H8        1.0  0.1437099938948023  0.3908060837899114  0.8345849115949091  1.0000
  H   H9        1.0  0.6308988013542206  0.14371018539621613  0.8345847958340825  1.0000
  H   H10       1.0  0.1091945481766743  0.35629016612193  0.6654147235290395  1.0000
  H   H11       1.0  0.3562906159870778  0.8691005923712396  0.665414312696562  1.0000
  H   H12       1.0  0.8691008855804299  0.10919462989679836  0.665414364550294  1.0000
  H   H13       1.0  0.8573913995319558  0.27405464495519316  0.7743449456817685  1.0000
  H   H14       1.0  0.0942092387691247  0.8573914274912937  0.7743450623845901  1.0000
  H   H15       1.0  0.27405406918872904  0.09420972490590172  0.7743452561413661  1.0000
  H   H16       1.0  0.6426095182507083  0.4057898300825259  0.7256541097121313  1.0000
  H   H17       1.0  0.40578956944210626  0.22594661781297276  0.7256543394573921  1.0000
  H   H18       1.0  0.2259464900890933  0.6426092180040681  0.7256543705992228  1.0000
  H   H19       1.0  0.1426084715039053  0.7259457322563778  0.2256548062157931  1.0000
  H   H20       1.0  0.905790632415595  0.142608389662783  0.2256544824507784  1.0000
  H   H21       1.0  0.7259463962932456  0.905789891645455  0.22565506153701861  1.0000
  H   H22       1.0  0.35739094757934703  0.594209786817011  0.27434572395448226  1.0000
  H   H23       1.0  0.5942097064011023  0.7740533988992626  0.2743458845702945  1.0000
  H   H24       1.0  0.7740539759401913  0.3573909593011564  0.2743451861177987  1.0000
  H   H25       1.0  0.5929752177859057  0.27273598252011777  0.013137917258937702  1.0000
  H   H26       1.0  0.12115147247705238  0.5929742526950789  0.013137716781059888  1.0000
  H   H27       1.0  0.2727354558926578  0.12115156295146083  0.013138413422275612  1.0000
  H   H28       1.0  0.9070256908857529  0.37884879802219734  0.4868617558506187  1.0000
  H   H29       1.0  0.37884849412836985  0.2272640331980115  0.4868617635528808  1.0000
  H   H30       1.0  0.22726453065899926  0.9070252742582029  0.48686114326174135  1.0000
  H   H31       1.0  0.4070252482433786  0.7272641947851074  0.9868616394580907  1.0000
  H   H32       1.0  0.8788489931537737  0.4070248037987767  0.986862393835132  1.0000
  H   H33       1.0  0.7272650097885389  0.8788486140055694  0.9868616273065243  1.0000
  H   H34       1.0  0.09297477494430241  0.6211508188773393  0.513138077815988  1.0000
  H   H35       1.0  0.6211513767082621  0.7727357836078784  0.5131382652942661  1.0000
  H   H36       1.0  0.7727359351710561  0.09297434264133392  0.5131386904048726  1.0000
  H   H37       1.0  0.6245722503692832  0.21223134843115335  0.957411415781223  1.0000
  H   H38       1.0  0.2057856137595024  0.6245717247949827  0.9574114803950236  1.0000
  H   H39       1.0  0.2122308065298881  0.20578540207406357  0.9574114783884723  1.0000
  H   H40       1.0  0.8754286503515871  0.29421410366756373  0.5425881720760798  1.0000
  H   H41       1.0  0.2942149628522301  0.2877699837824537  0.5425875195487606  1.0000
  H   H42       1.0  0.28776919119684413  0.8754279402833518  0.5425879043754165  1.0000
  H   H43       1.0  0.3754282154607722  0.7877682684683833  0.04258841788539049  1.0000
  H   H44       1.0  0.794214851722465  0.3754278917563667  0.042588837283368576  1.0000
  H   H45       1.0  0.7877696594993964  0.7942147752311612  0.04258807832854935  1.0000
  H   H46       1.0  0.12457241027266257  0.7057847529199393  0.45741174335957885  1.0000
  H   H47       1.0  0.7057849087309478  0.7122309541829848  0.45741147138743804  1.0000
  H   H48       1.0  0.712230679839017  0.12457243692822588  0.45741184752213815  1.0000
  H   H49       1.0  0.5781959145626842  0.31585070236626944  0.9199338671545332  1.0000
  H   H50       1.0  0.18601942127301643  0.5781956476307287  0.9199334322773751  1.0000
  H   H51       1.0  0.3158508254966392  0.1860204446167445  0.9199336595289438  1.0000
  H   H52       1.0  0.9218049980824218  0.3139802209039716  0.5800656427579299  1.0000
  H   H53       1.0  0.3139793562139488  0.18414970273094872  0.580065759178936  1.0000
  H   H54       1.0  0.18414917519690022  0.9218055056635209  0.5800651572979091  1.0000
  H   H55       1.0  0.4218051458623435  0.6841475938155526  0.08006632523071036  1.0000
  H   H56       1.0  0.8139804495636156  0.42180416917516067  0.08006659656977198  1.0000
  H   H57       1.0  0.6841496401845575  0.813979732340286  0.08006638119986326  1.0000
  H   H58       1.0  0.0781948727542172  0.6860195959019179  0.4199343860892101  1.0000
  H   H59       1.0  0.686019919828489  0.8158508743869746  0.41993418789915854  1.0000
  H   H60       1.0  0.8158506960381897  0.07819543195373778  0.4199343176500606  1.0000
  H   H61       1.0  0.8739340094340377  0.37586451907554186  0.8425370551530376  1.0000
  H   H62       1.0  0.9076646062787147  0.873934161358605  0.8425366958318032  1.0000
  H   H63       1.0  0.37586417765729857  0.9076651669017437  0.8425361732421093  1.0000
  H   H64       1.0  0.6260663394497711  0.5923341009975049  0.6574644779806107  1.0000
  H   H65       1.0  0.5923351516992311  0.12413486787129824  0.6574633438655937  1.0000
  H   H66       1.0  0.1241352681619077  0.6260663408821757  0.657464017595103  1.0000
  H   H67       1.0  0.1260658614025942  0.6241352977303479  0.157462973694109  1.0000
  H   H68       1.0  0.0923352645579243  0.1260656554472845  0.1574633330153432  1.0000
  H   H69       1.0  0.6241356940747381  0.09233521100620118  0.15746261063189584  1.0000
  H   H70       1.0  0.3739335308395439  0.40766515505451656  0.3425363118278994  1.0000
  H   H71       1.0  0.4076647192862665  0.8758643888770906  0.34253647791935987  1.0000
  H   H72       1.0  0.87586519732006  0.3739332756691739  0.3425363000832816  1.0000
  H   H73       1.0  0.9368419622744995  0.2773347908312188  0.8460258287697897  1.0000
  H   H74       1.0  0.9397984454723697  0.9368413320662796  0.8460258478561898  1.0000
  H   H75       1.0  0.27733437222808976  0.9397987137562394  0.846025469226518  1.0000
  H   H76       1.0  0.5631589695362037  0.5602005167002133  0.6539748116282452  1.0000
  H   H77       1.0  0.560200732692209  0.22266483090202638  0.6539748711845091  1.0000
  H   H78       1.0  0.22266566561987128  0.5631582128670304  0.6539745327602801  1.0000
  H   H79       1.0  0.06315790891022031  0.7226650263228579  0.15397371606557894  1.0000
  H   H80       1.0  0.06020142516504021  0.06315792433392892  0.15397445794054215  1.0000
  H   H81       1.0  0.7226654984596834  0.06020166310714365  0.15397476668282198  1.0000
  H   H82       1.0  0.4368414960946296  0.4397985397936425  0.3460252989879463  1.0000
  H   H83       1.0  0.4397991380940596  0.7773338654406816  0.3460252275500294  1.0000
  H   H84       1.0  0.7773348000613255  0.4368419640900002  0.34602550796852666  1.0000
  H   H85       1.0  0.876769650180357  0.3006902719859709  0.9351994812437567  1.0000
  H   H86       1.0  0.8873402451069837  0.8767704137284796  0.9351989261514501  1.0000
  H   H87       1.0  0.3006901965650073  0.8873405972438493  0.9351988864621246  1.0000
  H   H88       1.0  0.6232295035427811  0.612658934258775  0.5648023003489087  1.0000
  H   H89       1.0  0.6126595204265611  0.19931016506603075  0.564801041454004  1.0000
  H   H90       1.0  0.19930865158128344  0.6232304946378094  0.5648021276740066  1.0000
  H   H91       1.0  0.123230220656275  0.6993095448199185  0.06480054760339012  1.0000
  H   H92       1.0  0.1126596257296555  0.12322940307740997  0.06480110269569647  1.0000
  H   H93       1.0  0.6993108642584714  0.11265881974934192  0.06480075202395581  1.0000
  H   H94       1.0  0.3767703669457704  0.3873408821989274  0.4351982125100163  1.0000
  H   H95       1.0  0.387340945751582  0.8006894521816933  0.43519830820083155  1.0000
  H   H96       1.0  0.8006906241130665  0.37677008213192664  0.4351983034158663  1.0000
  H   H97       1.0  0.5527581452544935  0.4684360961838153  0.0515543571973893  1.0000
  H   H98       1.0  0.9272502852356511  0.5527587067040045  0.05155428103814344  1.0000
  H   H99       1.0  0.46843657683614737  0.9272507207984334  0.0515539124016442  1.0000
  H   H100      1.0  0.9472416102996134  0.5727491424577665  0.44844654814837537  1.0000
  H   H101      1.0  0.5727488314394904  0.03156268428524798  0.4484467372114764  1.0000
  H   H102      1.0  0.03156289593886189  0.9472419679293294  0.4484461014529374  1.0000
  H   H103      1.0  0.4472411309368027  0.5315639208766143  0.9484453828185193  1.0000
  H   H104      1.0  0.0727495858002172  0.44724167050757296  0.9484454708594184  1.0000
  H   H105      1.0  0.5315638893419959  0.0727488964492977  0.9484454372531841  1.0000
  H   H106      1.0  0.05275826018893069  0.4272506739999358  0.5515539647105426  1.0000
  H   H107      1.0  0.4272516341913359  0.9684363722086075  0.5515533734047225  1.0000
  H   H108      1.0  0.9684369750969991  0.05275840928224078  0.5515536504446178  1.0000
  H   H109      1.0  0.5392239461917185  0.4097049142889731  0.0219113205355583  1.0000
  H   H110      1.0  0.0291600527511093  0.5392236054576074  0.02191106280771753  1.0000
  H   H111      1.0  0.4097053606212882  0.02916000203261152  0.021910727941801274  1.0000
  H   H112      1.0  0.9607763889860976  0.470840364129387  0.47808927580533817  1.0000
  H   H113      1.0  0.4708398943260761  0.09029407319132336  0.47809006283068084  1.0000
  H   H114      1.0  0.0902946220193641  0.9607765823049021  0.4780891523954408  1.0000
  H   H115      1.0  0.46077592464491346  0.5902949025169165  0.9780887083115883  1.0000
  H   H116      1.0  0.9708404127308583  0.46077601109374217  0.9780892548706744  1.0000
  H   H117      1.0  0.5902945098672631  0.9708398144250909  0.9780897849171241  1.0000
  H   H118      1.0  0.039224077043186895  0.5291598131758306  0.5219102809116904  1.0000
  H   H119      1.0  0.5291605715039794  0.9097055437082132  0.5219097708359327  1.0000
  H   H120      1.0  0.909705248867638  0.03922435496416918  0.5219108065643141  1.0000
  H   H121      1.0  0.612043386467313  0.45646701125177463  0.9567121498700645  1.0000
  H   H122      1.0  0.9747776677528606  0.6120430280485819  0.9567116553028897  1.0000
  H   H123      1.0  0.45646734830590674  0.9747775719255498  0.9567117887639469  1.0000
  H   H124      1.0  0.8879563690865239  0.5252221406710051  0.5432890697450361  1.0000
  H   H125      1.0  0.5252226519202097  0.04353182198126859  0.5432886822371683  1.0000
  H   H126      1.0  0.043532129297005895  0.8879570231511877  0.543288210686967  1.0000
  H   H127      1.0  0.3879564841700898  0.5435322451484268  0.043288155926667585  1.0000
  H   H128      1.0  0.0252227978779658  0.3879560284452666  0.04328845531330935  1.0000
  H   H129      1.0  0.5435325227299543  0.025222805286020385  0.04328796313361486  1.0000
  H   H130      1.0  0.112043501351657  0.4747765553235226  0.45671151300128077  1.0000
  H   H131      1.0  0.47477721891642216  0.956467994824621  0.4567113466099783  1.0000
  H   H132      1.0  0.956467741738855  0.11204335406038994  0.456711541210595  1.0000
  H   H133      1.0  0.8645741157323599  0.1764076208061879  0.09047707965617482  1.0000
  H   H134      1.0  0.8685412574069034  0.8645744903608159  0.09047661473569964  1.0000
  H   H135      1.0  0.1764071020082554  0.8685414585612252  0.0904771440005304  1.0000
  H   H136      1.0  0.6354256173165567  0.6314589130803725  0.40952391300444185  1.0000
  H   H137      1.0  0.6314591077945337  0.3235913555698957  0.40952337771713576  1.0000
  H   H138      1.0  0.32359173993829415  0.635425840479421  0.40952333620585774  1.0000
  H   H139      1.0  0.1354251603100849  0.8235929563117352  0.9095228674219199  1.0000
  H   H140      1.0  0.13145861362895767  0.13542588685075427  0.9095231371618623  1.0000
  H   H141      1.0  0.8235921736861015  0.131459118208511  0.9095232870893425  1.0000
  H   H142      1.0  0.3645742535200753  0.36854090372551707  0.5904761158427048  1.0000
  H   H143      1.0  0.36854135803552174  0.6764082613296409  0.5904764559494711  1.0000
  H   H144      1.0  0.6764081310975669  0.36457453673214973  0.590476415691704  1.0000
  H   H145      1.0  0.846919557576399  0.1656542261893249  0.02087628229480747  1.0000
  H   H146      1.0  0.9665505249944673  0.846919435091891  0.020875888679569396  1.0000
  H   H147      1.0  0.16565463547014048  0.9665502597650641  0.020875032931222455  1.0000
  H   H148      1.0  0.6530801651145878  0.5334493455030654  0.4791245661257405  1.0000
  H   H149      1.0  0.5334492444419326  0.3343459875580521  0.47912444894071615  1.0000
  H   H150      1.0  0.33434540794089423  0.6530802251923761  0.4791245671554733  1.0000
  H   H151      1.0  0.15307971791872885  0.8343457901747301  0.9791244257446505  1.0000
  H   H152      1.0  0.03344934584216469  0.1530803817139983  0.9791241401675773  1.0000
  H   H153      1.0  0.8343458309072317  0.033449917888347634  0.9791240397740282  1.0000
  H   H154      1.0  0.34691970537395633  0.466550470954637  0.5208759467331772  1.0000
  H   H155      1.0  0.4665506260466116  0.6656538288996502  0.5208760639182086  1.0000
  H   H156      1.0  0.6656538675542335  0.34691979117167915  0.5208761408839848  1.0000
  H   H157      1.0  0.8056072570569199  0.11906256584538268  0.1239208664038855  1.0000
  H   H158      1.0  0.9514093807286487  0.8056073066312806  0.123920576473452  1.0000
  H   H159      1.0  0.11906242142270426  0.9514094699734205  0.12392055287246238  1.0000
  H   H160      1.0  0.6943924623814013  0.5485904551817811  0.37608029837005563  1.0000
  H   H161      1.0  0.548589794153365  0.3809371412561333  0.37608005188707233  1.0000
  H   H162      1.0  0.38093702911236693  0.6943929395280933  0.37607979850523776  1.0000
  H   H163      1.0  0.1943926139789482  0.8809378113661879  0.8760788854936762  1.0000
  H   H164      1.0  0.048591085101406896  0.19439231026825612  0.8760792571931615  1.0000
  H   H165      1.0  0.8809374496131638  0.048590907238150426  0.8760791990250995  1.0000
  H   H166      1.0  0.305607408306372  0.45140992168160937  0.6239199375392841  1.0000
  H   H167      1.0  0.45141007633518626  0.619062675201569  0.6239204609718527  1.0000
  H   H168      1.0  0.6190628419234941  0.3056074376834771  0.6239199533923241  1.0000
  H   H169      1.0  0.49324455408198264  0.5602191836066837  0.21910117200323498  1.0000
  H   H170      1.0  0.7274352277732561  0.49324403619919366  0.21910204309749312  1.0000
  H   H171      1.0  0.5602190773774041  0.727435603213799  0.21910163195425245  1.0000
  H   H172      1.0  0.006756056207578399  0.7725646697125655  0.28089896121702645  1.0000
  H   H173      1.0  0.7725645648889454  0.9397804059421588  0.2808996715651304  1.0000
  H   H174      1.0  0.9397806488103271  0.006755379326257652  0.2808990471569714  1.0000
  H   H175      1.0  0.5067559122953896  0.4397809940467212  0.7808979007020084  1.0000
  H   H176      1.0  0.272564643262605  0.5067563410123839  0.7808977088000688  1.0000
  H   H177      1.0  0.4397807936584641  0.2725647739977717  0.7808981199433092  1.0000
  H   H178      1.0  0.9932444094736184  0.22743550724446493  0.7191010795117804  1.0000
  H   H179      1.0  0.2274353057988279  0.060219970921231374  0.7191005643442023  1.0000
  H   H180      1.0  0.06021981701972829  0.9932442375732796  0.7191007865096423  1.0000
  C   C1        1.0  0.619149034539383  0.27007480755246155  0.9532005386680777  1.0000
  C   C2        1.0  0.15757639545203966  0.6191486895837884  0.9531997364437643  1.0000
  C   C3        1.0  0.2700749640563131  0.1575762459195928  0.9532000880015231  1.0000
  C   C4        1.0  0.8808518761798466  0.34242332782537954  0.5467993309240384  1.0000
  C   C5        1.0  0.34242358024662417  0.22992574317086675  0.5467992279879325  1.0000
  C   C6        1.0  0.2299250295917048  0.8808518888878327  0.5467992437201731  1.0000
  C   C7        1.0  0.38085083574993217  0.7299244484995596  0.04680025114043217  1.0000
  C   C8        1.0  0.8424240703780228  0.38085092731574843  0.046800097222842514  1.0000
  C   C9        1.0  0.7299255016248836  0.8424239310374373  0.04679995272727642  1.0000
  C   C10       1.0  0.11914858999829651  0.6575762894223445  0.4532000187307972  1.0000
  C   C11       1.0  0.6575762913365536  0.770075194794579  0.45319976294825887  1.0000
  C   C12       1.0  0.7700748416433854  0.11914904872942593  0.45320023122780373  1.0000
  C   C13       1.0  0.6984953963383518  0.2806588730743087  0.9133602951849085  1.0000
  C   C14       1.0  0.1074851138483126  0.6984960685271491  0.9133603856849957  1.0000
  C   C15       1.0  0.28065808850779206  0.10748551331583667  0.9133609254327482  1.0000
  C   C16       1.0  0.8015043310657716  0.3925145033859608  0.586638802920639  1.0000
  C   C17       1.0  0.3925142732407068  0.21934222530179426  0.5866390943549715  1.0000
  C   C18       1.0  0.21934189228393558  0.8015046794596118  0.5866389707592744  1.0000
  C   C19       1.0  0.3015038797040858  0.7193417040436144  0.08663965189319375  1.0000
  C   C20       1.0  0.8925147569883264  0.3015037482787407  0.08663964316215113  1.0000
  C   C21       1.0  0.7193423769741755  0.8925141032355203  0.08663939224564397  1.0000
  C   C22       1.0  0.1984961347642837  0.6074851135135758  0.41336103074596764  1.0000
  C   C23       1.0  0.6074855979440129  0.7806575918522823  0.41336045048039705  1.0000
  C   C24       1.0  0.7806579787519254  0.19849569775195883  0.41336078113828717  1.0000
  C   C25       1.0  0.738886544850409  0.2933984555856741  0.943097246878473  1.0000
  C   C26       1.0  0.0246185444627258  0.7388871745818334  0.9430970075508256  1.0000
  C   C27       1.0  0.2933980780782264  0.024618689238820886  0.9430971516568574  1.0000
  C   C28       1.0  0.7611131912903417  0.4753814341809744  0.5569024902293762  1.0000
  C   C29       1.0  0.47538143993850207  0.20660214927799816  0.556902751359452  1.0000
  C   C30       1.0  0.206603080749538  0.761112799378246  0.5569024860940885  1.0000
  C   C31       1.0  0.2611133258373641  0.7066019212777164  0.056902989030866956  1.0000
  C   C32       1.0  0.9753819210696122  0.26111356243269784  0.056903240240167595  1.0000
  C   C33       1.0  0.7066035777890464  0.9753816483111918  0.056902221761291207  1.0000
  C   C34       1.0  0.23888667954629028  0.5246183826249149  0.4430975386177708  1.0000
  C   C35       1.0  0.5246184310469886  0.7933971074703976  0.4430970704255016  1.0000
  C   C36       1.0  0.7933967902863229  0.23888757783333156  0.4430972658034733  1.0000
  C   C37       1.0  0.81188445076517  0.29711834994166253  0.8828333566799101  1.0000
  C   C38       1.0  0.008164236516222402  0.8118843449928691  0.8828329722298702  1.0000
  C   C39       1.0  0.2971187984708267  0.008164768941583096  0.8828329725839906  1.0000
  C   C40       1.0  0.6881164765792745  0.4918352940480587  0.6171669963029771  1.0000
  C   C41       1.0  0.4918351593201251  0.20288086863414628  0.617167308527115  1.0000
  C   C42       1.0  0.20288116163006717  0.6881161540838363  0.6171672445484688  1.0000
  C   C43       1.0  0.18811542007146187  0.7028814668642268  0.11716667216723661  1.0000
  C   C44       1.0  0.9918362293138332  0.18811527190666752  0.1171668614367363  1.0000
  C   C45       1.0  0.7028822624030225  0.9918357685147898  0.117166596014691  1.0000
  C   C46       1.0  0.3118839892507808  0.5081643228514849  0.38283283736362955  1.0000
  C   C47       1.0  0.5081641166719493  0.797118588020595  0.38283270843837164  1.0000
  C   C48       1.0  0.7971181140642898  0.3118844226858998  0.3828331865414044  1.0000
  C   C49       1.0  0.8783394657898994  0.31308785839578235  0.876476729817611  1.0000
  C   C50       1.0  0.9320963922616412  0.8783386062153369  0.8764769355669626  1.0000
  C   C51       1.0  0.31308812540802927  0.9320967191560714  0.8764766570181164  1.0000
  C   C52       1.0  0.6216614699364413  0.56790266337498  0.6235242779859008  1.0000
  C   C53       1.0  0.56790337178996  0.18691150079686755  0.6235236441048784  1.0000
  C   C54       1.0  0.18691191693451967  0.6216608485812573  0.6235238897750789  1.0000
  C   C55       1.0  0.12166100023938499  0.6869123189094352  0.12352282689941062  1.0000
  C   C56       1.0  0.06790407336918489  0.12166045027851881  0.12352317504923595  1.0000
  C   C57       1.0  0.6869129352665906  0.06790325789461361  0.12352318853015025  1.0000
  C   C58       1.0  0.3783389953463043  0.4320963927706885  0.3764763166420764  1.0000
  C   C59       1.0  0.4320964991955307  0.8130877559515282  0.3764761776800754  1.0000
  C   C60       1.0  0.8130885485474479  0.3783387679700923  0.3764764279033128  1.0000
  C   C61       1.0  0.7118461061976972  0.29806752495103706  0.02112201274396598  1.0000
  C   C62       1.0  0.9689648434652581  0.711845948903047  0.02112223052452576  1.0000
  C   C63       1.0  0.2980669677630203  0.9689650142041514  0.02112189295853997  1.0000
  C   C64       1.0  0.7881542243666146  0.5310356759081716  0.4788781183517086  1.0000
  C   C65       1.0  0.5310354948426338  0.20193189661116406  0.47887845827818853  1.0000
  C   C66       1.0  0.2019318987543386  0.7881539787796827  0.4788782803327932  1.0000
  C   C67       1.0  0.28815316964551835  0.7019324917611984  0.9788782112837139  1.0000
  C   C68       1.0  0.0310356220167165  0.28815366764830236  0.978878087153866  1.0000
  C   C69       1.0  0.7019329032728407  0.031035363007418878  0.9788778589390216  1.0000
  C   C70       1.0  0.21184624131458207  0.46896450104885923  0.5211219223770909  1.0000
  C   C71       1.0  0.4689643757947763  0.7980673597890373  0.5211218475185432  1.0000
  C   C72       1.0  0.7980673772880988  0.21184659833824085  0.5211216667453015  1.0000
  C   C73       1.0  0.6448193328391553  0.3552015816973366  0.05327500290562883  1.0000
  C   C74       1.0  0.9467043213941578  0.6448189182148168  0.053274757469260824  1.0000
  C   C75       1.0  0.3552014896197447  0.9467043999944593  0.05327455096511389  1.0000
  C   C76       1.0  0.8551804101347642  0.5532959578714269  0.44672564834312556  1.0000
  C   C77       1.0  0.5532960050919016  0.1447975703685529  0.4467257631147135  1.0000
  C   C78       1.0  0.14479738091795014  0.8551806903056517  0.4467260194715975  1.0000
  C   C79       1.0  0.3551799430040532  0.6447984350149057  0.946725221122051  1.0000
  C   C80       1.0  0.0532955494424741  0.35518089859107255  0.9467252713778859  1.0000
  C   C81       1.0  0.6447983812168872  0.05329541681143023  0.9467254778820333  1.0000
  C   C82       1.0  0.1448194607018678  0.4467038589344625  0.5532743805040211  1.0000
  C   C83       1.0  0.44670446073815373  0.8552020465309835  0.5532740705519003  1.0000
  C   C84       1.0  0.8552018947763999  0.14481988646408436  0.5532744116182753  1.0000
  C   C85       1.0  0.5840682816620628  0.42619583394319005  0.019227963575978845  1.0000
  C   C86       1.0  0.9705080526251137  0.5840678110264718  0.019227989349090473  1.0000
  C   C87       1.0  0.4261955180925412  0.9705082327469301  0.019227870149997293  1.0000
  C   C88       1.0  0.9159314660750512  0.5294923769771317  0.4807723761612264  1.0000
  C   C89       1.0  0.529492260826153  0.07380324519142076  0.48077303528850024  1.0000
  C   C90       1.0  0.0738033609159885  0.9159321789727952  0.48077223079506126  1.0000
  C   C91       1.0  0.41593158952265696  0.5738039832108867  0.9807715812593897  1.0000
  C   C92       1.0  0.029492413204941705  0.4159318058730647  0.9807718443175234  1.0000
  C   C93       1.0  0.5738043527440979  0.029491584058959637  0.9807721586971494  1.0000
  C   C94       1.0  0.08406780976816458  0.4705076397351108  0.5192278478664534  1.0000
  C   C95       1.0  0.4705082046558147  0.9261963713599287  0.5192272823898919  1.0000
  C   C96       1.0  0.9261959151264493  0.08406839814513488  0.5192277162830335  1.0000
  C   C97       1.0  0.8199910433122639  0.17283538642016794  0.07893043472738975  1.0000
  C   C98       1.0  0.9282430630607479  0.819991229298552  0.07892996639604627  1.0000
  C   C99       1.0  0.1728355864405415  0.928243121895342  0.07892984711637747  1.0000
  C   C100      1.0  0.68000868386288  0.5717569493063692  0.42107026255320074  1.0000
  C   C101      1.0  0.571756702941471  0.32716378252507644  0.4210705842103266  1.0000
  C   C102      1.0  0.3271638607278575  0.6800086493549174  0.4210701632543206  1.0000
  C   C103      1.0  0.1800088275243681  0.8271644303857215  0.9210695941197569  1.0000
  C   C104      1.0  0.07175680777588408  0.1800085875073378  0.9210700624511003  1.0000
  C   C105      1.0  0.8271642845953195  0.07175725531622851  0.9210699047811842  1.0000
  C   C106      1.0  0.319991187172981  0.4282434279052012  0.5789294893443611  1.0000
  C   C107      1.0  0.4282431673478442  0.6728354735269377  0.5789302055981835  1.0000
  C   C108      1.0  0.6728360101087744  0.31999116745097217  0.5789298655928262  1.0000
  C   C109      1.0  0.7473639499901664  0.2452280847934247  0.08100024083181985  1.0000
  C   C110      1.0  0.9264082305227035  0.747363772618485  0.0809995421659906  1.0000
  C   C111      1.0  0.24522831170029488  0.9264081988525066  0.08099953194550111  1.0000
  C   C112      1.0  0.7526363791571953  0.573591965999711  0.4190004851687945  1.0000
  C   C113      1.0  0.5735921165944617  0.2547709552733012  0.4190007149896076  1.0000
  C   C114      1.0  0.2547705472255188  0.7526365014141448  0.41900075503759393  1.0000
  C   C115      1.0  0.2526359208464726  0.7547717320124647  0.918999788015327  1.0000
  C   C116      1.0  0.07359223530735191  0.2526358442810519  0.9190002915006231  1.0000
  C   C117      1.0  0.754771559335566  0.07359217835906422  0.9190002199520533  1.0000
  C   C118      1.0  0.24736408687208913  0.4264082113055139  0.5809990715482272  1.0000
  C   C119      1.0  0.42640775424217037  0.7452288615325885  0.5809993138575391  1.0000
  C   C120      1.0  0.7452287284688381  0.24736407535559113  0.5809996760522792  1.0000
  C   C121      1.0  0.6303503017468799  0.4373390526712129  0.21929703700514824  1.0000
  C   C122      1.0  0.7130140775364495  0.6303499696662629  0.21929721850391082  1.0000
  C   C123      1.0  0.4373389466193913  0.7130139381883183  0.21929668683196007  1.0000
  C   C124      1.0  0.8696494717766542  0.7869866388787513  0.280703376720304  1.0000
  C   C125      1.0  0.7869862387949664  0.06266059597757603  0.2807045011606561  1.0000
  C   C126      1.0  0.062661093013233  0.8696490829667312  0.2807032227603515  1.0000
  C   C127      1.0  0.3696495692889812  0.5626613245403576  0.7807027148924133  1.0000
  C   C128      1.0  0.2869863882936058  0.36964964723327404  0.7807026151626955  1.0000
  C   C129      1.0  0.5626609244164698  0.28698643902325227  0.7807030650656016  1.0000
  C   C130      1.0  0.1303509939045426  0.21301353807828602  0.7192966640084959  1.0000
  C   C131      1.0  0.21301422688623006  0.9373395809794544  0.719295539568151  1.0000
  C   C132      1.0  0.9373393724687347  0.13035053358462528  0.7192970949180335  1.0000
  C   C133      1.0  0.6113615081538271  0.5175132874016273  0.22081433820951446  1.0000
  C   C134      1.0  0.6503119017270081  0.6113611987803722  0.2208141318729062  1.0000
  C   C135      1.0  0.5175133364133871  0.6503117738218477  0.22081388188586  1.0000
  C   C136      1.0  0.8886376832248715  0.8496882169569774  0.27918751421101007  1.0000
  C   C137      1.0  0.8496879060120648  0.9824861908771821  0.27918812831375533  1.0000
  C   C138      1.0  0.9824864667707018  0.8886376250634742  0.27918736946244854  1.0000
  C   C139      1.0  0.3886377680878397  0.4824878501219844  0.7791853319189952  1.0000
  C   C140      1.0  0.34968856465036413  0.3886389788730327  0.7791849408323445  1.0000
  C   C141      1.0  0.482486534622481  0.3496886033897296  0.7791858700117018  1.0000
  C   C142      1.0  0.1113621872636799  0.1503115995007249  0.7208129986479148  1.0000
  C   C143      1.0  0.1503125594699029  0.017513425674167107  0.7208121893646364  1.0000
  C   C144      1.0  0.017513999059353597  0.11136199183606268  0.7208124642041652  1.0000
  C   C145      1.0  0.5362732555067851  0.5749524570501094  0.2207513599260835  1.0000
  C   C146      1.0  0.6680230945618177  0.5362733341933608  0.22075204954688105  1.0000
  C   C147      1.0  0.5749518010839552  0.6680234697300805  0.22075124633791168  1.0000
  C   C148      1.0  0.9637259404856878  0.8319760886649238  0.2792493905076512  1.0000
  C   C149      1.0  0.8319761055469144  0.9250478956837113  0.27925025218595334  1.0000
  C   C150      1.0  0.9250480111675401  0.9637252485302097  0.27924980859620535  1.0000
  C   C151      1.0  0.4637260207348817  0.4250486804734948  0.779248310202426  1.0000
  C   C152      1.0  0.3319767764740504  0.4637270430182099  0.7792477023506803  1.0000
  C   C153      1.0  0.4250480699519059  0.3319769074814972  0.7792485055596429  1.0000
  C   C154      1.0  0.0362745253443748  0.16802352823462036  0.7207504431589626  1.0000
  C   C155      1.0  0.16802376528971757  0.0749519211221781  0.7207497766611936  1.0000
  C   C156      1.0  0.0749524546625153  0.036274368369333815  0.7207500250704015  1.0000
  N   N1        1.0  0.7044280630168132  0.2692981819098251  0.1446748865860669  1.0000
  N   N2        1.0  0.8815991443024841  0.7044278506962981  0.1446748461156988  1.0000
  N   N3        1.0  0.26929785777198834  0.8815993090902693  0.14467449959533257  1.0000
  N   N4        1.0  0.7955716781837479  0.618401133138697  0.35532544877437294  1.0000
  N   N5        1.0  0.6184011962948189  0.23070170377596366  0.3553255150273102  1.0000
  N   N6        1.0  0.2307015961677976  0.7955718610943948  0.3553253130791559  1.0000
  N   N7        1.0  0.2955712130256245  0.7307023952080982  0.8553250604920278  1.0000
  N   N8        1.0  0.11840072618606  0.29557196576140404  0.8553256667432264  1.0000
  N   N9        1.0  0.7307020132638726  0.11840106812130814  0.8553252523022291  1.0000
  N   N10       1.0  0.2044281925040252  0.3815992437246862  0.6446747871349601  1.0000
  N   N11       1.0  0.3815992695352363  0.7692979131235731  0.6446743186392964  1.0000
  N   N12       1.0  0.769297679675418  0.2044281556178477  0.644674910948524  1.0000
  N   N13       1.0  0.6425997956906356  0.335049140728316  0.1270826032152996  1.0000
  N   N14       1.0  0.8952690223760696  0.6425995755295874  0.1270819515782903  1.0000
  N   N15       1.0  0.3350495085781374  0.8952683371250814  0.12708233363714785  1.0000
  N   N16       1.0  0.8573999501416125  0.6047314473981018  0.37291825760397057  1.0000
  N   N17       1.0  0.6047313058827157  0.1649502420520434  0.3729185026017204  1.0000
  N   N18       1.0  0.16495054696726189  0.8573999754582218  0.37291818728371595  1.0000
  N   N19       1.0  0.35740007514599637  0.6649506760775736  0.872917425631847  1.0000
  N   N20       1.0  0.10473084846056928  0.35740024127630227  0.8729180772688564  1.0000
  N   N21       1.0  0.6649503620592654  0.10473091927512707  0.8729179721595841  1.0000
  N   N22       1.0  0.14259992054616083  0.3952689294652814  0.6270819783053695  1.0000
  N   N23       1.0  0.39526915959925196  0.8350493744993062  0.6270818150766713  1.0000
  N   N24       1.0  0.8350493238693701  0.14259984134766784  0.6270818415634307  1.0000
  N   N25       1.0  0.8113849717790841  0.2872354676988991  0.8230034378391266  1.0000
  N   N26       1.0  0.07837613252098659  0.8113846054847187  0.8230036947710244  1.0000
  N   N27       1.0  0.2872355192705598  0.07837637779820743  0.8230040052477674  1.0000
  N   N28       1.0  0.6886159483074222  0.42162265922198117  0.6769962946078536  1.0000
  N   N29       1.0  0.42162326451546045  0.21276462672205557  0.6769961723540731  1.0000
  N   N30       1.0  0.21276504222967668  0.6886158441581217  0.6769965668601684  1.0000
  N   N31       1.0  0.18861489925677688  0.7127649095126715  0.1769963140584351  1.0000
  N   N32       1.0  0.9216237386637333  0.18861521166935785  0.176995850064344  1.0000
  N   N33       1.0  0.7127655408567435  0.9216230384986019  0.17699660126186254  1.0000
  N   N34       1.0  0.311384517323404  0.5783763972718745  0.3230038160083383  1.0000
  N   N35       1.0  0.5783772013145949  0.787234990177481  0.3230036613125336  1.0000
  N   N36       1.0  0.7872348284580964  0.31138453270526173  0.3230036690491643  1.0000
  N   N37       1.0  0.743927988273924  0.27659490919995744  0.8404415774736973  1.0000
  N   N38       1.0  0.139035624339229  0.7439288763616715  0.8404417097670918  1.0000
  N   N39       1.0  0.2765941496876891  0.1390361912224876  0.8404417127664131  1.0000
  N   N40       1.0  0.7560717355797096  0.3609633419315941  0.6595576941026875  1.0000
  N   N41       1.0  0.36096317229961267  0.2234066582472992  0.6595582682577401  1.0000
  N   N42       1.0  0.2234064249558543  0.7560724461591449  0.6595577190320936  1.0000
  N   N43       1.0  0.2560718829611659  0.7234060284173012  0.15955789747427218  1.0000
  N   N44       1.0  0.86096424649741  0.25607094044421813  0.15955831908005527  1.0000
  N   N45       1.0  0.7234069107877018  0.8609632254225161  0.15955840973143856  1.0000
  N   N46       1.0  0.24392873025034584  0.6390362749679428  0.340442139563926  1.0000
  N   N47       1.0  0.6390366985370263  0.7765931585585903  0.34044176058940684  1.0000
  N   N48       1.0  0.7765934460800068  0.24392793105243257  0.34044203286546787  1.0000
  O   O1        1.0  0.6997271592008758  0.3868339332794477  0.2204812426964509  1.0000
  O   O2        1.0  0.6929577616253297  0.699727577095075  0.22048081996892682  1.0000
  O   O3        1.0  0.3868344725829971  0.6929580865289753  0.22048043320702235  1.0000
  O   O4        1.0  0.8002726114941296  0.8070417366570553  0.2795190314474426  1.0000
  O   O5        1.0  0.8070413768742525  0.1131664493611454  0.27952042276902483  1.0000
  O   O6        1.0  0.11316674825731349  0.8002720561810294  0.27951933193210715  1.0000
  O   O7        1.0  0.3002721162942521  0.6131660830846072  0.7795194653430072  1.0000
  O   O8        1.0  0.30704210975861906  0.30027280046468974  0.7795184479168569  1.0000
  O   O9        1.0  0.6131653981047762  0.30704229033441527  0.7795198027023176  1.0000
  O   O10       1.0  0.1997278541870671  0.19295844029997514  0.7204810092813645  1.0000
  O   O11       1.0  0.19295849346543284  0.8868339271540581  0.7204802971520932  1.0000
  O   O12       1.0  0.8868331222312305  0.19972776027667305  0.7204811809268179  1.0000
  O   O13       1.0  0.5771085755251733  0.42511796425692683  0.21680945075808464  1.0000
  O   O14       1.0  0.7809641439785507  0.5771098185146785  0.21680888289530023  1.0000
  O   O15       1.0  0.4251171062008439  0.7809648146806721  0.21680930745318977  1.0000
  O   O16       1.0  0.9228911906473627  0.7190365822673288  0.2831904617186396  1.0000
  O   O17       1.0  0.7190361695349238  0.07488187161440152  0.28319126889513063  1.0000
  O   O18       1.0  0.07488175565428179  0.9228914299005169  0.2831902248397995  1.0000
  O   O19       1.0  0.4228907001691765  0.5748826125128089  0.7831909803317884  1.0000
  O   O20       1.0  0.219035727405398  0.4228905590450865  0.7831903849904832  1.0000
  O   O21       1.0  0.5748827641388417  0.21903556183452386  0.7831914124679286  1.0000
  O   O22       1.0  0.0771086798411815  0.28096323419037356  0.7168100511402854  1.0000
  O   O23       1.0  0.2809648909404673  0.9251175450305954  0.7168088536027282  1.0000
  O   O24       1.0  0.9251181150334914  0.07710894696286631  0.7168100110695405  1.0000
