data_image0
_chemical_formula_structural       Cu2H8C12N4Cl4O8
_chemical_formula_sum              "Cu2 H8 C12 N4 Cl4 O8"
_cell_length_a       6.5100560845129944
_cell_length_b       6.510058946654617
_cell_length_c       13.739540864319563
_cell_angle_alpha    86.79851155607368
_cell_angle_beta     86.79931185411365
_cell_angle_gamma    62.07954987300566

_space_group_name_H-M_alt    "P 1"
_space_group_IT_number       1

loop_
  _space_group_symop_operation_xyz
  'x, y, z'

loop_
  _atom_site_type_symbol
  _atom_site_label
  _atom_site_symmetry_multiplicity
  _atom_site_fract_x
  _atom_site_fract_y
  _atom_site_fract_z
  _atom_site_occupancy
  Cu  Cu1       1.0  0.10298142973113751  0.8970306125131629  0.7499975313660487  1.0000
  Cu  Cu2       1.0  0.8970122051813264  0.1029884346507117  0.2499959778826693  1.0000
  H   H1        1.0  0.3461920349719563  0.5194643080830942  0.8952583196660768  1.0000
  H   H2        1.0  0.48052964492735134  0.6538205710751865  0.6047435579626211  1.0000
  H   H3        1.0  0.6538259491467003  0.48053467999553584  0.1047473866018578  1.0000
  H   H4        1.0  0.5194514179419727  0.34618243944937177  0.39524828502671744  1.0000
  H   H5        1.0  0.6641338880771029  0.0684213526399446  0.054995399647509706  1.0000
  H   H6        1.0  0.9315694686265344  0.33585472072407896  0.4450078692562088  1.0000
  H   H7        1.0  0.3358786085175893  0.9315683768893024  0.9450022079695232  1.0000
  H   H8        1.0  0.06843771454077098  0.6641248668123578  0.5549984256499344  1.0000
  C   C1        1.0  0.46029964363248155  0.4652263444730094  0.8305663342210324  1.0000
  C   C2        1.0  0.5347832035387725  0.5396975396612189  0.6694397696100157  1.0000
  C   C3        1.0  0.5396964747703237  0.534782802785557  0.16943842563782854  1.0000
  C   C4        1.0  0.4652253026019506  0.4603010363805069  0.3305605401481344  1.0000
  C   C5        1.0  0.6683790538106326  0.2569888388659222  0.8304237212693621  1.0000
  C   C6        1.0  0.74300151243812  0.33163250572690817  0.6695786112529805  1.0000
  C   C7        1.0  0.3316256578104556  0.7429923556193502  0.16958042590903943  1.0000
  C   C8        1.0  0.25700569492149583  0.668370963299395  0.3304149854542261  1.0000
  C   C9        1.0  0.7473172327264807  0.09179328504356479  0.9176333387979343  1.0000
  C   C10       1.0  0.9082014732317134  0.2526838883723527  0.5823668724364455  1.0000
  C   C11       1.0  0.25267871142771964  0.9081965119570157  0.08237008710278101  1.0000
  C   C12       1.0  0.09178700427623443  0.747314301305714  0.4176314137361318  1.0000
  N   N1        1.0  0.39634180459327667  0.603662533119028  0.7499954429423212  1.0000
  N   N2        1.0  0.6036650365104421  0.39633694631032773  0.24998887350666624  1.0000
  N   N3        1.0  0.8062687079282113  0.19374336824428434  0.7500027847760224  1.0000
  N   N4        1.0  0.19372929563824934  0.8062625290475722  0.2500064054721847  1.0000
  Cl  Cl1       1.0  0.9128704575764817  0.7174644706447068  0.6830383647767563  1.0000
  Cl  Cl2       1.0  0.2825322613172645  0.08715020731321489  0.8169598259456023  1.0000
  Cl  Cl3       1.0  0.08713099012489067  0.28253565824228843  0.3169599996544434  1.0000
  Cl  Cl4       1.0  0.7174565945427389  0.9128639127067257  0.18304139138570724  1.0000
  O   O1        1.0  0.9204305344516186  0.900762945082846  0.9132770188679944  1.0000
  O   O2        1.0  0.0992352607238658  0.07957571987136448  0.5867284355054282  1.0000
  O   O3        1.0  0.0795862789414699  0.09923744010680477  0.08672212122174022  1.0000
  O   O4        1.0  0.900757649541866  0.9204176888486161  0.4132778791120728  1.0000
  O   O5        1.0  0.6092933930257728  0.17920108314740443  0.9952507584806584  1.0000
  O   O6        1.0  0.8207919104696657  0.39070734987571115  0.504743173549798  1.0000
  O   O7        1.0  0.39070520901940153  0.8208183979072597  0.004749800006472109  1.0000
  O   O8        1.0  0.17919523023321904  0.6092956948082103  0.4952476744078994  1.0000
