data_image0
_chemical_formula_structural       Cu4H36C40I4N4
_chemical_formula_sum              "Cu4 H36 C40 I4 N4"
_cell_length_a       4.068762121064689
_cell_length_b       9.704204273705418
_cell_length_c       24.535662730501663
_cell_angle_alpha    89.99927360879167
_cell_angle_beta     90.00019017854882
_cell_angle_gamma    98.4014046473987

_space_group_name_H-M_alt    "P 1"
_space_group_IT_number       1

loop_
  _space_group_symop_operation_xyz
  'x, y, z'

loop_
  _atom_site_type_symbol
  _atom_site_label
  _atom_site_symmetry_multiplicity
  _atom_site_fract_x
  _atom_site_fract_y
  _atom_site_fract_z
  _atom_site_occupancy
  Cu  Cu1       1.0  0.8463653406118965  0.0846387244366085  0.1368514336643472  1.0000
  Cu  Cu2       1.0  0.6536414073260062  0.4153666505012765  0.6368562029957161  1.0000
  Cu  Cu3       1.0  0.15363494608142506  0.9153590499343807  0.8631441964572987  1.0000
  Cu  Cu4       1.0  0.3463534006497185  0.5846373165901043  0.3631475785088654  1.0000
  H   H1        1.0  0.34792620874551267  0.8290979818726216  0.2457822959706206  1.0000
  H   H2        1.0  0.15205341158286245  0.6709009963375293  0.7457899173682706  1.0000
  H   H3        1.0  0.6520553234083978  0.17090276739104127  0.7542121114283374  1.0000
  H   H4        1.0  0.8478941774679072  0.32909326061622585  0.2542207928373301  1.0000
  H   H5        1.0  0.7439400578260873  0.9135894317910456  0.2647904450966294  1.0000
  H   H6        1.0  0.7560315956142957  0.5864196559693725  0.7647993624107913  1.0000
  H   H7        1.0  0.2560402856927908  0.08641546475183762  0.7352031471516368  1.0000
  H   H8        1.0  0.24389915174660357  0.41358382485904593  0.2352080872070488  1.0000
  H   H9        1.0  0.5143790313398853  0.9910844329947113  0.21389692143448974  1.0000
  H   H10       1.0  0.9855877181909422  0.5089116823852324  0.7139083927531616  1.0000
  H   H11       1.0  0.48560218199548183  0.008915274809524502  0.7860954481169956  1.0000
  H   H12       1.0  0.014352798058318694  0.4910835599595771  0.2861023174479911  1.0000
  H   H13       1.0  0.665711640700458  0.6223220708185552  0.2322568765175532  1.0000
  H   H14       1.0  0.8342605142897168  0.8776745432885988  0.7322607127742558  1.0000
  H   H15       1.0  0.33427171772205355  0.3776766140976378  0.7677416065870587  1.0000
  H   H16       1.0  0.1657167277922227  0.1223282513776027  0.2677451065783245  1.0000
  H   H17       1.0  0.9372017097482014  0.4917358246284208  0.1607381186154555  1.0000
  H   H18       1.0  0.5628144628277453  0.008266787202934703  0.6607403899029408  1.0000
  H   H19       1.0  0.06279825814950613  0.5082609081994108  0.839260772068684  1.0000
  H   H20       1.0  0.4372133318801589  0.9917405475109223  0.3392605386124643  1.0000
  H   H21       1.0  0.20362457998574257  0.49338491152315106  0.0693162905275742  1.0000
  H   H22       1.0  0.2963889315131567  0.006625389656825601  0.5693162554073581  1.0000
  H   H23       1.0  0.7963617933192425  0.5066075618436302  0.9306821925934158  1.0000
  H   H24       1.0  0.7036592117686736  0.993384177674038  0.4306826352581723  1.0000
  H   H25       1.0  0.4044083434894716  0.6243315047585725  0.984932615707372  1.0000
  H   H26       1.0  0.09563575471644734  0.8756790919481932  0.4849315487750019  1.0000
  H   H27       1.0  0.5955967843531554  0.3756579937219726  0.015066682566306602  1.0000
  H   H28       1.0  0.9044237514917909  0.12432744439585264  0.5150681570412914  1.0000
  H   H29       1.0  0.34923216735043633  0.8737348600057828  0.976046135482804  1.0000
  H   H30       1.0  0.15081924553330586  0.6262760736800105  0.4760443089754034  1.0000
  H   H31       1.0  0.650787424897878  0.1262537092100473  0.0239515325172519  1.0000
  H   H32       1.0  0.8492261150719144  0.3737324334461433  0.523955396832001  1.0000
  H   H33       1.0  0.08837674055980221  0.9963149321046245  0.050177958904662  1.0000
  H   H34       1.0  0.4116773341830823  0.503698079912219  0.5501804483929078  1.0000
  H   H35       1.0  0.9116370541135551  0.0036787885138665002  0.949816856090912  1.0000
  H   H36       1.0  0.5883557070753723  0.49631033369364996  0.4498204801212751  1.0000
  C   C1        1.0  0.7311796243008999  0.8144650670300492  0.186788312986387  1.0000
  C   C2        1.0  0.7688176456055728  0.6855279823619045  0.6867947038766644  1.0000
  C   C3        1.0  0.2688172420875361  0.185529564185174  0.8132060944321677  1.0000
  C   C4        1.0  0.2311645242207163  0.3144748496917984  0.3132119306172001  1.0000
  C   C5        1.0  0.5743216160953606  0.8918557633003131  0.2298759681157847  1.0000
  C   C6        1.0  0.9256545762225343  0.6081461521426306  0.729884464151901  1.0000
  C   C7        1.0  0.42566484379585023  0.10814502337661479  0.7701176241444685  1.0000
  C   C8        1.0  0.07429365043886088  0.3918501878265914  0.2701242081986805  1.0000
  C   C9        1.0  0.7620729486256649  0.6724307248927133  0.1946225797483123  1.0000
  C   C10       1.0  0.7379088226619358  0.8275754666902627  0.6946282429253047  1.0000
  C   C11       1.0  0.2379073949073245  0.3275741715986413  0.8053742730599325  1.0000
  C   C12       1.0  0.26207795608134177  0.1724263613237227  0.3053751310123758  1.0000
  C   C13       1.0  0.9119725059711782  0.6012652243498166  0.1555731106395442  1.0000
  C   C14       1.0  0.5880316531043378  0.8987361395106319  0.6555771112621614  1.0000
  C   C15       1.0  0.08802960697662598  0.39873048572521697  0.8444233346277699  1.0000
  C   C16       1.0  0.41198875000291924  0.1012711390640035  0.34442626267129844  1.0000
  C   C17       1.0  0.03052226773991857  0.6706859341448279  0.1071709000615471  1.0000
  C   C18       1.0  0.46946386301477355  0.8293185227533258  0.6071697554774218  1.0000
  C   C19       1.0  0.9694687145014529  0.3293055351113878  0.8928288057732416  1.0000
  C   C20       1.0  0.530555583647427  0.17068563140438192  0.39282995033360624  1.0000
  C   C21       1.0  0.17960746871635538  0.6033245880033249  0.0644357657233314  1.0000
  C   C22       1.0  0.3204167575977053  0.8966783942407022  0.5644390916130959  1.0000
  C   C23       1.0  0.8203869338175522  0.3966700244537407  0.9355623098245616  1.0000
  C   C24       1.0  0.6796227188498636  0.10332695096508358  0.43556346719054767  1.0000
  C   C25       1.0  0.29014311701545387  0.6755672084970143  0.017990161793193196  1.0000
  C   C26       1.0  0.20988572155160776  0.8244455924015313  0.5179897113868108  1.0000
  C   C27       1.0  0.7098647935002518  0.3244233502011226  0.9820075061986202  1.0000
  C   C28       1.0  0.7901550301225199  0.1755639188158753  0.4820099944167922  1.0000
  C   C29       1.0  0.2579667231791091  0.8179149200421847  0.01292003361214  1.0000
  C   C30       1.0  0.2420878988470605  0.6820940807819939  0.5129231661742537  1.0000
  C   C31       1.0  0.7420535066886489  0.1820757321569104  0.9870776343828923  1.0000
  C   C32       1.0  0.757949432527475  0.31791228726032017  0.4870765396362486  1.0000
  C   C33       1.0  0.11341525820612465  0.8862188539364838  0.0538304759832045  1.0000
  C   C34       1.0  0.38661261538900493  0.6137886482326993  0.5538295478278243  1.0000
  C   C35       1.0  0.886593289925507  0.11377378775779332  0.9461663768635873  1.0000
  C   C36       1.0  0.6134144550955724  0.38620829025215636  0.4461721958533715  1.0000
  C   C37       1.0  0.9950468230191163  0.8143390080473479  0.10159892141532371  1.0000
  C   C38       1.0  0.5049750723379772  0.685667317051383  0.601605979044372  1.0000
  C   C39       1.0  0.004958072596480206  0.18565776226459724  0.8983946708601351  1.0000
  C   C40       1.0  0.49503825796953294  0.3143409469078621  0.398397802454646  1.0000
  I   I1        1.0  0.40822170866398716  0.24223752122252756  0.13594733420544  1.0000
  I   I2        1.0  0.09178220537916097  0.2577695576788983  0.635950004130386  1.0000
  I   I3        1.0  0.591771824060487  0.7577622799474141  0.8640535943192164  1.0000
  I   I4        1.0  0.9082153852696492  0.7422354696300744  0.36405214709233047  1.0000
  N   N1        1.0  0.8472591388406697  0.8838673547473235  0.1418482812823427  1.0000
  N   N2        1.0  0.652728291946758  0.6161363949789588  0.6418525088402943  1.0000
  N   N3        1.0  0.1527232631420787  0.11612820573262177  0.8581477564098279  1.0000
  N   N4        1.0  0.34725538530664574  0.38386333135156997  0.35815086510177  1.0000
