data_image0
_chemical_formula_structural       Cu8H48C64O40
_chemical_formula_sum              "Cu8 H48 C64 O40"
_cell_length_a       6.605359755650017
_cell_length_b       19.284761394739014
_cell_length_c       19.306005566986954
_cell_angle_alpha    90.2556405856361
_cell_angle_beta     89.86745653791029
_cell_angle_gamma    89.65033128931077

_space_group_name_H-M_alt    "P 1"
_space_group_IT_number       1

loop_
  _space_group_symop_operation_xyz
  'x, y, z'

loop_
  _atom_site_type_symbol
  _atom_site_label
  _atom_site_symmetry_multiplicity
  _atom_site_fract_x
  _atom_site_fract_y
  _atom_site_fract_z
  _atom_site_occupancy
  Cu  Cu1       1.0  0.14734355906027463  0.5296144070554829  0.5293100814302676  1.0000
  Cu  Cu2       1.0  0.14725882357914338  0.970057064522734  0.9700420537549732  1.0000
  Cu  Cu3       1.0  0.1475794250788951  0.9702852830689958  0.5296179875903064  1.0000
  Cu  Cu4       1.0  0.1487818350043995  0.5296154508827512  0.9700903324002041  1.0000
  Cu  Cu5       1.0  0.8513840810500426  0.470352690453545  0.029732103291159693  1.0000
  Cu  Cu6       1.0  0.8524073822274046  0.029785347823498395  0.4705067274423698  1.0000
  Cu  Cu7       1.0  0.8524121588569074  0.0299470106034363  0.0300914428058547  1.0000
  Cu  Cu8       1.0  0.853034582717818  0.47047081379283645  0.4705575959928012  1.0000
  H   H1        1.0  0.5482881986903577  0.5590562154626323  0.3612863831140061  1.0000
  H   H2        1.0  0.5462883119305957  0.9380840801077354  0.1375740130593144  1.0000
  H   H3        1.0  0.5511531246270708  0.13719450583941747  0.559946624919597  1.0000
  H   H4        1.0  0.5432091206896317  0.36030442997768825  0.9378881642913586  1.0000
  H   H5        1.0  0.45183655292117914  0.44127048860522683  0.8615987355606336  1.0000
  H   H6        1.0  0.4539392630121667  0.06279763291444598  0.6394884826721494  1.0000
  H   H7        1.0  0.4483408683989367  0.8628797785710343  0.059590853386829686  1.0000
  H   H8        1.0  0.454898817052552  0.639532453318992  0.4392610584873253  1.0000
  H   H9        1.0  0.4521386694526655  0.441031866674244  0.6384911537826028  1.0000
  H   H10       1.0  0.45331968691682073  0.0618794635418638  0.8624931169543474  1.0000
  H   H11       1.0  0.4488975627642375  0.8628614374198096  0.4401314142916775  1.0000
  H   H12       1.0  0.4567380556914884  0.6395732231081296  0.0619512486987048  1.0000
  H   H13       1.0  0.5484138729810084  0.5585771808158809  0.13818610326567443  1.0000
  H   H14       1.0  0.5458292305220453  0.9371538838881006  0.3606060097652914  1.0000
  H   H15       1.0  0.5515415541667323  0.13700591559270947  0.9405697477558875  1.0000
  H   H16       1.0  0.545302016680445  0.36051904266239626  0.5607506106695013  1.0000
  H   H17       1.0  0.7266945822475536  0.5796679643635796  0.2496088288743081  1.0000
  H   H18       1.0  0.7226856434916016  0.9149570812271645  0.24877692211057933  1.0000
  H   H19       1.0  0.7254305666759392  0.24936717185513388  0.5821243498029816  1.0000
  H   H20       1.0  0.72492408430589  0.2490131882193295  0.9174816058092786  1.0000
  H   H21       1.0  0.2736627653799175  0.420258827180433  0.7501274549178447  1.0000
  H   H22       1.0  0.2770118193052157  0.08499133332471588  0.7512896207826429  1.0000
  H   H23       1.0  0.2750242895494424  0.7508378675494638  0.0825229813380517  1.0000
  H   H24       1.0  0.274653574397199  0.75067936457026  0.4179360440155192  1.0000
  H   H25       1.0  0.013421882015173  0.4971315393787065  0.2499639591523319  1.0000
  H   H26       1.0  0.0202493850339067  0.010613725811950294  0.2500345749163841  1.0000
  H   H27       1.0  0.0185745697350086  0.24785976642180427  0.49268370344457685  1.0000
  H   H28       1.0  0.016783426946879794  0.2480869115796054  0.006883771568837501  1.0000
  H   H29       1.0  0.9867651464616358  0.502982969114754  0.7499292399873454  1.0000
  H   H30       1.0  0.9798085962928907  0.989610371852066  0.7501116920232532  1.0000
  H   H31       1.0  0.9831860307719039  0.7519244463937012  0.9931620856009006  1.0000
  H   H32       1.0  0.9814012714447956  0.7522224545880929  0.5075177021507713  1.0000
  H   H33       1.0  0.401601862575852  0.6272866151009138  0.576692711915193  1.0000
  H   H34       1.0  0.40663930896909056  0.9238645550846698  0.8719566797535522  1.0000
  H   H35       1.0  0.4026293974200569  0.9258199560984581  0.6283267947573208  1.0000
  H   H36       1.0  0.4025404429043462  0.6283178737252654  0.926276091891694  1.0000
  H   H37       1.0  0.5969715506913786  0.3714695671042704  0.072676517805256  1.0000
  H   H38       1.0  0.5967774753959532  0.0733356857747793  0.3716479631918261  1.0000
  H   H39       1.0  0.5927496299701716  0.07550940092767887  0.1282449284073408  1.0000
  H   H40       1.0  0.5988991122269381  0.3728081429067487  0.4230889544407431  1.0000
  H   H41       1.0  0.5294374207051077  0.5689231115198081  0.5413376357809057  1.0000
  H   H42       1.0  0.5295311845874622  0.9579970375330757  0.9315510713167684  1.0000
  H   H43       1.0  0.5286538331948805  0.9588767343554706  0.5690225591799631  1.0000
  H   H44       1.0  0.5309306644359069  0.5691693665875376  0.9590970064957887  1.0000
  H   H45       1.0  0.46867523844049686  0.43129180424348584  0.0411214494485463  1.0000
  H   H46       1.0  0.4709575768508215  0.041486341990918184  0.4316235228221217  1.0000
  H   H47       1.0  0.4700109948712665  0.0421598090194095  0.0682021058302027  1.0000
  H   H48       1.0  0.4709432102609625  0.43098262029796075  0.4587316497813561  1.0000
  C   C1        1.0  0.26867183361022035  0.5285326500161742  0.3126114553674597  1.0000
  C   C2        1.0  0.2717340735514853  0.9754960529183023  0.18698923665139228  1.0000
  C   C3        1.0  0.2724353290761243  0.18580136504007774  0.5270185493722579  1.0000
  C   C4        1.0  0.26862694212854876  0.3112605857749529  0.9741022412652711  1.0000
  C   C5        1.0  0.7314326523777126  0.4717730881510532  0.8127451147173801  1.0000
  C   C6        1.0  0.7283285715628907  0.02500622576497589  0.6879469932392936  1.0000
  C   C7        1.0  0.7282227526600024  0.8141513045279961  0.027121759680625197  1.0000
  C   C8        1.0  0.7293875305012563  0.688827879650283  0.4751196825456105  1.0000
  C   C9        1.0  0.7316456462592313  0.4715691931136232  0.6872417798598818  1.0000
  C   C10       1.0  0.7280864334117965  0.024558099617195194  0.813112198336313  1.0000
  C   C11       1.0  0.7275423020156423  0.8142708815632246  0.4731289638031697  1.0000
  C   C12       1.0  0.7312332330992459  0.6886531785564214  0.0258465795589657  1.0000
  C   C13       1.0  0.26872254489439473  0.5281982353411862  0.18710426702863  1.0000
  C   C14       1.0  0.2715945163726444  0.9750851731127667  0.312160700195669  1.0000
  C   C15       1.0  0.2717488514674216  0.1857756257287946  0.9729679358175359  1.0000
  C   C16       1.0  0.27069009493910556  0.31124885709851907  0.5249936148178236  1.0000
  C   C17       1.0  0.4700243515636585  0.5515424685799103  0.3123145457548874  1.0000
  C   C18       1.0  0.46996613155230454  0.9485193453788836  0.1866590070959901  1.0000
  C   C19       1.0  0.47255807864438276  0.18617756045847497  0.5514934227927597  1.0000
  C   C20       1.0  0.46783161521219085  0.3112821114036137  0.9481828796989902  1.0000
  C   C21       1.0  0.5301826924539768  0.4486516650509386  0.8125708949369184  1.0000
  C   C22       1.0  0.5300373520958886  0.051977399648933394  0.6883269594049395  1.0000
  C   C23       1.0  0.5276736233945911  0.8138865808619041  0.0515058301431566  1.0000
  C   C24       1.0  0.5306017784689772  0.68864462653098  0.44917366292693117  1.0000
  C   C25       1.0  0.5303407687035673  0.44850577729453506  0.6874763938374713  1.0000
  C   C26       1.0  0.5297445341627522  0.05146798762535809  0.813425746705633  1.0000
  C   C27       1.0  0.5274637072489269  0.8138857166300963  0.448604845255943  1.0000
  C   C28       1.0  0.5320801452300543  0.6886201894687572  0.0517643412059172  1.0000
  C   C29       1.0  0.47008374694634364  0.5512572246044627  0.18723531138817856  1.0000
  C   C30       1.0  0.4697624284126433  0.948029049744633  0.3117666075131993  1.0000
  C   C31       1.0  0.47228896281033167  0.1860227912807345  0.9486123183046117  1.0000
  C   C32       1.0  0.4695109211289221  0.31142263244013435  0.550890909734747  1.0000
  C   C33       1.0  0.5696059683297108  0.5626471079869332  0.2497327857578568  1.0000
  C   C34       1.0  0.5685187135154166  0.9355060458989258  0.2490448228346978  1.0000
  C   C35       1.0  0.5700167941710674  0.24893262733539245  0.5632553472557404  1.0000
  C   C36       1.0  0.56921858929325  0.24869684914352058  0.936368711147651  1.0000
  C   C37       1.0  0.4307039561823344  0.43731973820526066  0.7500388286037847  1.0000
  C   C38       1.0  0.43124636783090853  0.06449417419564436  0.7510300967557343  1.0000
  C   C39       1.0  0.4307354277916744  0.7511890027591546  0.0636623682818822  1.0000
  C   C40       1.0  0.4300746918184116  0.7511305415328022  0.43682579984635334  1.0000
  C   C41       1.0  0.16837859864356372  0.5161241094764789  0.2498965308766756  1.0000
  C   C42       1.0  0.17329519575198293  0.9893665430555242  0.24975534592017107  1.0000
  C   C43       1.0  0.17242504813096093  0.2482572063230535  0.5128119200610612  1.0000
  C   C44       1.0  0.17085944502392184  0.24835075004074977  0.986738277458926  1.0000
  C   C45       1.0  0.8318224200523616  0.4839592222339845  0.7499743201191436  1.0000
  C   C46       1.0  0.8266395863608692  0.010768926641169699  0.7503550312803711  1.0000
  C   C47       1.0  0.8290803890515619  0.7515952679990361  0.0132929420554291  1.0000
  C   C48       1.0  0.827579598212516  0.7518295983770071  0.4873651395716863  1.0000
  C   C49       1.0  0.1647794983700805  0.5174563563397284  0.3806130013169593  1.0000
  C   C50       1.0  0.16537077457014956  0.9882658912859976  0.12003690209054702  1.0000
  C   C51       1.0  0.1678136487344872  0.11817450966735515  0.5166662620737412  1.0000
  C   C52       1.0  0.16189320030709095  0.37883710437775864  0.987331318547298  1.0000
  C   C53       1.0  0.8354027404045751  0.48307554997413843  0.8808295893953471  1.0000
  C   C54       1.0  0.8346198098671919  0.012366333089630598  0.6206182084489811  1.0000
  C   C55       1.0  0.8327172641754571  0.8817562134334975  0.0166488562356051  1.0000
  C   C56       1.0  0.8351694867161612  0.6213682713674373  0.4885384753067328  1.0000
  C   C57       1.0  0.8355937962818203  0.4826625705534439  0.6192526814596491  1.0000
  C   C58       1.0  0.8343165934797981  0.011770297861232798  0.880087854203417  1.0000
  C   C59       1.0  0.832227713762279  0.8819011860166978  0.4834289181514819  1.0000
  C   C60       1.0  0.8379925532783902  0.6210989007151607  0.0126035565593696  1.0000
  C   C61       1.0  0.16459824892503144  0.5168638327624604  0.1190441266848623  1.0000
  C   C62       1.0  0.16529121312266434  0.9877131928458308  0.3795081103180706  1.0000
  C   C63       1.0  0.1672190462792216  0.11820559340554836  0.9834849590461374  1.0000
  C   C64       1.0  0.1650841961426366  0.37870387883160095  0.5114576798917554  1.0000
  O   O1        1.0  0.9947398180431222  0.48638800286891365  0.3811082842275297  1.0000
  O   O2        1.0  0.9909013431002263  0.016204576775244593  0.12137271445227071  1.0000
  O   O3        1.0  0.9960474382352871  0.11821269930575798  0.48657073399362355  1.0000
  O   O4        1.0  0.9880779645765825  0.37794119722198616  0.0152847427420042  1.0000
  O   O5        1.0  0.005023487100217502  0.514255800746113  0.8807941660122722  1.0000
  O   O6        1.0  0.0101762023104683  0.9852642091397782  0.621463994259571  1.0000
  O   O7        1.0  0.0033600416597181016  0.8816060016958996  0.9855455754307626  1.0000
  O   O8        1.0  0.009309563051545  0.6220740741799631  0.5161603615387733  1.0000
  O   O9        1.0  0.005980653275948102  0.5135055816554511  0.6187826565228605  1.0000
  O   O10       1.0  0.009574027390336002  0.9844110306669617  0.878731788807123  1.0000
  O   O11       1.0  0.0029051494949002003  0.8819507521509136  0.5142507555518633  1.0000
  O   O12       1.0  0.0127930271420809  0.6220923929143182  0.9853704648944089  1.0000
  O   O13       1.0  0.9936825250070598  0.4865354645002355  0.1191524102047836  1.0000
  O   O14       1.0  0.9907569530664803  0.015585506474394597  0.3787232095588493  1.0000
  O   O15       1.0  0.9958157761983625  0.11843270304151325  0.014081614349642299  1.0000
  O   O16       1.0  0.9907378182153507  0.3779825688611352  0.4839974487191512  1.0000
  O   O17       1.0  0.2565942823817124  0.5407964662255152  0.43418651170243555  1.0000
  O   O18       1.0  0.26306653106793476  0.9696324449921714  0.06526471043429181  1.0000
  O   O19       1.0  0.2605751005510726  0.064553359088201  0.5397813654155499  1.0000
  O   O20       1.0  0.2600024909189145  0.4332272770841996  0.9690731666621416  1.0000
  O   O21       1.0  0.7429217200674286  0.4596782815583323  0.9340870402343384  1.0000
  O   O22       1.0  0.7358316474031739  0.030109433963978888  0.5660872738965209  1.0000
  O   O23       1.0  0.7411628050737278  0.9354642960875238  0.0407282606594563  1.0000
  O   O24       1.0  0.7370542935605968  0.5666137932373019  0.4708607694898461  1.0000
  O   O25       1.0  0.7434214618758543  0.45952498915493567  0.5656502403767973  1.0000
  O   O26       1.0  0.7358330677693984  0.0297896404950109  0.9349061200317479  1.0000
  O   O27       1.0  0.7407354780701922  0.9354249383655355  0.4595304354125532  1.0000
  O   O28       1.0  0.7390560202134182  0.5666003207813972  0.030010241614562  1.0000
  O   O29       1.0  0.2584771113811755  0.53943030185777  0.0656806718027951  1.0000
  O   O30       1.0  0.26311674102366567  0.9691567669409408  0.4339619826769265  1.0000
  O   O31       1.0  0.25958992299189276  0.0644237083462187  0.9599302940895315  1.0000
  O   O32       1.0  0.2635740528888633  0.43348379895071065  0.5288540341055921  1.0000
  O   O33       1.0  0.4221845685316694  0.5772726630871786  0.5759714230208742  1.0000
  O   O34       1.0  0.4247150906701904  0.923180102111459  0.9219647307279146  1.0000
  O   O35       1.0  0.4236028798483885  0.9241236535713423  0.5784285318261055  1.0000
  O   O36       1.0  0.4247121883152545  0.5783893990819208  0.9246059540146376  1.0000
  O   O37       1.0  0.5752918609983765  0.4213938321440978  0.0752384052156785  1.0000
  O   O38       1.0  0.5763562485645579  0.07588599393960747  0.42154325514933083  1.0000
  O   O39       1.0  0.5750245355240367  0.07674573915194569  0.07822968492746442  1.0000
  O   O40       1.0  0.5780918064637036  0.4228072067374738  0.42400868324126856  1.0000
