data_image0
_chemical_formula_structural       Al2H14C28O10F2
_chemical_formula_sum              "Al2 H14 C28 O10 F2"
_cell_length_a       6.657585824244319
_cell_length_b       13.397624665181663
_cell_length_c       17.685099969238617
_cell_angle_alpha    91.19910745637333
_cell_angle_beta     79.92511708252727
_cell_angle_gamma    71.99288838950994

_space_group_name_H-M_alt    "P 1"
_space_group_IT_number       1

loop_
  _space_group_symop_operation_xyz
  'x, y, z'

loop_
  _atom_site_type_symbol
  _atom_site_label
  _atom_site_symmetry_multiplicity
  _atom_site_fract_x
  _atom_site_fract_y
  _atom_site_fract_z
  _atom_site_occupancy
  Al  Al1       1.0  1.0219265206486224e-05  0.4999902923711089  0.5000016377335894  1.0000
  Al  Al2       1.0  0.5000208384393827  0.49997936800438947  0.5000006873250911  1.0000
  H   H1        1.0  0.15233601161997976  0.599828819850913  0.5776740977660637  1.0000
  H   H2        1.0  0.8476593255644643  0.4002538925536714  0.42224235528505716  1.0000
  H   H3        1.0  0.05054880329547024  0.49630705185834506  0.2683404125786311  1.0000
  H   H4        1.0  0.12561318604776522  0.4871067126537412  0.12421180998428132  1.0000
  H   H5        1.0  0.6394887575907403  0.5650004287493717  0.2719652225725823  1.0000
  H   H6        1.0  0.36053695067119673  0.4349173792874054  0.728037976515111  1.0000
  H   H7        1.0  0.9494028724048248  0.5036672085417209  0.7316626180821898  1.0000
  H   H8        1.0  0.8743652295050237  0.5128873793364335  0.8757921217069865  1.0000
  H   H9        1.0  0.8594317038080559  0.8192501292633099  0.46851503306704956  1.0000
  H   H10       1.0  0.22035669192641866  0.8148214769064526  0.560031101124089  1.0000
  H   H11       1.0  0.07766446108102798  0.01032073438981479  0.561548685145972  1.0000
  H   H12       1.0  0.1405203199687435  0.18076288122755815  0.5314833045682548  1.0000
  H   H13       1.0  0.7795915336004027  0.1851957230723046  0.4399742718928294  1.0000
  H   H14       1.0  0.9222948514167442  0.9896932042919179  0.4384576283556001  1.0000
  C   C1        1.0  0.6319245488002064  0.6896343071045907  0.5131223586664078  1.0000
  C   C2        1.0  0.6935624671046411  0.4755549884737108  0.6360674015939763  1.0000
  C   C3        1.0  0.36806558935590056  0.3103581061732825  0.4868835948491466  1.0000
  C   C4        1.0  0.30647762277411766  0.5243827472807399  0.36393359536024406  1.0000
  C   C5        1.0  0.3408934012114314  0.5296610661641239  0.27868407574147364  1.0000
  C   C6        1.0  0.19489755170273765  0.5095265292156059  0.2368613057833358  1.0000
  C   C7        1.0  0.23684457021114022  0.5040214867448327  0.15699201146583866  1.0000
  C   C8        1.0  0.4264127726256317  0.5190188887655511  0.11618144830944033  1.0000
  C   C9        1.0  0.56481938037939  0.5434297177005761  0.1601904028248384  1.0000
  C   C10       1.0  0.5265692583224463  0.5484390268306641  0.23978378055580407  1.0000
  C   C11       1.0  0.4780146377468594  0.5070789733351121  0.0350632434069809  1.0000
  C   C12       1.0  0.5218789493780988  0.4929718283079724  0.9649429641625532  1.0000
  C   C13       1.0  0.5735223326042771  0.48101557931478583  0.8838219419158193  1.0000
  C   C14       1.0  0.43519301231255253  0.4565163705697375  0.8398141799612944  1.0000
  C   C15       1.0  0.47340951748578414  0.4515256780370437  0.7602258915878577  1.0000
  C   C16       1.0  0.6590715590324262  0.47033226905863773  0.7213140038142427  1.0000
  C   C17       1.0  0.8050594613012904  0.49049113382849907  0.7631389312891557  1.0000
  C   C18       1.0  0.7630729637969011  0.49599855999268533  0.8430137815560741  1.0000
  C   C19       1.0  0.6888777672967449  0.8619808119498064  0.48826302423783124  1.0000
  C   C20       1.0  0.32630881589043514  0.8606127458797063  0.5402254738270713  1.0000
  C   C21       1.0  0.24825266660576534  0.9684642983071543  0.5406356170665063  1.0000
  C   C22       1.0  0.38737385602254887  0.027333424557625097  0.5134547605715554  1.0000
  C   C23       1.0  0.31107563501969787  0.13802995253659844  0.5117386199952919  1.0000
  C   C24       1.0  0.6736611412913547  0.13938531780993202  0.4597767668967094  1.0000
  C   C25       1.0  0.7517169153284299  0.0315424083047304  0.45936888014156807  1.0000
  C   C26       1.0  0.6125880046648929  0.9726733682293017  0.4865485746290545  1.0000
  C   C27       1.0  0.5490216641089204  0.8065672632949019  0.5141040103194072  1.0000
  C   C28       1.0  0.4509510920089425  0.19343378511484136  0.4858957627637395  1.0000
  O   O1        1.0  0.8351367510639206  0.6459808809268853  0.501129711114686  1.0000
  O   O2        1.0  0.5481881389955275  0.46354428300540484  0.6019132715143272  1.0000
  O   O3        1.0  0.5073511148361545  0.35866713100984543  0.47542988280843446  1.0000
  O   O4        1.0  0.1373606941558164  0.5044331262092785  0.39567259447461106  1.0000
  O   O5        1.0  0.16486391305803488  0.3540144878312859  0.49887663306585484  1.0000
  O   O6        1.0  0.4519206164903408  0.5363480309803492  0.3980661651250585  1.0000
  O   O7        1.0  0.49266049471295037  0.6413094536408864  0.5245786005476987  1.0000
  O   O8        1.0  0.8626855373739275  0.49551772457130744  0.6043279280811831  1.0000
  O   O9        1.0  0.20650526233126934  0.5410389759411417  0.5389191140937584  1.0000
  O   O10       1.0  0.7935177821424942  0.4589595643344497  0.4610766167638687  1.0000
  F   F1        1.0  0.7461760839799183  0.5605356256797549  0.1221364572505834  1.0000
  F   F2        1.0  0.2539815272594267  0.4392870394796022  0.8778783145680363  1.0000
