data_image0
_chemical_formula_structural       U2H40C30N2O12
_chemical_formula_sum              "U2 H40 C30 N2 O12"
_cell_length_a       8.10415628721546
_cell_length_b       9.737432822526811
_cell_length_c       11.95310559258953
_cell_angle_alpha    70.59392371632129
_cell_angle_beta     87.66991568087491
_cell_angle_gamma    68.8337805498916

_space_group_name_H-M_alt    "P 1"
_space_group_IT_number       1

loop_
  _space_group_symop_operation_xyz
  'x, y, z'

loop_
  _atom_site_type_symbol
  _atom_site_label
  _atom_site_symmetry_multiplicity
  _atom_site_fract_x
  _atom_site_fract_y
  _atom_site_fract_z
  _atom_site_occupancy
  U   U1        1.0  0.7673015092141853  0.5524925076457451  0.16532958147963228  1.0000
  U   U2        1.0  0.2326979630414313  0.4474888906027772  0.8346701669509642  1.0000
  H   H1        1.0  0.39343901791693275  0.5887228131078713  0.037819941244649186  1.0000
  H   H2        1.0  0.6065537582154406  0.41128558539097787  0.9621743260547146  1.0000
  H   H3        1.0  0.08579872971922933  0.7592304075148562  0.9622528149845521  1.0000
  H   H4        1.0  0.9142020804502807  0.24078515161990313  0.037741784322072584  1.0000
  H   H5        1.0  0.1609822276030357  0.09684762400404172  0.0970365566783613  1.0000
  H   H6        1.0  0.8390263844250755  0.9031527333495575  0.9029678116676151  1.0000
  H   H7        1.0  0.46864290864240826  0.909371129656968  0.16761067434293148  1.0000
  H   H8        1.0  0.5313635279348786  0.09062566634528933  0.8323922152888484  1.0000
  H   H9        1.0  0.231609204341261  0.293342065224131  0.32852329697208654  1.0000
  H   H10       1.0  0.7683934785013523  0.7066605731173751  0.6714781104836262  1.0000
  H   H11       1.0  0.3613582008302814  0.4034224196922055  0.25266799747910806  1.0000
  H   H12       1.0  0.6386459896970249  0.5965766952311926  0.7473293058412906  1.0000
  H   H13       1.0  0.4452422278980137  0.0575398454241451  0.2887660178319678  1.0000
  H   H14       1.0  0.5547535828255902  0.9424615315182763  0.7112334194396296  1.0000
  H   H15       1.0  0.5623748725121445  0.1720988898372724  0.2005571102753905  1.0000
  H   H16       1.0  0.437625413492313  0.8278978271430546  0.7994417936564702  1.0000
  H   H17       1.0  0.5150943990841198  0.1183081510871276  0.46585040764680485  1.0000
  H   H18       1.0  0.4849031443156093  0.8816920671869753  0.5341484587196703  1.0000
  H   H19       1.0  0.6371416978984428  0.22576519534965908  0.3784886698718992  1.0000
  H   H20       1.0  0.36285606208316773  0.7742373766143303  0.6215078767435144  1.0000
  H   H21       1.0  0.7263297885121817  0.8762268745051854  0.4245932891509625  1.0000
  H   H22       1.0  0.2736702139153238  0.12377337379770381  0.5754063353553035  1.0000
  H   H23       1.0  0.8184976954795361  0.9475935736841735  0.5132317777350295  1.0000
  H   H24       1.0  0.18149984671883598  0.05240664300994519  0.48676625249126454  1.0000
  H   H25       1.0  0.11821689152494494  0.8296491811210983  0.48013628018581767  1.0000
  H   H26       1.0  0.8817806554788916  0.17035104189297812  0.5198650946011938  1.0000
  H   H27       1.0  0.19718858382704244  0.8671380763544505  0.33779242059111436  1.0000
  H   H28       1.0  0.8028106922488263  0.13286098325134077  0.6622058748702386  1.0000
  H   H29       1.0  0.3660928590658727  0.5569161877861009  0.429612545973896  1.0000
  H   H30       1.0  0.6339024478948048  0.4430863620490443  0.5703874232026251  1.0000
  H   H31       1.0  0.2392327976095814  0.4412918576984737  0.4376988580261667  1.0000
  H   H32       1.0  0.760765975904725  0.5587083763800252  0.5623008054802978  1.0000
  H   H33       1.0  0.07729019364133899  0.6948952757592153  0.2893538689073907  1.0000
  H   H34       1.0  0.9227066306149466  0.3051037632977155  0.7106486852552506  1.0000
  H   H35       1.0  0.9576820076322149  0.6770177426611071  0.4157155122307755  1.0000
  H   H36       1.0  0.04231676588208439  0.32298249141739177  0.584284151275682  1.0000
  H   H37       1.0  0.8701106226446739  0.9924055868579982  0.2495889594407857  1.0000
  H   H38       1.0  0.12988764470396322  0.007595816953241301  0.7504095636902405  1.0000
  H   H39       1.0  0.9341401430593804  0.0930785554829967  0.3273948905252908  1.0000
  H   H40       1.0  0.06585863165628328  0.9069216801754862  0.6726056091213478  1.0000
  C   C1        1.0  0.3369617889848726  0.7022594891275561  0.04953560926756501  1.0000
  C   C2        1.0  0.6630374249013897  0.2977454618106208  0.9504644315778492  1.0000
  C   C3        1.0  0.1628812947992556  0.7997825358098754  0.007174064714412439  1.0000
  C   C4        1.0  0.8371215376301675  0.2002283412339452  0.9928234238135828  1.0000
  C   C5        1.0  0.09225369252904164  0.9462196449375782  0.022407935951562787  1.0000
  C   C6        1.0  0.907752826639985  0.05379127477943511  0.9775894355758509  1.0000
  C   C7        1.0  0.2052627284192567  0.985555286543061  0.08178896633821604  1.0000
  C   C8        1.0  0.7947455964278022  0.014448597393141  0.9182136141616296  1.0000
  C   C9        1.0  0.37825412704899014  0.8814969701688112  0.12153986582812595  1.0000
  C   C10       1.0  0.6217485581963513  0.11850567133267022  0.8784632139079419  1.0000
  C   C11       1.0  0.2096251050202227  0.35993203336668966  0.1397428677477279  1.0000
  C   C12       1.0  0.7903744570353269  0.6400634980765146  0.8602563794195817  1.0000
  C   C13       1.0  0.31832408286729935  0.3068560032448318  0.2560200423174521  1.0000
  C   C14       1.0  0.6816771496747689  0.6931442608624465  0.7439803793287965  1.0000
  C   C15       1.0  0.4849283817794828  0.15797826478178928  0.27829466097383465  1.0000
  C   C16       1.0  0.5150721244109489  0.8420208106283839  0.7217044316275077  1.0000
  C   C17       1.0  0.5980082372728717  0.12494837852203489  0.3903773759522267  1.0000
  C   C18       1.0  0.4019910412057257  0.8750506842437247  0.6096225917894812  1.0000
  C   C19       1.0  0.764274842683548  0.9751674685938526  0.4219438347355293  1.0000
  C   C20       1.0  0.23572515854258572  0.0248327781290527  0.5780549536305556  1.0000
  C   C21       1.0  0.23532446796632908  0.5078517533556236  0.5871769355606842  1.0000
  C   C22       1.0  0.7646748105122682  0.4921473094101431  0.41282303218103067  1.0000
  C   C23       1.0  0.08697228262602147  0.8436534234147217  0.38722086954125967  1.0000
  C   C24       1.0  0.9130259871253517  0.1563479835564863  0.6127793258701217  1.0000
  C   C25       1.0  0.23777474614470145  0.5462166189924886  0.45468145144425165  1.0000
  C   C26       1.0  0.7622210645789024  0.4537847579499399  0.5453179858273458  1.0000
  C   C27       1.0  0.08124944236946148  0.6904339688783524  0.3823730023850159  1.0000
  C   C28       1.0  0.9187470935044144  0.3095685951811902  0.6176269277913133  1.0000
  C   C29       1.0  0.9124096793690907  0.9839339440925272  0.3389656004242596  1.0000
  C   C30       1.0  0.0875885879795533  0.016067459718705403  0.6610329227067666  1.0000
  N   N1        1.0  0.4442668806484776  0.7416536154980379  0.1057742552513901  1.0000
  N   N2        1.0  0.5557295882303278  0.25835483357393935  0.8942240757482836  1.0000
  O   O1        1.0  0.6825127775550541  0.3991544181540263  0.1814254617653006  1.0000
  O   O2        1.0  0.31750440805377883  0.6008260126633048  0.8185765533183584  1.0000
  O   O3        1.0  0.8410400315843773  0.7139222198345082  0.14201564323078492  1.0000
  O   O4        1.0  0.15895497379994342  0.2860638494360259  0.8579904915208089  1.0000
  O   O5        1.0  0.042344036432297075  0.3879356817074325  0.14008435454400817  1.0000
  O   O6        1.0  0.9576587791990927  0.6120551850292132  0.8599194151248284  1.0000
  O   O7        1.0  0.28610321207785466  0.3767151603491499  0.04390726143984839  1.0000
  O   O8        1.0  0.7139007642702992  0.623281604044337  0.9560940339119596  1.0000
  O   O9        1.0  0.37273852080887326  0.4063564856968185  0.6575234312581628  1.0000
  O   O10       1.0  0.6272610424480404  0.5936390473263772  0.3424766520493278  1.0000
  O   O11       1.0  0.09593653809367442  0.5735737435179615  0.6334395937761457  1.0000
  O   O12       1.0  0.9040637539176046  0.42642298136231466  0.36656349085660617  1.0000
