data_image0
_chemical_formula_structural       Zn4H40C20N4Cl4O20
_chemical_formula_sum              "Zn4 H40 C20 N4 Cl4 O20"
_cell_length_a       6.01214315397209
_cell_length_b       8.359918075542671
_cell_length_c       17.722414244760618
_cell_angle_alpha    90.00037838492526
_cell_angle_beta     89.99966504015752
_cell_angle_gamma    105.47466174744895

_space_group_name_H-M_alt    "P 1"
_space_group_IT_number       1

loop_
  _space_group_symop_operation_xyz
  'x, y, z'

loop_
  _atom_site_type_symbol
  _atom_site_label
  _atom_site_symmetry_multiplicity
  _atom_site_fract_x
  _atom_site_fract_y
  _atom_site_fract_z
  _atom_site_occupancy
  Zn  Zn1       1.0  0.008622407034394482  0.834907902277081  0.6442486274775234  1.0000
  Zn  Zn2       1.0  0.9913786849731567  0.6650973554431163  0.1442439255707839  1.0000
  Zn  Zn3       1.0  0.9913898780774701  0.1651068715351229  0.3557531137257968  1.0000
  Zn  Zn4       1.0  0.008613559626823517  0.3348914469342007  0.8557527366832504  1.0000
  H   H1        1.0  0.10095237069519672  0.3259709345761834  0.6023537612392289  1.0000
  H   H2        1.0  0.89906390833869  0.17403469266352542  0.1023475485524301  1.0000
  H   H3        1.0  0.8990585222562828  0.674048834169895  0.3976451588231527  1.0000
  H   H4        1.0  0.10092614801625636  0.8259441658918477  0.8976491134345609  1.0000
  H   H5        1.0  0.253060945783524  0.4266505442846551  0.5241797490847588  1.0000
  H   H6        1.0  0.7469548318614586  0.0733544498146301  0.0241715304076422  1.0000
  H   H7        1.0  0.7469608539842838  0.5733716157775178  0.4758197352533386  1.0000
  H   H8        1.0  0.25301602983879684  0.9266220929541334  0.9758256958566563  1.0000
  H   H9        1.0  0.6212943294283805  0.5039488869370389  0.6061104250894402  1.0000
  H   H10       1.0  0.3787246789122918  0.9960513102670916  0.106104145336829  1.0000
  H   H11       1.0  0.3787257627223682  0.49606456986936825  0.3938935730716935  1.0000
  H   H12       1.0  0.621253824288047  0.003936371169054102  0.8939004165474742  1.0000
  H   H13       1.0  0.5677385177416454  0.2675095769213699  0.5223993463045673  1.0000
  H   H14       1.0  0.43226306515618523  0.23248474768638522  0.022397676788479304  1.0000
  H   H15       1.0  0.43225574962582414  0.7325016252761289  0.47759957359266986  1.0000
  H   H16       1.0  0.5677310024228748  0.76749158323576  0.9775995493677314  1.0000
  H   H17       1.0  0.684454114410194  0.22415144646443252  0.6091211377456744  1.0000
  H   H18       1.0  0.3155535328883232  0.2758439785398537  0.1091206520654566  1.0000
  H   H19       1.0  0.31555341345944754  0.7758596346778505  0.3908777820897953  1.0000
  H   H20       1.0  0.6844494031676478  0.7241509536742472  0.8908754460548495  1.0000
  H   H21       1.0  0.4482547727176113  0.4922131676681475  0.7250568446971286  1.0000
  H   H22       1.0  0.5517548861525796  0.007786615826027801  0.2250534677081149  1.0000
  H   H23       1.0  0.5517411021583386  0.5077893010097868  0.2749465890076976  1.0000
  H   H24       1.0  0.4482568682035151  0.99221819864227  0.7749516587636833  1.0000
  H   H25       1.0  0.32022590933391376  0.28728652155638923  0.7184087063809628  1.0000
  H   H26       1.0  0.6797807231206648  0.21271482433994046  0.2184031921587888  1.0000
  H   H27       1.0  0.6797820492686598  0.7127170826095296  0.281591906016196  1.0000
  H   H28       1.0  0.3202187324057136  0.7872925945262497  0.7815917778098651  1.0000
  H   H29       1.0  0.7346184916349331  0.932877726024856  0.5472822474837856  1.0000
  H   H30       1.0  0.265379980563786  0.5671150639818663  0.0472790519960924  1.0000
  H   H31       1.0  0.2653871132083125  0.06712839012231343  0.4527223147941015  1.0000
  H   H32       1.0  0.7346163253146045  0.4328799291498911  0.9527136606118488  1.0000
  H   H33       1.0  0.6084458755215394  0.3535371232321437  0.7224471050785866  1.0000
  H   H34       1.0  0.3915629352834671  0.14646077981527136  0.2224404425434869  1.0000
  H   H35       1.0  0.39156069079815853  0.6464714752175525  0.27755632874972497  1.0000
  H   H36       1.0  0.6084381277513913  0.8535379055313471  0.777559041232756  1.0000
  H   H37       1.0  0.5876171673509276  0.8249036747376195  0.6181263330248115  1.0000
  H   H38       1.0  0.41238383213537594  0.6751001407360137  0.11811995214995363  1.0000
  H   H39       1.0  0.4123937254412979  0.1751160931633393  0.3818799223812732  1.0000
  H   H40       1.0  0.5876039204900181  0.32488994805825666  0.8818772744168726  1.0000
  C   C1        1.0  0.20955808323122238  0.5896342130362912  0.6126097872479265  1.0000
  C   C2        1.0  0.7904537973663823  0.910368285987751  0.1125990625599513  1.0000
  C   C3        1.0  0.7904442565040171  0.41038065156732273  0.3873919540017141  1.0000
  C   C4        1.0  0.2095251367751345  0.08961191957718033  0.8873975995134984  1.0000
  C   C5        1.0  0.2516927399193493  0.4273446162877904  0.5862706377970142  1.0000
  C   C6        1.0  0.7483206069829933  0.07265104959432732  0.0862663179959711  1.0000
  C   C7        1.0  0.7483278329941287  0.5726700817998989  0.4137316676249085  1.0000
  C   C8        1.0  0.2516511662006735  0.9273192574143395  0.9137314723480118  1.0000
  C   C9        1.0  0.47380380072294787  0.3967123189838092  0.6171195702556886  1.0000
  C   C10       1.0  0.5262059030626318  0.10328746921920383  0.11711214048118991  1.0000
  C   C11       1.0  0.5261982735976504  0.6032975657528257  0.38288555639982036  1.0000
  C   C12       1.0  0.4737858607378768  0.896700091681801  0.8828879072836813  1.0000
  C   C13       1.0  0.528935513822816  0.24404465225377697  0.5823997189554434  1.0000
  C   C14       1.0  0.4710689173256385  0.2559370428491974  0.0823950633113952  1.0000
  C   C15       1.0  0.47106319546495723  0.7559565451391069  0.4176031504443216  1.0000
  C   C16       1.0  0.5289306535995024  0.7440492015010705  0.9176032916108312  1.0000
  C   C17       1.0  0.33768988187862453  0.08592653415040273  0.5917707308881859  1.0000
  C   C18       1.0  0.6623078272949455  0.4140667588268627  0.09177206178621589  1.0000
  C   C19       1.0  0.6623173806498884  0.9140795675149607  0.4082281888099004  1.0000
  C   C20       1.0  0.33768009068550253  0.5859108733190866  0.9082285499765348  1.0000
  N   N1        1.0  0.4608070431611608  0.38184313807592934  0.7015862610517516  1.0000
  N   N2        1.0  0.5391988775633791  0.11815836093408191  0.20158010858505554  1.0000
  N   N3        1.0  0.5391886163544515  0.6181630691226874  0.2984160442436306  1.0000
  N   N4        1.0  0.46080266620970894  0.8818415655638036  0.7984188109663961  1.0000
  Cl  Cl1       1.0  0.8838274328863847  0.733958655840958  0.7607441503942525  1.0000
  Cl  Cl2       1.0  0.1161708889627135  0.7660471377456872  0.26074205403935485  1.0000
  Cl  Cl3       1.0  0.11617629909498821  0.2660512142838485  0.2392564621958684  1.0000
  Cl  Cl4       1.0  0.8838294280540354  0.23394532729778925  0.7392551725382576  1.0000
  O   O1        1.0  0.024636651043223948  0.6234021286350001  0.5904040701976284  1.0000
  O   O2        1.0  0.9753877965997334  0.8766053808248984  0.0903966087628589  1.0000
  O   O3        1.0  0.9753761148191202  0.3766138863934785  0.4095965425236869  1.0000
  O   O4        1.0  0.02458616485347421  0.12337487013574132  0.9096000533337616  1.0000
  O   O5        1.0  0.7375287270514478  0.9011150569704615  0.6026084630818858  1.0000
  O   O6        1.0  0.2624700618090047  0.5988848873651876  0.1026048039662797  1.0000
  O   O7        1.0  0.2624764470221024  0.09889853595804962  0.3973960994059382  1.0000
  O   O8        1.0  0.7375167794064836  0.4011114375792316  0.8973884729776103  1.0000
  O   O9        1.0  0.35685775135115694  0.6847540860216411  0.6552769656402475  1.0000
  O   O10       1.0  0.643164841119166  0.8152409582255089  0.15526168047615838  1.0000
  O   O11       1.0  0.6431626061284775  0.315264350196678  0.3447275969154759  1.0000
  O   O12       1.0  0.35682286150093745  0.1847404124411298  0.8447378028771482  1.0000
  O   O13       1.0  0.24487303765553045  0.0005361760985706996  0.5357526934357112  1.0000
  O   O14       1.0  0.755140099275849  0.49946492575637796  0.035741031165770196  1.0000
  O   O15       1.0  0.7551559882921026  0.9994659889661933  0.4642592039728298  1.0000
  O   O16       1.0  0.2448569027378582  0.500527570200994  0.9642505528551979  1.0000
  O   O17       1.0  0.2717139121474119  0.04185825835265429  0.659738525986043  1.0000
  O   O18       1.0  0.7282956486353528  0.4581404121564745  0.15973100735827467  1.0000
  O   O19       1.0  0.7282988535924277  0.9581577560257347  0.3402677293073495  1.0000
  O   O20       1.0  0.271706756836359  0.5418445616238473  0.8402605764295926  1.0000
