data_image0
_chemical_formula_structural       Zn2H28C28O16
_chemical_formula_sum              "Zn2 H28 C28 O16"
_cell_length_a       7.223703548761074
_cell_length_b       7.51816947810401
_cell_length_c       12.74326034683243
_cell_angle_alpha    88.74883175204722
_cell_angle_beta     95.29506679016583
_cell_angle_gamma    99.32025635577989

_space_group_name_H-M_alt    "P 1"
_space_group_IT_number       1

loop_
  _space_group_symop_operation_xyz
  'x, y, z'

loop_
  _atom_site_type_symbol
  _atom_site_label
  _atom_site_symmetry_multiplicity
  _atom_site_fract_x
  _atom_site_fract_y
  _atom_site_fract_z
  _atom_site_occupancy
  Zn  Zn1       1.0  0.33866117538895685  0.64831526214374  0.040648291862204596  1.0000
  Zn  Zn2       1.0  0.6613359504785308  0.3516861278461363  0.9593533098919023  1.0000
  H   H1        1.0  0.7632347703396648  0.714214611699134  0.2885591356371151  1.0000
  H   H2        1.0  0.236779008877825  0.28579663493410834  0.7114435063080506  1.0000
  H   H3        1.0  0.7177738880689829  0.48787603518128014  0.3373940257865655  1.0000
  H   H4        1.0  0.2822265994711586  0.5121271534983832  0.6625983651688543  1.0000
  H   H5        1.0  0.8726886271812405  0.7096522381502621  0.4529660810988503  1.0000
  H   H6        1.0  0.12731123501344396  0.29033852345634864  0.5470349217336475  1.0000
  H   H7        1.0  0.9265902824640906  0.8417963650955897  0.6260327752177587  1.0000
  H   H8        1.0  0.07341376575993051  0.15820399685085104  0.3739661249597148  1.0000
  H   H9        1.0  0.4929198925271763  0.9845070990867058  0.7733482021863408  1.0000
  H   H10       1.0  0.5070787235915688  0.015503906997459196  0.2266487712719822  1.0000
  H   H11       1.0  0.6178577265119358  0.8537690751141865  0.6224343135016852  1.0000
  H   H12       1.0  0.3821450453803692  0.14624201640449289  0.37756370757200125  1.0000
  H   H13       1.0  0.5585536231184564  0.6932731270074441  0.4489131096158871  1.0000
  H   H14       1.0  0.4414532742916252  0.30672853504042746  0.5510891093435504  1.0000
  H   H15       1.0  0.33564923437117505  0.5679783416827034  0.29804596756639506  1.0000
  H   H16       1.0  0.664353849661005  0.4320069303171224  0.701960741304525  1.0000
  H   H17       1.0  0.8709605358780266  0.8612845871451995  0.8139897809524398  1.0000
  H   H18       1.0  0.12903953704140042  0.13870871268787968  0.18601515745886127  1.0000
  H   H19       1.0  0.8937420952222652  0.0515843428708394  0.7262784839011117  1.0000
  H   H20       1.0  0.10625177855195739  0.9484130218204996  0.2737205620849679  1.0000
  H   H21       1.0  0.0964675296189554  0.35055624043102535  0.0400813894910641  1.0000
  H   H22       1.0  0.9035354059746793  0.6494360394094231  0.9599174504318666  1.0000
  H   H23       1.0  0.0322349974106331  0.4644881535406  0.12848792455906727  1.0000
  H   H24       1.0  0.967764089225412  0.5355066725771279  0.8715114540309301  1.0000
  H   H25       1.0  0.5839295030472513  0.9289430383834868  0.9469077687346398  1.0000
  H   H26       1.0  0.41606911662076834  0.07104900021358422  0.053093939066876296  1.0000
  H   H27       1.0  0.7028326321826199  0.8288127006112377  0.032002225384253805  1.0000
  H   H28       1.0  0.2971678436440115  0.1711833244189407  0.9680019500131036  1.0000
  C   C1        1.0  0.6820594542312435  0.5167630880476608  0.1697637995572805  1.0000
  C   C2        1.0  0.3179436347703728  0.48323050764867753  0.8302358335068689  1.0000
  C   C3        1.0  0.7841045218363192  0.5749773354308233  0.2759151810515448  1.0000
  C   C4        1.0  0.2158984372690114  0.42502561936197475  0.7240852172361656  1.0000
  C   C5        1.0  0.0907127977068711  0.6329934178287502  0.3662971530350276  1.0000
  C   C6        1.0  0.9092894534499151  0.36699469631161447  0.633704789155793  1.0000
  C   C7        1.0  0.0222314620098487  0.7067162648447649  0.45038316379626764  1.0000
  C   C8        1.0  0.977769205999252  0.2932799471560514  0.5496163130083431  1.0000
  C   C9        1.0  0.14673829907363262  0.7776106454803583  0.5374169855177158  1.0000
  C   C10       1.0  0.8532630466282356  0.222390892267569  0.46258409765417235  1.0000
  C   C11       1.0  0.07799648824111928  0.8477845973430362  0.6258191223987025  1.0000
  C   C12       1.0  0.9219995299654188  0.15221703423735988  0.3741753432940911  1.0000
  C   C13       1.0  0.20120381147778937  0.9175597583199178  0.7098878109497873  1.0000
  C   C14       1.0  0.7987985575073041  0.08244860800165552  0.2901109731378426  1.0000
  C   C15       1.0  0.39828095466236857  0.9219244352078488  0.7081516130280858  1.0000
  C   C16       1.0  0.601715215177521  0.0780879959719911  0.2918412786343225  1.0000
  C   C17       1.0  0.46661889691481656  0.8511465701080564  0.6236462000934891  1.0000
  C   C18       1.0  0.5333828196638494  0.1488576616752084  0.3763549031632465  1.0000
  C   C19       1.0  0.3444745392237395  0.7751567383751663  0.536675386419482  1.0000
  C   C20       1.0  0.6555205450467413  0.22483931816393718  0.4633237376963706  1.0000
  C   C21       1.0  0.40826110859485  0.6966044491626847  0.44918975349006723  1.0000
  C   C22       1.0  0.5917439006262059  0.30339319529031167  0.550810780972327  1.0000
  C   C23       1.0  0.28583455455417084  0.62602133454547  0.36570448622190094  1.0000
  C   C24       1.0  0.7141683422649764  0.3739720741802373  0.6342998454349882  1.0000
  C   C25       1.0  0.9517233720721094  0.9964554458521491  0.8008764815554628  1.0000
  C   C26       1.0  0.0482695659914114  0.003545827541437097  0.1991248556820651  1.0000
  C   C27       1.0  0.924844518651419  0.12224000333123541  0.8878336424811193  1.0000
  C   C28       1.0  0.07514548087888069  0.8777587164285733  0.1121620166356436  1.0000
  O   O1        1.0  0.5233210715339922  0.5660973999391034  0.1528354556978044  1.0000
  O   O2        1.0  0.4766706862890474  0.43391469651204057  0.84716265313957  1.0000
  O   O3        1.0  0.7601114742480845  0.4252276522473863  0.10889796936573495  1.0000
  O   O4        1.0  0.23988428416588903  0.5747926975259289  0.8910980267741876  1.0000
  O   O5        1.0  0.9797276889881772  0.5641717918865155  0.27846476822749366  1.0000
  O   O6        1.0  0.020269720183584593  0.43582155486279817  0.7215368614442638  1.0000
  O   O7        1.0  0.14735965302755014  0.9886924372015784  0.7983124957885009  1.0000
  O   O8        1.0  0.8526405142084742  0.011310439860359602  0.2016877261548302  1.0000
  O   O9        1.0  0.7529179134811416  0.14277501844804869  0.8935181074176767  1.0000
  O   O10       1.0  0.24707713875892523  0.8572210069292865  0.10648179979695979  1.0000
  O   O11       1.0  0.06420006560962581  0.19807168159797328  0.9456582740634332  1.0000
  O   O12       1.0  0.9357997307496007  0.8019285014286409  0.05434192779505048  1.0000
  O   O13       1.0  0.1451122967803045  0.438631535716965  0.0976627455751853  1.0000
  O   O14       1.0  0.8548904213445214  0.5613593659440425  0.9023368674041164  1.0000
  O   O15       1.0  0.5747453929883976  0.825286343151511  0.9950845145724685  1.0000
  O   O16       1.0  0.4252474742702291  0.1747160279655589  0.004923097497815806  1.0000
