data_image0
_chemical_formula_structural       Cu6H42C40N16
_chemical_formula_sum              "Cu6 H42 C40 N16"
_cell_length_a       11.365121161433425
_cell_length_b       11.36159623315782
_cell_length_c       13.2025
_cell_angle_alpha    64.80127849712302
_cell_angle_beta     71.22247564314956
_cell_angle_gamma    71.09579215317127

_space_group_name_H-M_alt    "P 1"
_space_group_IT_number       1

loop_
  _space_group_symop_operation_xyz
  'x, y, z'

loop_
  _atom_site_type_symbol
  _atom_site_label
  _atom_site_symmetry_multiplicity
  _atom_site_fract_x
  _atom_site_fract_y
  _atom_site_fract_z
  _atom_site_occupancy
  Cu  Cu1       1.0  0.6145547574851379  0.23486132034987864  0.09159455947405344  1.0000
  Cu  Cu2       1.0  0.3854426970968419  0.7651392846750795  0.9084028187033225  1.0000
  Cu  Cu3       1.0  0.4674815437748451  0.132512427359714  0.5050625046210229  1.0000
  Cu  Cu4       1.0  0.5325170479593524  0.8674871809190208  0.4949364385207317  1.0000
  Cu  Cu5       1.0  0.6908645768981644  0.0523002713602736  0.7967673455777557  1.0000
  Cu  Cu6       1.0  0.3091368028832592  0.9476993369184612  0.20322931014095488  1.0000
  H   H1        1.0  0.157878023912069  0.0395299586795943  0.9549392692070598  1.0000
  H   H2        1.0  0.8421206659586461  0.960473636584048  0.04506045823512741  1.0000
  H   H3        1.0  0.006970038246343801  0.1317389522863266  0.920856641242892  1.0000
  H   H4        1.0  0.9930279300784407  0.8682636462310853  0.07914516620262906  1.0000
  H   H5        1.0  0.12661010168802284  0.21585436651692191  0.8952047476456996  1.0000
  H   H6        1.0  0.8733893097286372  0.7841502254929509  0.10479214236083567  1.0000
  H   H7        1.0  0.3501139657577426  0.1416555805145592  0.7337022008505159  1.0000
  H   H8        1.0  0.6498782186694427  0.8583480147490905  0.2662978143634119  1.0000
  H   H9        1.0  0.580869956561834  0.4043191434184621  0.21717172757714556  1.0000
  H   H10       1.0  0.41912956452143385  0.5956804648602728  0.7828315026389561  1.0000
  H   H11       1.0  0.2132368464883143  0.1585314909107893  0.4235604080900544  1.0000
  H   H12       1.0  0.7867608043667076  0.8414770880839983  0.5764355089589515  1.0000
  H   H13       1.0  0.0784787068979895  0.0869840498764702  0.5083838518904287  1.0000
  H   H14       1.0  0.9215188458205148  0.9130205421334026  0.49161203829045513  1.0000
  H   H15       1.0  0.2355214677463593  0.9856554333031157  0.5009385960689414  1.0000
  H   H16       1.0  0.7644773202608734  0.0143521489454486  0.4990566136475394  1.0000
  H   H17       1.0  0.9033183787065583  0.12118540321803553  0.8019957155830538  1.0000
  H   H18       1.0  0.09667918554203679  0.8788102180757846  0.19800421564236356  1.0000
  H   H19       1.0  0.9241875567270982  0.1164259399765228  0.6664672802685202  1.0000
  H   H20       1.0  0.07581072906744168  0.8835706780635207  0.3335328432504668  1.0000
  H   H21       1.0  0.16255681043092812  0.8468405795400359  0.801263616027775  1.0000
  H   H22       1.0  0.8374471495945813  0.1531600254849295  0.1987342318101639  1.0000
  H   H23       1.0  0.13636433855469932  0.6108080823715625  0.8937091685824754  1.0000
  H   H24       1.0  0.8636359040745134  0.3891925226533957  0.10629273906259581  1.0000
  H   H25       1.0  0.9184702761045218  0.5664309467823401  0.9384366305461072  1.0000
  H   H26       1.0  0.0815333779813301  0.43356666800393384  0.06156618483058205  1.0000
  H   H27       1.0  0.6748707143146717  0.7813613295453622  0.8118404144003221  1.0000
  H   H28       1.0  0.325130359527094  0.2186352884946814  0.18816272372174583  1.0000
  H   H29       1.0  0.6318063370493265  0.8394417322852235  0.9244094606652523  1.0000
  H   H30       1.0  0.3681961798843076  0.1605568792472809  0.07559254717936169  1.0000
  H   H31       1.0  0.5127133569254312  0.6541735205387695  0.237639865815467  1.0000
  H   H32       1.0  0.4872838898534084  0.34582808123241904  0.7623625067687884  1.0000
  H   H33       1.0  0.5901846166618016  0.7742026981316387  0.12222946033190138  1.0000
  H   H34       1.0  0.40981469661832653  0.2257979068933196  0.8777704325357334  1.0000
  H   H35       1.0  0.6792434569351187  0.6356649398201029  0.21744620735107367  1.0000
  H   H36       1.0  0.3207556485418763  0.3643366619510857  0.7825556501942189  1.0000
  H   H37       1.0  0.8235956961064163  0.49574569123574724  0.805301400566165  1.0000
  H   H38       1.0  0.1764096088744509  0.5042529202967502  0.19470362188153692  1.0000
  H   H39       1.0  0.6702563275759915  0.5821695697317537  0.7771539551771552  1.0000
  H   H40       1.0  0.3297503223602263  0.4178270483082898  0.22284991012496388  1.0000
  H   H41       1.0  0.7031600181675088  0.4049530740198435  0.8484333399614599  1.0000
  H   H42       1.0  0.2968475611177865  0.5950435440202072  0.15156875295656386  1.0000
  C   C1        1.0  0.10969046489547202  0.1273283502248219  0.8925859574166779  1.0000
  C   C2        1.0  0.8903069896865078  0.8726722548001362  0.10741217819300188  1.0000
  C   C3        1.0  0.156607384443177  0.12108473184894561  0.7755068373082563  1.0000
  C   C4        1.0  0.8433872820915769  0.8789158731760125  0.22449282829215642  1.0000
  C   C5        1.0  0.09742798329544662  0.1004381304699606  0.708351669287687  1.0000
  C   C6        1.0  0.9025694712865333  0.8995624745549977  0.291647223754296  1.0000
  C   C7        1.0  0.18817968216936978  0.10378221406687521  0.6049061508842328  1.0000
  C   C8        1.0  0.8118152903050487  0.8962213811967673  0.39509233433895463  1.0000
  C   C9        1.0  0.17763644274548082  0.0829591886054288  0.5043962726989193  1.0000
  C   C10       1.0  0.8223613177761564  0.9170444066582135  0.495602197398135  1.0000
  C   C11       1.0  0.9682524621331012  0.0726209367225081  0.7415661201697007  1.0000
  C   C12       1.0  0.031746851147026724  0.92737966830245  0.2584322578333271  1.0000
  C   C13       1.0  0.9637628689428156  0.9266410793470641  0.7958626841600139  1.0000
  C   C14       1.0  0.0362372755498725  0.0733555386929794  0.20413692432001798  1.0000
  C   C15       1.0  0.06989840716464359  0.8237250377528369  0.8214230871184256  1.0000
  C   C16       1.0  0.9301039019658504  0.1762745705258979  0.17857482594541813  1.0000
  C   C17       1.0  0.05463965544829107  0.6925113707289726  0.8729756259659566  1.0000
  C   C18       1.0  0.9453605987110195  0.307480263579933  0.1270265355621092  1.0000
  C   C19       1.0  0.9342506263936272  0.6674960306300832  0.8980539180432957  1.0000
  C   C20       1.0  0.0657540551778197  0.3325055711411053  0.10194563695281998  1.0000
  C   C21       1.0  0.8315826299050074  0.7746013966230764  0.8710549560848831  1.0000
  C   C22       1.0  0.1684209260443197  0.2253922311782901  0.1289485898559874  1.0000
  C   C23       1.0  0.6972964141421658  0.7592754266122982  0.8943175772020169  1.0000
  C   C24       1.0  0.3027065183977485  0.24072119142775256  0.10568504588110265  1.0000
  C   C25       1.0  0.6013415898156893  0.6672438538342504  0.17263627910359244  1.0000
  C   C26       1.0  0.3986579312675858  0.3327557544444844  0.8273639213832952  1.0000
  C   C27       1.0  0.6274022332668352  0.5917712261517494  0.09649801318769853  1.0000
  C   C28       1.0  0.37259791122585284  0.4082253918882941  0.9035046250215543  1.0000
  C   C29       1.0  0.6697496124115787  0.6278933094758017  0.977561769387151  1.0000
  C   C30       1.0  0.330251669233327  0.3721023118180184  0.022443948651087512  1.0000
  C   C31       1.0  0.6793371359076303  0.5148174335735618  0.9531919594702671  1.0000
  C   C32       1.0  0.3206667259813614  0.4851791844664817  0.04681192095798537  1.0000
  C   C33       1.0  0.7211423359312406  0.4982824103875104  0.8400085556651502  1.0000
  C   C34       1.0  0.27886296904962643  0.5017162011449942  0.15999495191793756  1.0000
  C   C35       1.0  0.5174751146028029  0.1674912427595743  0.3511986145704356  1.0000
  C   C36       1.0  0.4825206890841613  0.8325083655191605  0.6488011011297558  1.0000
  C   C37       1.0  0.6066270613633621  0.10594615012914231  0.681629338452268  1.0000
  C   C38       1.0  0.3933733890689837  0.8940534581495925  0.3183637876243993  1.0000
  C   C39       1.0  0.6447498947044465  0.15502992140975644  0.989196812216221  1.0000
  C   C40       1.0  0.355250140121619  0.8449716803614323  0.010797213486547688  1.0000
  N   N1        1.0  0.29575779627931803  0.12597975257754263  0.608378481898022  1.0000
  N   N2        1.0  0.7042373839982331  0.8740228459398764  0.3916203109444184  1.0000
  N   N3        1.0  0.27451180799905467  0.1362910923122911  0.7116230620169331  1.0000
  N   N4        1.0  0.7254891561760887  0.8637105094588975  0.2883775230571004  1.0000
  N   N5        1.0  0.8471998378538999  0.9015280581177764  0.8204936067769566  1.0000
  N   N6        1.0  0.15280082038158577  0.09847055341472813  0.17950664380969533  1.0000
  N   N7        1.0  0.6133645433651297  0.46473492257189974  0.13598508972214055  1.0000
  N   N8        1.0  0.3866353933244185  0.5352626922143742  0.86401951316477  1.0000
  N   N9        1.0  0.6439585142851882  0.4159641296070617  0.05092431327179989  1.0000
  N   N10       1.0  0.35604421045158574  0.5840334851792122  0.9490795170566739  1.0000
  N   N11       1.0  0.5507590006081955  0.1953911664439971  0.2508831373489855  1.0000
  N   N12       1.0  0.4492349443806205  0.8046084418347306  0.7491133062286436  1.0000
  N   N13       1.0  0.5514317768820689  0.1331842343177811  0.6100743902331658  1.0000
  N   N14       1.0  0.44857001850562755  0.8668133804684928  0.3899228807240433  1.0000
  N   N15       1.0  0.6602004343860983  0.1099530699680642  0.9191060437068754  1.0000
  N   N16       1.0  0.3397999063796249  0.8900515220418086  0.08088907391557143  1.0000
