data_image0
_chemical_formula_structural       Ag4H24C32S2N8O12
_chemical_formula_sum              "Ag4 H24 C32 S2 N8 O12"
_cell_length_a       8.05501963900019
_cell_length_b       10.136232954077437
_cell_length_c       12.072487417392937
_cell_angle_alpha    105.27945516828387
_cell_angle_beta     90.00000146503807
_cell_angle_gamma    90.00002356256599

_space_group_name_H-M_alt    "P 1"
_space_group_IT_number       1

loop_
  _space_group_symop_operation_xyz
  'x, y, z'

loop_
  _atom_site_type_symbol
  _atom_site_label
  _atom_site_symmetry_multiplicity
  _atom_site_fract_x
  _atom_site_fract_y
  _atom_site_fract_z
  _atom_site_occupancy
  Ag  Ag1       1.0  0.16693703466015108  0.4768588077485773  0.6339113601116821  1.0000
  Ag  Ag2       1.0  0.66693706385589  0.5231412309434872  0.36608890755328355  1.0000
  Ag  Ag3       1.0  0.32580816291580555  0.5403627845364979  0.15844404033148857  1.0000
  Ag  Ag4       1.0  0.8258069362066462  0.4596373108608134  0.8415562425615235  1.0000
  H   H1        1.0  0.35795842660293437  0.9810332357614443  0.7164033083772382  1.0000
  H   H2        1.0  0.8579581917225167  0.018965848329379805  0.2835959230236398  1.0000
  H   H3        1.0  0.48475138294566017  0.8531311994973692  0.8444505615490102  1.0000
  H   H4        1.0  0.9847512092876016  0.14686895263132269  0.1555497365790686  1.0000
  H   H5        1.0  0.6041725851430186  0.9758925190111111  0.03148992275669108  1.0000
  H   H6        1.0  0.10417233463525828  0.024107497207182898  0.9685095105466672  1.0000
  H   H7        1.0  0.47534966707288345  0.36124572662058085  0.9668465933762534  1.0000
  H   H8        1.0  0.9753509846574671  0.638753399370678  0.033152649276878755  1.0000
  H   H9        1.0  0.7296705589222157  0.31937728845586116  0.10600169012381849  1.0000
  H   H10       1.0  0.2296706452364816  0.6806227726275295  0.8939985835542786  1.0000
  H   H11       1.0  0.6832969572768518  0.18416656147746824  0.1687875119966975  1.0000
  H   H12       1.0  0.1832971111230606  0.8158345056931606  0.8312121551192533  1.0000
  H   H13       1.0  0.2577598563240144  0.31441393449492233  0.3179302911136972  1.0000
  H   H14       1.0  0.75775998181453  0.685586136542959  0.682069156911325  1.0000
  H   H15       1.0  0.29870199231800837  0.18456822013616395  0.1903193287649856  1.0000
  H   H16       1.0  0.7987021899388935  0.8154318655150943  0.809680123184414  1.0000
  H   H17       1.0  0.39125814687011473  0.9705355258556385  0.22026578195431068  1.0000
  H   H18       1.0  0.8912566951772262  0.029464592902527897  0.7797345072122042  1.0000
  H   H19       1.0  0.5250355664932016  0.8378354340038566  0.3411999060697326  1.0000
  H   H20       1.0  0.02503537542597199  0.1621655767502403  0.6588005742220417  1.0000
  H   H21       1.0  0.6558645801438769  0.9555570704618644  0.5269391365166597  1.0000
  H   H22       1.0  0.1558630795061049  0.044442964277863  0.4730611300869186  1.0000
  H   H23       1.0  0.5060758355293871  0.3454436915163015  0.47505074471760617  1.0000
  H   H24       1.0  0.006077135523369699  0.6545573124708141  0.5249497337569126  1.0000
  C   C1        1.0  0.3391016755665389  0.25769613756444437  0.764535493591346  1.0000
  C   C2        1.0  0.8391018131065593  0.7423039625065612  0.2354639622304475  1.0000
  C   C3        1.0  0.40552110995803037  0.17963005370521756  0.8358460072555616  1.0000
  C   C4        1.0  0.9055212851305895  0.8203700702154465  0.16415511162365704  1.0000
  C   C5        1.0  0.40898350927341903  0.0357618822809229  0.7993383215901417  1.0000
  C   C6        1.0  0.9089837603033573  0.9642382427328472  0.20066114092996665  1.0000
  C   C7        1.0  0.4803715346351396  0.9643102390564665  0.8710260758164736  1.0000
  C   C8        1.0  0.9803713024190868  0.035689911508932  0.128974221891788  1.0000
  C   C9        1.0  0.5480284867804741  0.0342319254847396  0.9769797810734815  1.0000
  C   C10       1.0  0.048028686904572696  0.965768070694267  0.023019646848382445  1.0000
  C   C11       1.0  0.5474698473035673  0.17746467474918148  0.012526645648058797  1.0000
  C   C12       1.0  0.04747001066989039  0.8225353213017851  0.9874736105657504  1.0000
  C   C13       1.0  0.4748940212553307  0.24989804464209442  0.9414605308827292  1.0000
  C   C14       1.0  0.9748929145155855  0.7501021039680678  0.05853976630046274  1.0000
  C   C15       1.0  0.6295764348685964  0.2533721515644344  0.12237560686292431  1.0000
  C   C16       1.0  0.12957655470238894  0.7466278736498922  0.8776230005299652  1.0000
  C   C17       1.0  0.35548523653445585  0.24942379516623703  0.2683360761043048  1.0000
  C   C18       1.0  0.85548539757481  0.7505773335344798  0.7316644358617239  1.0000
  C   C19       1.0  0.4407786152361836  0.16762890289907517  0.3387182189293512  1.0000
  C   C20       1.0  0.9407775744122729  0.8323712335343811  0.6612820749838093  1.0000
  C   C21       1.0  0.44747626443519545  0.024419332487781293  0.3020638185140996  1.0000
  C   C22       1.0  0.9474765405957438  0.9755818289757202  0.6979358739239602  1.0000
  C   C23       1.0  0.5233608636957358  0.9489614843550668  0.3699836225283946  1.0000
  C   C24       1.0  0.023360614012119595  0.0510385030193063  0.6300158030290106  1.0000
  C   C25       1.0  0.5969606928046004  0.014522274174360899  0.4742801935581511  1.0000
  C   C26       1.0  0.0969609225989316  0.9854787621804987  0.5257194652823074  1.0000
  C   C27       1.0  0.5915268520089326  0.15847736187438946  0.5106472378574765  1.0000
  C   C28       1.0  0.0915270059063076  0.8415236724696059  0.4893515921166341  1.0000
  C   C29       1.0  0.5122992546926851  0.23432051841982832  0.4440427711533701  1.0000
  C   C30       1.0  0.012299371925251998  0.7656794650064144  0.5559566533437703  1.0000
  C   C31       1.0  0.6647036033561732  0.23179090494852514  0.6159986109283153  1.0000
  C   C32       1.0  0.1647037152372235  0.7682091329463816  0.3840016565225782  1.0000
  S   S1        1.0  0.4923825119655873  0.3689990950393066  0.2230052942734204  1.0000
  S   S2        1.0  0.9923826128883062  0.631001059813201  0.7769950045861266  1.0000
  N   N1        1.0  0.29001552923200086  0.3232015498528185  0.7052992810919392  1.0000
  N   N2        1.0  0.7900156351712511  0.6767985327693539  0.2947009983703452  1.0000
  N   N3        1.0  0.7219883980591248  0.295561089412324  0.7022250562150987  1.0000
  N   N4        1.0  0.22198847360326107  0.7044399916396955  0.2977754429550004  1.0000
  N   N5        1.0  0.9369438088543234  0.3425610027183623  0.42989698879455324  1.0000
  N   N6        1.0  0.43694262916511656  0.657440154985558  0.5701027026338821  1.0000
  N   N7        1.0  0.06234258583909739  0.3606090338152015  0.011350848925367491  1.0000
  N   N8        1.0  0.562342699301297  0.6393909676156184  0.9886502370595238  1.0000
  O   O1        1.0  0.06689998507010128  0.2977947909354697  0.4678470943803034  1.0000
  O   O2        1.0  0.5669001133532274  0.7022052120506431  0.5321531636959236  1.0000
  O   O3        1.0  0.8725553690250788  0.2788178458289464  0.3368941583920487  1.0000
  O   O4        1.0  0.3725554673832008  0.7211822663253286  0.6631069573273365  1.0000
  O   O5        1.0  0.8730284147196627  0.45571457077650007  0.4888637527541491  1.0000
  O   O6        1.0  0.37302841565776385  0.544285541475233  0.5111365346650771  1.0000
  O   O7        1.0  0.1404690695779252  0.46061015799335076  0.9885299234632328  1.0000
  O   O8        1.0  0.6404690934457448  0.5393898713229318  0.011471170010224763  1.0000
  O   O9        1.0  0.9443019533717276  0.3032369929035283  0.9462144144004228  1.0000
  O   O10       1.0  0.4443020154929301  0.6967621220770965  0.05378565362216389  1.0000
  O   O11       1.0  0.10210784346633517  0.32107824631902565  0.09801429952110402  1.0000
  O   O12       1.0  0.6021092154882481  0.678920746594727  0.9019865640470713  1.0000
