data_image0
_chemical_formula_structural       Cd2H30C38N4O12
_chemical_formula_sum              "Cd2 H30 C38 N4 O12"
_cell_length_a       7.517228237400664
_cell_length_b       10.49064857638201
_cell_length_c       12.465938323087009
_cell_angle_alpha    101.85846028914294
_cell_angle_beta     99.35722404266785
_cell_angle_gamma    111.587599221819

_space_group_name_H-M_alt    "P 1"
_space_group_IT_number       1

loop_
  _space_group_symop_operation_xyz
  'x, y, z'

loop_
  _atom_site_type_symbol
  _atom_site_label
  _atom_site_symmetry_multiplicity
  _atom_site_fract_x
  _atom_site_fract_y
  _atom_site_fract_z
  _atom_site_occupancy
  Cd  Cd1       1.0  0.588922143763952  0.1314325367476172  0.3420487338861591  1.0000
  Cd  Cd2       1.0  0.411078265546017  0.8685740705899077  0.6579524443657264  1.0000
  H   H1        1.0  0.00033968998582170796  0.0792584151742233  0.3296804575145701  1.0000
  H   H2        1.0  0.9997017769477811  0.9207863871847481  0.6703254828323468  1.0000
  H   H3        1.0  0.2893083361340416  0.2858062582256195  0.051038873975237195  1.0000
  H   H4        1.0  0.7107155964281449  0.7142126999938229  0.9489583832732083  1.0000
  H   H5        1.0  0.2983654031118662  0.69888358477823  0.04442549239824707  1.0000
  H   H6        1.0  0.7016543569564319  0.30112402280582273  0.955581861584996  1.0000
  H   H7        1.0  0.5338234775228585  0.6372525096907465  0.3578819842532823  1.0000
  H   H8        1.0  0.46617071604998744  0.3627354705259762  0.6421259845016182  1.0000
  H   H9        1.0  0.7451351547437782  0.07341338725206728  0.9394831753229769  1.0000
  H   H10       1.0  0.25476578453697135  0.9264856871224367  0.060501135124582134  1.0000
  H   H11       1.0  0.6141338368270438  0.1518529050101662  0.09765474664792614  1.0000
  H   H12       1.0  0.38580098251138384  0.8480865917673909  0.9023412851155472  1.0000
  H   H13       1.0  0.28567842974183594  0.5992254211098214  0.8588359522465726  1.0000
  H   H14       1.0  0.7143707952817877  0.4008157386623168  0.1411700242527445  1.0000
  H   H15       1.0  0.05432429254297945  0.5568433198217378  0.8948714607672417  1.0000
  H   H16       1.0  0.9456924873346895  0.44318049305454826  0.10512366123955279  1.0000
  H   H17       1.0  0.8829247189331043  0.1005519626401679  0.5415707346146165  1.0000
  H   H18       1.0  0.1170848125228971  0.8994540057406081  0.4584344463090702  1.0000
  H   H19       1.0  0.08315361679290592  0.23273419658610808  0.7416077066184812  1.0000
  H   H20       1.0  0.9168800460763863  0.767296803757816  0.25839220280949604  1.0000
  H   H21       1.0  0.14359985058457903  0.9923086963968687  0.18315425364397714  1.0000
  H   H22       1.0  0.8564651467458191  0.007734409217547991  0.8168553220429546  1.0000
  H   H23       1.0  0.9607993158990382  0.5930875352117297  0.698012074907581  1.0000
  H   H24       1.0  0.03921147380525276  0.40692979636504134  0.3019971718529534  1.0000
  H   H25       1.0  0.7597595491287168  0.4463445352284693  0.5031554084051919  1.0000
  H   H26       1.0  0.24024684381050318  0.5536692744487438  0.49685508018757946  1.0000
  H   H27       1.0  0.3697442784967536  0.14111547833511653  0.5130846701675225  1.0000
  H   H28       1.0  0.6302785324474558  0.8589244759368455  0.4869280261955141  1.0000
  H   H29       1.0  0.3635944460851023  0.23843907124440722  0.42662245782967295  1.0000
  H   H30       1.0  0.6363988929296481  0.7615528983629075  0.5733878495744805  1.0000
  C   C1        1.0  0.945721894375822  0.07533448291778909  0.2419934198035705  1.0000
  C   C2        1.0  0.054260934418017666  0.9246573157813526  0.7579892906826587  1.0000
  C   C3        1.0  0.3259453677406371  0.39702439463984257  0.09473163293621674  1.0000
  C   C4        1.0  0.6740776031631626  0.602986937978983  0.9052695829307428  1.0000
  C   C5        1.0  0.42506046587719487  0.6838363144645427  0.20567243963802898  1.0000
  C   C6        1.0  0.5749484544917323  0.3161739839267952  0.7943295532802709  1.0000
  C   C7        1.0  0.33166630903458133  0.6282056813232587  0.0888203623989129  1.0000
  C   C8        1.0  0.6683543068843818  0.3718179114273283  0.911183132283249  1.0000
  C   C9        1.0  0.9584345595227505  0.024433240173721112  0.04592069399453896  1.0000
  C   C10       1.0  0.041519137150238875  0.9755202870468125  0.9540728981577191  1.0000
  C   C11       1.0  0.4451161731307138  0.3569066066202353  0.2805337715591564  1.0000
  C   C12       1.0  0.5548487052053872  0.6430787385765555  0.7194482094418505  1.0000
  C   C13       1.0  0.46561961140199065  0.5961985542408356  0.26692343538493907  1.0000
  C   C14       1.0  0.5343657480071401  0.4038163557003855  0.7330787295612569  1.0000
  C   C15       1.0  0.41306582441099954  0.4521507003909876  0.2114951081164095  1.0000
  C   C16       1.0  0.5869278538119288  0.5478643089886502  0.7884974784745682  1.0000
  C   C17       1.0  0.8071261410911461  0.07120788032667491  0.024027213633068794  1.0000
  C   C18       1.0  0.1927933348529862  0.9286906902643748  0.9759701087676403  1.0000
  C   C19       1.0  0.03894330467902312  0.42424211572193116  0.7364395034661941  1.0000
  C   C20       1.0  0.9610865029491222  0.5757809353918971  0.263566414843595  1.0000
  C   C21       1.0  0.47362360356540023  0.8367725577633321  0.2636769047289463  1.0000
  C   C22       1.0  0.5263791997295543  0.1632248015677575  0.7363242230314669  1.0000
  C   C23       1.0  0.2832832510104595  0.485043897150625  0.03335293382685484  1.0000
  C   C24       1.0  0.716748356389893  0.5149860898286464  0.9666618173693354  1.0000
  C   C25       1.0  0.7331663043959722  0.1166542819505025  0.1122760164461809  1.0000
  C   C26       1.0  0.2667853561783604  0.8832779211581541  0.8877218258177637  1.0000
  C   C27       1.0  0.14759516552506827  0.5102908071538083  0.8570158205861563  1.0000
  C   C28       1.0  0.8524506230993084  0.4897344817622695  0.14298895977870535  1.0000
  C   C29       1.0  0.9063061643443076  0.21077946157100763  0.5789740572657963  1.0000
  C   C30       1.0  0.09370879656130887  0.7892292460840268  0.42102661341176184  1.0000
  C   C31       1.0  0.0175629219638367  0.28461135359667367  0.6905524613740044  1.0000
  C   C32       1.0  0.9824606918826081  0.715412708763381  0.3094466144786098  1.0000
  C   C33       1.0  0.0270703972663995  0.026822985368852394  0.15845147963909773  1.0000
  C   C34       1.0  0.9728826280560766  0.9731455225132914  0.8415178170543316  1.0000
  C   C35       1.0  0.9507137254361311  0.4851113980947942  0.6665427305171435  1.0000
  C   C36       1.0  0.04929852001317413  0.5149001926960608  0.3334590606590667  1.0000
  C   C37       1.0  0.8397474096887978  0.40415467352021045  0.5566976103800345  1.0000
  C   C38       1.0  0.1602639826654127  0.5958524011153443  0.443308788694246  1.0000
  N   N1        1.0  0.8168879406756561  0.268443896294265  0.513119243732689  1.0000
  N   N2        1.0  0.1831260670087148  0.7315631126908072  0.4868914212550238  1.0000
  N   N3        1.0  0.8007125871441759  0.11972399654724343  0.22009021390420713  1.0000
  N   N4        1.0  0.19930233768729286  0.8802646878906729  0.779912766947277  1.0000
  O   O1        1.0  0.5964021313151663  0.8990148461581312  0.3620486066338061  1.0000
  O   O2        1.0  0.4035903417783332  0.1009921970009273  0.6379534652303179  1.0000
  O   O3        1.0  0.4202069015935948  0.3803255246085087  0.37932629023445236  1.0000
  O   O4        1.0  0.579737374880473  0.6196334095192881  0.6206530055418257  1.0000
  O   O5        1.0  0.191713625627159  0.42128695991338105  0.9199400366477734  1.0000
  O   O6        1.0  0.8082887390255992  0.5787234782741493  0.08005168624799099  1.0000
  O   O7        1.0  0.495016945017099  0.2588375934881526  0.23333525387525364  1.0000
  O   O8        1.0  0.5049505650934379  0.7411443864027445  0.7666358628850177  1.0000
  O   O9        1.0  0.33682342889435557  0.13869493705723096  0.4317492965030709  1.0000
  O   O10       1.0  0.663188109730733  0.8612982845918327  0.56826150082631  1.0000
  O   O11       1.0  0.3934312116879113  0.9027909099557758  0.21175813628162393  1.0000
  O   O12       1.0  0.606559478507684  0.09722105119914909  0.7882471740793523  1.0000
