data_image0
_chemical_formula_structural       Cu2H16C16S4I2N4
_chemical_formula_sum              "Cu2 H16 C16 S4 I2 N4"
_cell_length_a       7.194741350720447
_cell_length_b       10.470268121987598
_cell_length_c       10.908019308899778
_cell_angle_alpha    96.95625825423853
_cell_angle_beta     92.89259329464112
_cell_angle_gamma    105.08161461284347

_space_group_name_H-M_alt    "P 1"
_space_group_IT_number       1

loop_
  _space_group_symop_operation_xyz
  'x, y, z'

loop_
  _atom_site_type_symbol
  _atom_site_label
  _atom_site_symmetry_multiplicity
  _atom_site_fract_x
  _atom_site_fract_y
  _atom_site_fract_z
  _atom_site_occupancy
  Cu  Cu1       1.0  0.5100151117708762  0.393174164002275  0.5969290900090485  1.0000
  Cu  Cu2       1.0  0.48996983592562066  0.6068171098475403  0.4030625618799846  1.0000
  H   H1        1.0  0.8402863552731077  0.515076781732361  0.7971252938152276  1.0000
  H   H2        1.0  0.15971487180479474  0.48492138840607885  0.2028789234387958  1.0000
  H   H3        1.0  0.3298356159457612  0.4681467180250891  0.016314090010276117  1.0000
  H   H4        1.0  0.6701721740157965  0.5318583662707541  0.9836959419632619  1.0000
  H   H5        1.0  0.05519571319157992  0.21535564707193797  0.6369611759862792  1.0000
  H   H6        1.0  0.9447986493113804  0.7846267179927793  0.3630350080786044  1.0000
  H   H7        1.0  0.7012401105972472  0.9063717622947038  0.35837252411389636  1.0000
  H   H8        1.0  0.29877505478970073  0.0936265098667732  0.6416376885103148  1.0000
  H   H9        1.0  0.05983583377448558  0.5885752961778297  0.6846423096270868  1.0000
  H   H10       1.0  0.9401518036672771  0.4114157812418142  0.3153567436314262  1.0000
  H   H11       1.0  0.2248954851753666  0.522527261405429  0.6035117867342308  1.0000
  H   H12       1.0  0.7750776223846432  0.47746217396274915  0.3964966201239548  1.0000
  H   H13       1.0  0.5903966154790653  0.054780412122312314  0.3234678890325355  1.0000
  H   H14       1.0  0.40959673169574967  0.9452150001673655  0.6765246513097409  1.0000
  H   H15       1.0  0.4900549055598304  0.18014622648750134  0.38907675350540677  1.0000
  H   H16       1.0  0.509937879787053  0.8198437152300572  0.6109296489051488  1.0000
  C   C1        1.0  0.2051738325549763  0.4794332566662263  0.7802272871901791  1.0000
  C   C2        1.0  0.7948240515761356  0.5205751926376792  0.2197654669412046  1.0000
  C   C3        1.0  0.10036635107188369  0.4912915763187867  0.8924388051540574  1.0000
  C   C4        1.0  0.8996462371761282  0.508723357289341  0.1075774072939097  1.0000
  C   C5        1.0  0.9136393623537487  0.5100931551507555  0.8856835018173398  1.0000
  C   C6        1.0  0.08637425467610883  0.4899127574385034  0.1143351049480046  1.0000
  C   C7        1.0  0.18459355715220477  0.48116122868035655  0.008646785533365205  1.0000
  C   C8        1.0  0.815405182966842  0.518837816955063  0.9913593081426341  1.0000
  C   C9        1.0  0.7192131739262495  0.15345134577474076  0.4930176090354976  1.0000
  C   C10       1.0  0.2808393295841469  0.8465738327806278  0.5069583479227262  1.0000
  C   C11       1.0  0.8601877307924966  0.07316153536761763  0.49691435256596606  1.0000
  C   C12       1.0  0.13978241343189535  0.9268274905688544  0.5031039828658876  1.0000
  C   C13       1.0  0.029085388147528615  0.11992361410113263  0.5779301155264847  1.0000
  C   C14       1.0  0.970929426427226  0.8800854104324503  0.42205688119686613  1.0000
  C   C15       1.0  0.8336318608490885  0.9514674218237859  0.41880968314355743  1.0000
  C   C16       1.0  0.16637693946396584  0.0485403598793113  0.5811805961175125  1.0000
  S   S1        1.0  0.36800711515981294  0.38877300146666033  0.7759279765742946  1.0000
  S   S2        1.0  0.6320056621731638  0.6112343580413081  0.2240770531500758  1.0000
  S   S3        1.0  0.7265342328374303  0.2753758527143617  0.6108844104636617  1.0000
  S   S4        1.0  0.2734728345147488  0.7246229449626965  0.3891054222566622  1.0000
  I   I1        1.0  0.2777650586614655  0.3470065010503872  0.3903347806212735  1.0000
  I   I2        1.0  0.7222321779428071  0.6529880650770892  0.6096559355746862  1.0000
  N   N1        1.0  0.1644929948653911  0.5386723427600161  0.6848248124521987  1.0000
  N   N2        1.0  0.8354988048981224  0.461326715638819  0.31517645933416816  1.0000
  N   N3        1.0  0.5890921661902623  0.12580786151907833  0.3951387713877991  1.0000
  N   N4        1.0  0.410870687812185  0.874187935234296  0.6048518635565258  1.0000
