data_image0
_chemical_formula_structural       Fe2H20C20N8O8
_chemical_formula_sum              "Fe2 H20 C20 N8 O8"
_cell_length_a       5.052302325740629
_cell_length_b       8.252759603994235
_cell_length_c       12.183151078647276
_cell_angle_alpha    92.61802386125522
_cell_angle_beta     90.00861237675345
_cell_angle_gamma    89.99392088359673

_space_group_name_H-M_alt    "P 1"
_space_group_IT_number       1

loop_
  _space_group_symop_operation_xyz
  'x, y, z'

loop_
  _atom_site_type_symbol
  _atom_site_label
  _atom_site_symmetry_multiplicity
  _atom_site_fract_x
  _atom_site_fract_y
  _atom_site_fract_z
  _atom_site_occupancy
  Fe  Fe1       1.0  0.49999797264391077  0.5000047061823949  0.5000012835164966  1.0000
  Fe  Fe2       1.0  4.315000232700004e-06  0.9999961578957507  0.9999983970586401  1.0000
  H   H1        1.0  0.342263411373203  0.8229162780165991  0.6934144447036061  1.0000
  H   H2        1.0  0.8425435093666422  0.6772098928977425  0.8065936833902684  1.0000
  H   H3        1.0  0.6577483651827976  0.17708335375715475  0.30658047818835854  1.0000
  H   H4        1.0  0.15745045742284702  0.32278620242420425  0.19341099674852563  1.0000
  H   H5        1.0  0.14109249907405538  0.9839018195236946  0.7481538475299063  1.0000
  H   H6        1.0  0.6411514216389732  0.516325370017398  0.7518687169348084  1.0000
  H   H7        1.0  0.8589153195139047  0.016095403478715298  0.25184265384404375  1.0000
  H   H8        1.0  0.35884452351127283  0.48367433872643767  0.2481335955150712  1.0000
  H   H9        1.0  0.8017858423143808  0.9065663443111517  0.6067622344757027  1.0000
  H   H10       1.0  0.30204610286322975  0.5933345812617571  0.8932208388545676  1.0000
  H   H11       1.0  0.19823187325263802  0.09344301598978429  0.3932354060888485  1.0000
  H   H12       1.0  0.6979399467780424  0.40666394049517146  0.10678390499812448  1.0000
  H   H13       1.0  0.9331339821716471  0.19674116416794615  0.5047860662888866  1.0000
  H   H14       1.0  0.43333888984008684  0.3031329824176863  0.9951519814131448  1.0000
  H   H15       1.0  0.0668678988045102  0.8032754664736855  0.49521094430238594  1.0000
  H   H16       1.0  0.5666530966844618  0.6968643006857814  0.004850267425005897  1.0000
  H   H17       1.0  0.2300836032956894  0.2658885591765595  0.6855220152955397  1.0000
  H   H18       1.0  0.7300201054454263  0.23424505905566653  0.8144847223595734  1.0000
  H   H19       1.0  0.7699064016142075  0.7341074520651601  0.3144744544087814  1.0000
  H   H20       1.0  0.2699758379574888  0.7657473297999076  0.18551329391869595  1.0000
  C   C1        1.0  0.4763696546425109  0.9237399192996988  0.8483185837259202  1.0000
  C   C2        1.0  0.9764497329061399  0.5763149994281207  0.651690764457939  1.0000
  C   C3        1.0  0.5236421221735269  0.07625486909808639  0.1516770329213273  1.0000
  C   C4        1.0  0.023542254362055804  0.4236883653074627  0.3483132855883753  1.0000
  C   C5        1.0  0.3460494588151661  0.9436537246081966  0.7359283466372163  1.0000
  C   C6        1.0  0.8461738904855521  0.556462448876168  0.7640991681869809  1.0000
  C   C7        1.0  0.6539603387740129  0.05634591573250699  0.2640673973186267  1.0000
  C   C8        1.0  0.1538180970426808  0.44353607248345367  0.23590557561461623  1.0000
  C   C9        1.0  0.7113096020181544  0.025546065141931293  0.6082584959955639  1.0000
  C   C10       1.0  0.21151802753994528  0.47445777637823017  0.8917393463605452  1.0000
  C   C11       1.0  0.2887001951885253  0.9744729655716636  0.3917361150328135  1.0000
  C   C12       1.0  0.7884719806410346  0.5255371062559673  0.10826530198941951  1.0000
  C   C13       1.0  0.7685406582022551  0.1661843730427249  0.556849958825488  1.0000
  C   C14       1.0  0.2687357828555434  0.33374388529056614  0.9431451167291769  1.0000
  C   C15       1.0  0.23145132842547866  0.8338201877764603  0.4431524809500047  1.0000
  C   C16       1.0  0.7312562030285432  0.6662545938964965  0.056855521838159  1.0000
  C   C17       1.0  0.4058700789238544  0.21069649117104208  0.6496580448429512  1.0000
  C   C18       1.0  0.9058871730131628  0.28938939769640365  0.850350778049091  1.0000
  C   C19       1.0  0.594127843271835  0.7893067972566498  0.3503386157305998  1.0000
  C   C20       1.0  0.09411470966081478  0.7106078763103695  0.14965064965706182  1.0000
  N   N1        1.0  0.48093907393154467  0.05566566220727509  0.6665277776927993  1.0000
  N   N2        1.0  0.9810526607300858  0.4444066620389791  0.8334919728132777  1.0000
  N   N3        1.0  0.5190707243324866  0.9443352079550706  0.3334696401796365  1.0000
  N   N4        1.0  0.018939326123288004  0.555590629499001  0.1665110970717336  1.0000
  N   N5        1.0  0.5757225200870479  0.2808306488349784  0.5827248641756171  1.0000
  N   N6        1.0  0.07579118137947208  0.21919262689526414  0.9172819127680257  1.0000
  N   N7        1.0  0.4242773817847123  0.7191762867526421  0.4172727128964198  1.0000
  N   N8        1.0  0.9242067420455413  0.7808046305073685  0.082717872878483  1.0000
  O   O1        1.0  0.31973072217824244  0.881061049048412  0.9242130764784662  1.0000
  O   O2        1.0  0.8197483368426858  0.618963570950548  0.5757664313491659  1.0000
  O   O3        1.0  0.6802731374379859  0.11893252692649979  0.075782508414008  1.0000
  O   O4        1.0  0.1802495886412885  0.38103980182224  0.4242384396929069  1.0000
  O   O5        1.0  0.7240364818491825  0.9401456588074095  0.8569063128742371  1.0000
  O   O6        1.0  0.2240961687493765  0.5598922619343937  0.6431232830657336  1.0000
  O   O7        1.0  0.2759693570455042  0.059846704082453094  0.1430892401783197  1.0000
  O   O8        1.0  0.7759037356842243  0.4401098893188332  0.3568807350895682  1.0000
