data_image0
_chemical_formula_structural       Co2H34C32N4O8
_chemical_formula_sum              "Co2 H34 C32 N4 O8"
_cell_length_a       7.967377862499006
_cell_length_b       10.763443976208967
_cell_length_c       10.99282524485938
_cell_angle_alpha    99.28859714334097
_cell_angle_beta     105.05935937930533
_cell_angle_gamma    113.8663724228581

_space_group_name_H-M_alt    "P 1"
_space_group_IT_number       1

loop_
  _space_group_symop_operation_xyz
  'x, y, z'

loop_
  _atom_site_type_symbol
  _atom_site_label
  _atom_site_symmetry_multiplicity
  _atom_site_fract_x
  _atom_site_fract_y
  _atom_site_fract_z
  _atom_site_occupancy
  Co  Co1       1.0  0.4436601355048353  0.4836034061391176  0.5877820169677435  1.0000
  Co  Co2       1.0  0.5563345258013754  0.5163907870833101  0.41221016192802296  1.0000
  H   H1        1.0  0.2858857332588158  0.909304584713553  0.6275086178606983  1.0000
  H   H2        1.0  0.7141231773089559  0.0906893145696088  0.3725280187021056  1.0000
  H   H3        1.0  0.5574248704776964  0.15899192887560085  0.7136211111239703  1.0000
  H   H4        1.0  0.44257881750875316  0.8410019801212487  0.28640545504323  1.0000
  H   H5        1.0  0.24097799926539656  0.21113949001828303  0.6734027970300076  1.0000
  H   H6        1.0  0.7590482145885673  0.7888637813726761  0.32660409663922246  1.0000
  H   H7        1.0  0.15143229586448106  0.20706160756066794  0.9036273343651189  1.0000
  H   H8        1.0  0.848576802524114  0.7929370477286923  0.09637466823389215  1.0000
  H   H9        1.0  0.9611666179441941  0.06705073505089129  0.30762876862466015  1.0000
  H   H10       1.0  0.03883783009017352  0.9329574380655503  0.6923612546908727  1.0000
  H   H11       1.0  0.16334609691370622  0.03272810695718681  0.3323976823376142  1.0000
  H   H12       1.0  0.8366525056315126  0.9672769145336204  0.6675816145954129  1.0000
  H   H13       1.0  0.8016362929335656  0.0908817966682136  0.08921107098863246  1.0000
  H   H14       1.0  0.1983647951436465  0.9091358557351725  0.9107717560584091  1.0000
  H   H15       1.0  0.10761619404163969  0.6743885221239125  0.29313474070386997  1.0000
  H   H16       1.0  0.8924012225407341  0.3256280409248121  0.7068800593224367  1.0000
  H   H17       1.0  0.07543150487553855  0.6886589195901749  0.4483608887146531  1.0000
  H   H18       1.0  0.9245564665725182  0.3113349029902679  0.5516427155972464  1.0000
  H   H19       1.0  0.34309526606203633  0.5828329643425507  0.10253531608200464  1.0000
  H   H20       1.0  0.6568940372206667  0.4171652290315677  0.8974601852756336  1.0000
  H   H21       1.0  0.2694182342258741  0.4077361821526893  0.10982051559606984  1.0000
  H   H22       1.0  0.7305836239595962  0.5922612686020726  0.8901781110328102  1.0000
  H   H23       1.0  0.49469056194313055  0.715770448890794  0.8324138183973985  1.0000
  H   H24       1.0  0.5052935126589446  0.28422773975233184  0.16757251873106327  1.0000
  H   H25       1.0  0.46437405532634557  0.7221092189545004  0.988121712990427  1.0000
  H   H26       1.0  0.5356218395969136  0.2778912680571962  0.011873590212012158  1.0000
  H   H27       1.0  0.2667777943210154  0.6917993174677621  0.845782625960993  1.0000
  H   H28       1.0  0.7331943758271819  0.30819206236019175  0.15421397422783656  1.0000
  H   H29       1.0  0.021196399462923007  0.46984074297580514  0.13388061606973173  1.0000
  H   H30       1.0  0.9788093482116836  0.5301566354926168  0.8661296411048268  1.0000
  H   H31       1.0  0.9188317025786359  0.3387354071088495  0.9792408089115553  1.0000
  H   H32       1.0  0.08115834999932756  0.6612511577246494  0.020760124918851368  1.0000
  H   H33       1.0  0.2828616387641886  0.9916623382421225  0.153433900551434  1.0000
  H   H34       1.0  0.7171420654454436  0.008359631970137098  0.8465465127227816  1.0000
  C   C1        1.0  0.3798642486754103  0.9493499251255315  0.5713143514587883  1.0000
  C   C2        1.0  0.6201335084316567  0.0506406300201263  0.4287141746560578  1.0000
  C   C3        1.0  0.5337956744569041  0.08853365831369328  0.620506153136894  1.0000
  C   C4        1.0  0.46621522933546805  0.9114613974390197  0.37952741366619586  1.0000
  C   C5        1.0  0.2824823950453918  0.6133293040493797  0.4297932112948359  1.0000
  C   C6        1.0  0.7175135011354071  0.3866668747412876  0.5702086347117898  1.0000
  C   C7        1.0  0.2551943528733176  0.29610056481566716  0.7498758336978708  1.0000
  C   C8        1.0  0.7448220351416024  0.7038972564552353  0.2501255669418541  1.0000
  C   C9        1.0  0.20965285013731005  0.2922526670983174  0.8617728604828017  1.0000
  C   C10       1.0  0.7903555508942972  0.7077469617365609  0.13823281732238962  1.0000
  C   C11       1.0  0.2380100784886423  0.24904738762432999  0.3584199834075719  1.0000
  C   C12       1.0  0.7619996897158854  0.7509610068933554  0.6415656116405443  1.0000
  C   C13       1.0  0.09573054485106519  0.0924768893794408  0.28510387232818596  1.0000
  C   C14       1.0  0.9042719770510246  0.9075302861589594  0.7148792529162336  1.0000
  C   C15       1.0  0.04921569623409279  0.04787350098857251  0.138470058263735  1.0000
  C   C16       1.0  0.9507776050676353  0.9521291883245341  0.8615142198394847  1.0000
  C   C17       1.0  0.8895591669748839  0.051208919347161  0.050354275780691196  1.0000
  C   C18       1.0  0.11044000905496872  0.9488013020360171  0.9496296550686478  1.0000
  C   C19       1.0  0.1839163316641929  0.7054077029315239  0.4003123100132128  1.0000
  C   C20       1.0  0.8160788183652059  0.29458933384719904  0.5997004605311033  1.0000
  C   C21       1.0  0.3432775841904813  0.8587453530691107  0.4499481599863557  1.0000
  C   C22       1.0  0.6567228208030683  0.1412452838878053  0.5500799643276649  1.0000
  C   C23       1.0  0.3254085845537631  0.5138756759357648  0.8488323805825573  1.0000
  C   C24       1.0  0.674587353693383  0.4861227580782029  0.1511598508569065  1.0000
  C   C25       1.0  0.23284200697218435  0.4715709331952739  0.04984904592371455  1.0000
  C   C26       1.0  0.7671539264332025  0.528423178152977  0.9501506344863768  1.0000
  C   C27       1.0  0.39108032595919434  0.6695645586487302  0.8811139934013139  1.0000
  C   C28       1.0  0.6089082536829976  0.33044101282371235  0.11887899362197629  1.0000
  C   C29       1.0  0.026982587309603814  0.4508887685163927  0.03408125098517437  1.0000
  C   C30       1.0  0.9730114035519147  0.549097839588228  0.9659240640594006  1.0000
  C   C31       1.0  0.1592269490356699  0.9961454691835387  0.0859561445777359  1.0000
  C   C32       1.0  0.8407676920863237  0.003855143036382496  0.9140289386110679  1.0000
  N   N1        1.0  0.3273422482409956  0.43380292740076243  0.7433306228445388  1.0000
  N   N2        1.0  0.672660270076882  0.5661956172508978  0.2566664941746949  1.0000
  N   N3        1.0  0.2548953074354472  0.43001757514948485  0.923982029659058  1.0000
  N   N4        1.0  0.7450999273554116  0.5699818179653134  0.07601478315302045  1.0000
  O   O1        1.0  0.2411975307469305  0.29374319053459175  0.4742283161023479  1.0000
  O   O2        1.0  0.7588175973674252  0.7062547414998619  0.5257637706901902  1.0000
  O   O3        1.0  0.2746892166479711  0.5682275020863301  0.529625381631483  1.0000
  O   O4        1.0  0.7252975394809482  0.4317600700388908  0.4703723798744263  1.0000
  O   O5        1.0  0.37710930789642555  0.5953409968814753  0.356452886134754  1.0000
  O   O6        1.0  0.6228950297217325  0.40466907034119265  0.6435501767745819  1.0000
  O   O7        1.0  0.34740797213285646  0.3227230175399924  0.30322702800199147  1.0000
  O   O8        1.0  0.65259248819477  0.6772871508583691  0.69676259202879  1.0000
