data_image0
_chemical_formula_structural       Ag4H20C8N24
_chemical_formula_sum              "Ag4 H20 C8 N24"
_cell_length_a       6.99316544664974
_cell_length_b       6.359823681831413
_cell_length_c       14.394518764779129
_cell_angle_alpha    90.0011035064276
_cell_angle_beta     89.99665348492243
_cell_angle_gamma    117.93061615947359

_space_group_name_H-M_alt    "P 1"
_space_group_IT_number       1

loop_
  _space_group_symop_operation_xyz
  'x, y, z'

loop_
  _atom_site_type_symbol
  _atom_site_label
  _atom_site_symmetry_multiplicity
  _atom_site_fract_x
  _atom_site_fract_y
  _atom_site_fract_z
  _atom_site_occupancy
  Ag  Ag1       1.0  0.5674248891461391  0.9667948663628892  0.7263395009643716  1.0000
  Ag  Ag2       1.0  0.4325466199498821  0.5331744231203929  0.22633214437625782  1.0000
  Ag  Ag3       1.0  0.4326119170646124  0.03320387910435582  0.2736651989715639  1.0000
  Ag  Ag4       1.0  0.5674611602923251  0.46683526826821264  0.7736607435465572  1.0000
  H   H1        1.0  0.8527152162936674  0.19981749590370168  0.5484065866063333  1.0000
  H   H2        1.0  0.1473764359579661  0.30026358822168936  0.0483763252376406  1.0000
  H   H3        1.0  0.14730452228001684  0.8002173177881533  0.451607836714949  1.0000
  H   H4        1.0  0.852620461923678  0.6997279402663851  0.9516242047884519  1.0000
  H   H5        1.0  0.8597553458778366  0.946301855564741  0.5716260273776541  1.0000
  H   H6        1.0  0.14033489690006468  0.5537393589854107  0.07161324994071089  1.0000
  H   H7        1.0  0.1402446838946787  0.0537379353409477  0.4283689428773059  1.0000
  H   H8        1.0  0.8596944863658609  0.4462586784574257  0.9283733872263299  1.0000
  H   H9        1.0  0.38827492029474814  0.4875641850894183  0.6259029139274119  1.0000
  H   H10       1.0  0.611739406234328  0.012429597774250605  0.1258667725431977  1.0000
  H   H11       1.0  0.6117174377844208  0.5124663138850921  0.37410386642981314  1.0000
  H   H12       1.0  0.38821650320988993  0.9875477565278604  0.8741156936665746  1.0000
  H   H13       1.0  0.23026452822294635  0.37748058712112714  0.5237862959438999  1.0000
  H   H14       1.0  0.7697134957723225  0.12256766206211726  0.0237660663047876  1.0000
  H   H15       1.0  0.7697245365537029  0.6225170519588447  0.4762274328740261  1.0000
  H   H16       1.0  0.23021860648101033  0.8773954387069627  0.9762101470019218  1.0000
  H   H17       1.0  0.3302945967969109  0.19874492492551354  0.5831687774507159  1.0000
  H   H18       1.0  0.6697171558702166  0.3012923886968366  0.08318019651397178  1.0000
  H   H19       1.0  0.6696678120058197  0.8012107802662956  0.4168345313626673  1.0000
  H   H20       1.0  0.33027436389081544  0.6987397406707532  0.9168085212940086  1.0000
  C   C1        1.0  0.061621332480662316  0.21467902033400324  0.7399948664852829  1.0000
  C   C2        1.0  0.9383697102284642  0.28531523932360164  0.24002489798409954  1.0000
  C   C3        1.0  0.9383516039448594  0.7853136533511886  0.2599744003900497  1.0000
  C   C4        1.0  0.06165861656884884  0.7146878447575274  0.7600075896809102  1.0000
  C   C5        1.0  0.26569032201777537  0.3258396204025474  0.5917927547320687  1.0000
  C   C6        1.0  0.7343919627819276  0.17422958312514683  0.0918037588648275  1.0000
  C   C7        1.0  0.734368408445107  0.6741800493408335  0.40820221939650747  1.0000
  C   C8        1.0  0.2656134064264253  0.8257576110410415  0.9081988559138311  1.0000
  N   N1        1.0  0.8771993324666952  0.11792647252867286  0.79029676925024  1.0000
  N   N2        1.0  0.12274561506202991  0.38202220093483424  0.2902966956869477  1.0000
  N   N3        1.0  0.12278527880634744  0.8820707415969128  0.20970514931392606  1.0000
  N   N4        1.0  0.8772691445458491  0.617983018439709  0.7097218970225826  1.0000
  N   N5        1.0  0.9377960756608488  0.14886515421670052  0.8808710217782547  1.0000
  N   N6        1.0  0.06213825403201417  0.3510532408333093  0.38089001766148556  1.0000
  N   N7        1.0  0.06219054297039871  0.8510979898843946  0.1191350667324684  1.0000
  N   N8        1.0  0.9378345080055085  0.6489548422621142  0.6191285728158319  1.0000
  N   N9        1.0  0.14779064230345543  0.25714877421512483  0.8863633178938173  1.0000
  N   N10       1.0  0.8521399150403113  0.24278482484575653  0.386365089884869  1.0000
  N   N11       1.0  0.8522004760386963  0.7428267867077878  0.1136309602100596  1.0000
  N   N12       1.0  0.147837066421225  0.7572150915117959  0.6136409964250832  1.0000
  N   N13       1.0  0.2330173157789162  0.3008118418222594  0.7986397801764369  1.0000
  N   N14       1.0  0.7669498854608465  0.19915376876780758  0.29867393863280967  1.0000
  N   N15       1.0  0.7669424850002714  0.6991881535829094  0.20135241109363022  1.0000
  N   N16       1.0  0.23305700875142332  0.8008455619449678  0.7013300650723835  1.0000
  N   N17       1.0  0.06683182248679741  0.22588344467342844  0.6458684955211496  1.0000
  N   N18       1.0  0.9332500138840629  0.2741937568221857  0.14587682404981447  1.0000
  N   N19       1.0  0.9332018547517293  0.7741304192487276  0.35412439350047725  1.0000
  N   N20       1.0  0.06676952844485139  0.7257810790669341  0.8541271814325668  1.0000
  N   N21       1.0  0.8662573381797928  0.09723193019600274  0.6003818421691561  1.0000
  N   N22       1.0  0.13383359136930303  0.4028170182840968  0.10037606650359981  1.0000
  N   N23       1.0  0.13376939085529238  0.9027984055927621  0.39961729811518865  1.0000
  N   N24       1.0  0.86617053331009  0.5971786227953829  0.8996251584001699  1.0000
