data_image0
_chemical_formula_structural       Zr6H14C54S10Cl10O32
_chemical_formula_sum              "Zr6 H14 C54 S10 Cl10 O32"
_cell_length_a       16.462344677107023
_cell_length_b       16.455961031630483
_cell_length_c       16.532016173994524
_cell_angle_alpha    61.609496791682886
_cell_angle_beta     59.83056506458485
_cell_angle_gamma    60.301815687411725

_space_group_name_H-M_alt    "P 1"
_space_group_IT_number       1

loop_
  _space_group_symop_operation_xyz
  'x, y, z'

loop_
  _atom_site_type_symbol
  _atom_site_label
  _atom_site_symmetry_multiplicity
  _atom_site_fract_x
  _atom_site_fract_y
  _atom_site_fract_z
  _atom_site_occupancy
  Zr  Zr1       1.0  0.8881856871433983  0.902501266367288  0.5979648929639297  1.0000
  Zr  Zr2       1.0  0.11133942020355647  0.10332442873394847  0.39719372369950895  1.0000
  Zr  Zr3       1.0  0.10213911902540951  0.8941656740780103  0.6065505217410064  1.0000
  Zr  Zr4       1.0  0.897117549040651  0.11197402791646761  0.38876151821015986  1.0000
  Zr  Zr5       1.0  0.10854526805862713  0.8941494574205393  0.3886968129680142  1.0000
  Zr  Zr6       1.0  0.8907806700967315  0.11186517271262612  0.6064980058842551  1.0000
  H   H1        1.0  0.07758496899782585  0.7528673238799114  0.5774209639339176  1.0000
  H   H2        1.0  0.09214797908457226  0.08277759836185788  0.24745789336901686  1.0000
  H   H3        1.0  0.08346763129499381  0.08237261909686572  0.589017518280798  1.0000
  H   H4        1.0  0.7451182293263587  0.09431837509290378  0.577089288890342  1.0000
  H   H5        1.0  0.09958573170378321  0.6394013670286753  0.8689096401217357  1.0000
  H   H6        1.0  0.8425643485930293  0.654677817119868  0.8504560677641777  1.0000
  H   H7        1.0  0.8924169047725601  0.3743865141606051  0.13400081053518414  1.0000
  H   H8        1.0  0.15262093457753415  0.3558580904475264  0.14933361666643924  1.0000
  H   H9        1.0  0.26626483957366526  0.4477707613569704  0.9774710284923601  1.0000
  H   H10       1.0  0.19906117020747857  0.5709374292112984  0.926989900974924  1.0000
  H   H11       1.0  0.1917431542458489  0.5283039876747324  0.05018632552291542  1.0000
  H   H12       1.0  0.8088844389889974  0.4827454692039267  0.9423958259684325  1.0000
  H   H13       1.0  0.8033693484170428  0.4323475764887873  0.0655821657378651  1.0000
  H   H14       1.0  0.7301898748953523  0.5554876678105742  0.022868751797126812  1.0000
  C   C1        1.0  0.995691015030353  0.7398142714555862  0.48271021125344055  1.0000
  C   C2        1.0  0.28188478735332745  0.9880058605997843  0.23462670721171724  1.0000
  C   C3        1.0  0.9964341080166649  0.2736226087554384  0.5046333715978973  1.0000
  C   C4        1.0  0.7255221647478296  0.009709983911506024  0.7684153510506918  1.0000
  C   C5        1.0  0.9802508821633965  0.7411902662302408  0.7656530682620328  1.0000
  C   C6        1.0  0.7317102993562374  0.004145308328119868  0.48789408651831684  1.0000
  C   C7        1.0  0.013113788543797918  0.2710637956416377  0.2358429314313213  1.0000
  C   C8        1.0  0.276199328159727  0.9930775516054806  0.49896705134345604  1.0000
  C   C9        1.0  0.2728441415679442  0.7313095123240031  0.4970918378628043  1.0000
  C   C10       1.0  0.9922524166960397  0.9958574487837739  0.7771305761595643  1.0000
  C   C11       1.0  0.7343531814743616  0.282285712686857  0.4906859285590814  1.0000
  C   C12       1.0  0.998439614282468  0.002444342114323462  0.22603262311817943  1.0000
  C   C13       1.0  0.9242381539271707  0.4251602476206884  0.5622550035504831  1.0000
  C   C14       1.0  0.06337886379270687  0.5924973677996093  0.420409805965022  1.0000
  C   C15       1.0  0.9927207601656889  0.3660162469652448  0.5012305861000713  1.0000
  C   C16       1.0  0.995682923339899  0.6509481806250861  0.48222747420082623  1.0000
  C   C17       1.0  0.037051482834030494  0.5102813836978582  0.44940645597436196  1.0000
  C   C18       1.0  0.9498262453775085  0.5080730011317769  0.5324564493097909  1.0000
  C   C19       1.0  0.424192903117664  0.9253474538740463  0.0876768731063891  1.0000
  C   C20       1.0  0.5888638022453776  0.06713347366864038  0.9201746366314438  1.0000
  C   C21       1.0  0.37150289901519085  0.987310511672142  0.1459916071322738  1.0000
  C   C22       1.0  0.6404812674977051  0.006105490901091924  0.8610347810668558  1.0000
  C   C23       1.0  0.5102065198873832  0.03732794080706734  0.0031682010512596873  1.0000
  C   C24       1.0  0.503811957447958  0.954237442795268  0.005492615642026501  1.0000
  C   C25       1.0  0.05817168183106954  0.9272392212026901  0.9184397691038768  1.0000
  C   C26       1.0  0.9267578833606507  0.0658421629832092  0.09022123556093231  1.0000
  C   C27       1.0  0.9923784660476187  0.9930558285954234  0.8673718065914142  1.0000
  C   C28       1.0  0.9936011456233729  0.0009987869522945498  0.14025224007416162  1.0000
  C   C29       1.0  0.9500881018169524  0.0386720438941241  0.009583386473074992  1.0000
  C   C30       1.0  0.033992594692591624  0.9536027903381452  0.9999079886560551  1.0000
  C   C31       1.0  0.41652756317155615  0.5951698672981536  0.5608757957244919  1.0000
  C   C32       1.0  0.5952810366344179  0.423132935366624  0.4224877134391035  1.0000
  C   C33       1.0  0.36461567728966315  0.6452666551709144  0.49592411179363444  1.0000
  C   C34       1.0  0.6464202148773524  0.3721892994679053  0.48821265257672053  1.0000
  C   C35       1.0  0.5116986868437364  0.5046351461997247  0.4488299568675061  1.0000
  C   C36       1.0  0.5008803812523651  0.5144023245518098  0.533857047287931  1.0000
  C   C37       1.0  0.041613249804150446  0.6083181477174974  0.8993368193460399  1.0000
  C   C38       1.0  0.8951370503365508  0.6170185533781523  0.8891206266351547  1.0000
  C   C39       1.0  0.8863614559550689  0.5352279663997664  0.970004654863722  1.0000
  C   C40       1.0  0.9569101737225908  0.48767606792368684  0.019030681882156862  1.0000
  C   C41       1.0  0.9510923554042139  0.40474779264646094  0.10295588223895887  1.0000
  C   C42       1.0  0.09900907922943257  0.39456420551094606  0.11170983256303665  1.0000
  C   C43       1.0  0.10871304947323779  0.47543759553904147  0.029907228451435116  1.0000
  C   C44       1.0  0.03674828991530877  0.5244453089619014  0.9823051238643999  1.0000
  C   C45       1.0  0.972223803927783  0.6538749931776451  0.8538363419454954  1.0000
  C   C46       1.0  0.020365330595204515  0.3592662528793582  0.14856974953639224  1.0000
  C   C47       1.0  0.41980517762409164  0.058852848387026334  0.42657696889311586  1.0000
  C   C48       1.0  0.5949259882075993  0.9315871043088108  0.5533371837985824  1.0000
  C   C49       1.0  0.3679282097827965  0.9931983849971148  0.49323758565608244  1.0000
  C   C50       1.0  0.6455608118684283  0.9984645582577442  0.48797843934920576  1.0000
  C   C51       1.0  0.5129315114827764  0.9533676585717573  0.5304513748305127  1.0000
  C   C52       1.0  0.5029782411512189  0.03591989512695189  0.4482649839177668  1.0000
  C   C53       1.0  0.19539928288450875  0.50812444681177  0.9935790314788024  1.0000
  C   C54       1.0  0.8033148135006059  0.49888216988897244  0.0027146381575206837  1.0000
  S   S1        1.0  0.08784296656464365  0.41172064126197216  0.40747855177747283  1.0000
  S   S2        1.0  0.8997712042608726  0.6059536610921229  0.5751478914431516  1.0000
  S   S3        1.0  0.419590275521415  0.08016776073134939  0.10095520811918855  1.0000
  S   S4        1.0  0.5934466029200254  0.9122876094906757  0.9069088004609256  1.0000
  S   S5        1.0  0.90065726595531  0.08649799208780709  0.9196511089413236  1.0000
  S   S6        1.0  0.08431619375351565  0.9066056451474792  0.08896910253970709  1.0000
  S   S7        1.0  0.4194723332403498  0.5938100535516639  0.40167731873511064  1.0000
  S   S8        1.0  0.5924624267908316  0.4245337260185735  0.5816203663181196  1.0000
  S   S9        1.0  0.421362239464173  0.9033453376833479  0.5814378933647218  1.0000
  S   S10       1.0  0.5934378775466341  0.08703781773832736  0.3984785911204369  1.0000
  Cl  Cl1       1.0  0.8215889572329901  0.404772556794825  0.661598404487627  1.0000
  Cl  Cl2       1.0  0.16668087865770798  0.6122508626706066  0.32174355032478275  1.0000
  Cl  Cl3       1.0  0.3998225297839755  0.8266439915206547  0.10746877900530903  1.0000
  Cl  Cl4       1.0  0.6125468667293106  0.16650556632846059  0.8997043932394464  1.0000
  Cl  Cl5       1.0  0.1578590634808422  0.8266011812277583  0.8907146394823756  1.0000
  Cl  Cl6       1.0  0.8276960540291683  0.16698409970960162  0.117456141058355  1.0000
  Cl  Cl7       1.0  0.38725425092466287  0.6224590822731386  0.6619891325219456  1.0000
  Cl  Cl8       1.0  0.6238385202979729  0.3953393746113392  0.3219219810166934  1.0000
  Cl  Cl9       1.0  0.3919891024125448  0.1567025340476745  0.3299345166556408  1.0000
  Cl  Cl10      1.0  0.6219043487528775  0.8345372372200189  0.6508108070550449  1.0000
  O   O1        1.0  0.9243781533706398  0.776101998171363  0.5514580662203271  1.0000
  O   O2        1.0  0.2481064982155345  0.0567585139400606  0.2709130968002925  1.0000
  O   O3        1.0  0.06977308003602892  0.23541863771545476  0.43799483741793216  1.0000
  O   O4        1.0  0.7569768247468006  0.9431339149346486  0.7301587872226347  1.0000
  O   O5        1.0  0.05157820903696103  0.7720690489945455  0.7342046791767701  1.0000
  O   O6        1.0  0.7652993542869525  0.07329883478117702  0.42127166009947814  1.0000
  O   O7        1.0  0.942313299798471  0.23969954363500545  0.26663041477543475  1.0000
  O   O8        1.0  0.240050567466426  0.9264727152596848  0.5681190929976481  1.0000
  O   O9        1.0  0.24062495099844486  0.7630062422594933  0.4277210612859434  1.0000
  O   O10       1.0  0.924512917834058  0.06709521182234815  0.7433687600542386  1.0000
  O   O11       1.0  0.7647447656332107  0.2486355478488136  0.5618157281781748  1.0000
  O   O12       1.0  0.06844916235178997  0.93318021252837  0.257623371283195  1.0000
  O   O13       1.0  0.06106898200236081  0.9277295796635413  0.7389907836533781  1.0000
  O   O14       1.0  0.7720428966187995  0.24432436658975842  0.42234730805951404  1.0000
  O   O15       1.0  0.9329873380021922  0.07355318155317997  0.2611256456884092  1.0000
  O   O16       1.0  0.23222259708637685  0.7665068132709081  0.568100874728465  1.0000
  O   O17       1.0  0.9147170678879347  0.7788481341388972  0.7258780163288492  1.0000
  O   O18       1.0  0.23918855091147867  0.0621055425967896  0.43377487819794425  1.0000
  O   O19       1.0  0.08076226455716554  0.23118876833706276  0.2735333812338894  1.0000
  O   O20       1.0  0.7649062563696918  0.9389588514884365  0.5569176428151437  1.0000
  O   O21       1.0  0.7603349686659016  0.07859653391440698  0.7332338001219014  1.0000
  O   O22       1.0  0.06694869511179011  0.7723338151504607  0.41672242292757045  1.0000
  O   O23       1.0  0.24395427700324024  0.9221853230047117  0.26692394699433925  1.0000
  O   O24       1.0  0.9277598592578187  0.2385682005387935  0.5733558467333141  1.0000
  O   O25       1.0  0.8174484136473552  0.06925644752217863  0.5541062236635952  1.0000
  O   O26       1.0  0.05912925666219593  0.05945435693878656  0.5639385709235256  1.0000
  O   O27       1.0  0.06646663308448807  0.05907846643915347  0.3185398148244475  1.0000
  O   O28       1.0  0.05589718675152942  0.8239418761849038  0.5536584120103  1.0000
  O   O29       1.0  0.13386134469430996  0.9539907581540062  0.45595523531692816  1.0000
  O   O30       1.0  0.9561308526836071  0.9613791388944293  0.4485984649736779  1.0000
  O   O31       1.0  0.9581608609512814  0.13471880451218965  0.4564894760228953  1.0000
  O   O32       1.0  0.9506037251509698  0.9618652524683853  0.6293238644948359  1.0000
