data_image0
_chemical_formula_structural       Zr12H52C52N4O64
_chemical_formula_sum              "Zr12 H52 C52 N4 O64"
_cell_length_a       12.018984031384765
_cell_length_b       14.019223449438465
_cell_length_c       23.148778822808634
_cell_angle_alpha    82.1307573559395
_cell_angle_beta     74.9703493665076
_cell_angle_gamma    64.62111618751892

_space_group_name_H-M_alt    "P 1"
_space_group_IT_number       1

loop_
  _space_group_symop_operation_xyz
  'x, y, z'

loop_
  _atom_site_type_symbol
  _atom_site_label
  _atom_site_symmetry_multiplicity
  _atom_site_fract_x
  _atom_site_fract_y
  _atom_site_fract_z
  _atom_site_occupancy
  Zr  Zr1       1.0  0.26936461164913084  0.3912442455048577  0.557115722354844  1.0000
  Zr  Zr2       1.0  0.45700001682973107  0.6490143868146773  0.5124622961194377  1.0000
  Zr  Zr3       1.0  0.5162770137338982  0.41634090464630447  0.4430449706095345  1.0000
  Zr  Zr4       1.0  0.20956029834330545  0.6254773487993858  0.6274621753272741  1.0000
  Zr  Zr5       1.0  0.5198228579689188  0.41202269498803185  0.6008694721512953  1.0000
  Zr  Zr6       1.0  0.20531930994206968  0.6300042148647123  0.4721040986586616  1.0000
  Zr  Zr7       1.0  0.656693382822148  0.16280041648830954  0.011556594208684637  1.0000
  Zr  Zr8       1.0  0.05744822312703226  0.9049778397226191  0.05616706572295273  1.0000
  Zr  Zr9       1.0  0.8146349375004575  0.1375913380964562  0.1257014450832799  1.0000
  Zr  Zr10      1.0  0.9013854319463802  0.9286157929281912  0.9411533123378748  1.0000
  Zr  Zr11      1.0  0.9716564072136076  0.142030100475111  0.9678932314604226  1.0000
  Zr  Zr12      1.0  0.746487479938473  0.9239652081737688  0.09650420768736728  1.0000
  H   H1        1.0  0.4552372574812509  0.21048160391929113  0.2450384841067859  1.0000
  H   H2        1.0  0.3334055370064349  0.16947022383752852  0.17376706177370957  1.0000
  H   H3        1.0  0.28490401047844943  0.41823570928179515  0.6743369312520785  1.0000
  H   H4        1.0  0.6870364330466006  0.4573833923422653  0.500613289797208  1.0000
  H   H5        1.0  0.20053934857998001  0.789562056800932  0.5425286687251258  1.0000
  H   H6        1.0  0.28072552512171  0.4285111872248208  0.4290302129671348  1.0000
  H   H7        1.0  0.6973659580550445  0.20845025630242728  0.5700387713835584  1.0000
  H   H8        1.0  0.5399557897994995  0.44407573815583856  0.3250509551654446  1.0000
  H   H9        1.0  0.2818732819158924  0.6644042356994148  0.34904185489524775  1.0000
  H   H10       1.0  0.5209151499212298  0.4602280075046464  0.7093149618681381  1.0000
  H   H11       1.0  0.1697404564334164  0.5931411582606428  0.748331330802543  1.0000
  H   H12       1.0  0.9627313940992792  0.737830007128629  0.6486719777243267  1.0000
  H   H13       1.0  0.9999449152859725  0.8334358923864825  0.4979491406663713  1.0000
  H   H14       1.0  0.7490661834102214  0.386096808705048  0.6098833150013193  1.0000
  H   H15       1.0  0.6918598841287817  0.6648653491365052  0.5005059256787235  1.0000
  H   H16       1.0  0.100544843257218  0.36531070184696557  0.499924933704648  1.0000
  H   H17       1.0  0.08076315805741532  0.5758689969084543  0.4120630394213053  1.0000
  H   H18       1.0  0.36855566602538653  0.509857155603214  0.7131130100520195  1.0000
  H   H19       1.0  0.589967726129281  0.7300229494525537  0.5557007067147667  1.0000
  H   H20       1.0  0.7086764857484339  0.23279961149196993  0.4256469167981722  1.0000
  H   H21       1.0  0.706147730193486  0.2749199881504509  0.5065002568930908  1.0000
  H   H22       1.0  0.015094637097483684  0.7638075867083314  0.5619842887239699  1.0000
  H   H23       1.0  0.35676370694456944  0.5363508369901027  0.3595174075964708  1.0000
  H   H24       1.0  0.07272591331420848  0.4921165449695978  0.491829078437796  1.0000
  H   H25       1.0  0.24168702971258685  0.8582132088453632  0.8271421899517153  1.0000
  H   H26       1.0  0.3287076466670272  0.9242323054270327  0.9049607252788834  1.0000
  H   H27       1.0  0.36605425882794435  0.6958649073345881  0.7415618236242453  1.0000
  H   H28       1.0  0.5967737330019889  0.62928233933993  0.6636753759947569  1.0000
  H   H29       1.0  0.8162456692564746  0.13591965137086956  0.8943749845682235  1.0000
  H   H30       1.0  0.08402436145775743  0.09662188639096309  0.06806933579598959  1.0000
  H   H31       1.0  0.9715490473208988  0.7644628868119342  0.02605144825350438  1.0000
  H   H32       1.0  0.577330373198663  0.12537982387134147  0.13965791358088353  1.0000
  H   H33       1.0  0.9149332691197714  0.34560256236705567  0.9987275249646786  1.0000
  H   H34       1.0  0.7485568882817475  0.10939753514747248  0.24369711923506548  1.0000
  H   H35       1.0  0.734430190611448  0.8892399213452722  0.21957591271357305  1.0000
  H   H36       1.0  0.12952408658357234  0.09362566207786929  0.8595541360883278  1.0000
  H   H37       1.0  0.9497743072901697  0.9612047681943493  0.820324592694881  1.0000
  H   H38       1.0  0.7881337008086219  0.816270598628158  0.9199040235155567  1.0000
  H   H39       1.0  0.7703712300649599  0.7204755645479751  0.07059770334337398  1.0000
  H   H40       1.0  0.1842525645381841  0.1675465469875661  0.9590410750934526  1.0000
  H   H41       1.0  0.2962214124733437  0.889330850710415  0.06806585558365442  1.0000
  H   H42       1.0  0.4048337437276572  0.18876688343785022  0.0687710636979446  1.0000
  H   H43       1.0  0.5078288959423674  0.9780190526772117  0.15652407324813572  1.0000
  H   H44       1.0  0.030356067571446495  0.04436278935894221  0.8555983884910675  1.0000
  H   H45       1.0  0.3144463541506329  0.8242156142452614  0.012889444577780304  1.0000
  H   H46       1.0  0.8058434227575332  0.32122861467041725  0.14306299755924815  1.0000
  H   H47       1.0  0.9265221476508785  0.2791299373250027  0.0622608439304813  1.0000
  H   H48       1.0  0.7798700402940568  0.7901834179289864  0.006601972674232655  1.0000
  H   H49       1.0  0.6918043548374297  0.017297972056411495  0.20919685402496682  1.0000
  H   H50       1.0  0.49570106839118466  0.061911682372027606  0.07682831913743372  1.0000
  H   H51       1.0  0.3490846260802059  0.3429887239737326  0.3236460662084255  1.0000
  H   H52       1.0  0.11492727419393134  0.3842620811991964  0.3948527876755037  1.0000
  C   C1        1.0  0.38204555589884853  0.11202536930176171  0.311602255403912  1.0000
  C   C2        1.0  0.4023817709316262  0.1617817127190975  0.25609449617850544  1.0000
  C   C3        1.0  0.34144275801288876  0.13900543805335266  0.21881420322117864  1.0000
  C   C4        1.0  0.2858041257707242  0.0726954464951604  0.2505563049021334  1.0000
  C   C5        1.0  0.44039139524396387  0.21425783358982642  0.6409287530523146  1.0000
  C   C6        1.0  0.03564958936619426  0.48648886552761184  0.668916134582915  1.0000
  C   C7        1.0  0.4166507063093619  0.22675084629656078  0.4507141187955528  1.0000
  C   C8        1.0  0.6783238682306986  0.5616296576604753  0.3912885618627941  1.0000
  C   C9        1.0  0.29700387523272537  0.8207786759704022  0.42250137147484423  1.0000
  C   C10       1.0  0.3207461501562179  0.8068096068890114  0.6233632881580817  1.0000
  C   C11       1.0  0.3381968392306262  0.9397889813804314  0.7593331747645637  1.0000
  C   C12       1.0  0.2984615204839188  0.9037186735038888  0.816646109799706  1.0000
  C   C13       1.0  0.34403349888118834  0.9369921657230692  0.8568472088160705  1.0000
  C   C14       1.0  0.4121903852555705  0.9937054487744421  0.8245234057207257  1.0000
  C   C15       1.0  0.4764158979318297  0.6142682738698468  0.809347251602091  1.0000
  C   C16       1.0  0.45786431054670373  0.6502716079816081  0.7520204186475897  1.0000
  C   C17       1.0  0.5768201301392468  0.6167046486736252  0.7118009964834188  1.0000
  C   C18       1.0  0.6693635747033755  0.559944632438075  0.7441513986304147  1.0000
  C   C19       1.0  0.7344801520549497  0.33992553768340616  0.9279227209220764  1.0000
  C   C20       1.0  0.6298519745328691  0.0674069713463012  0.8997675749917563  1.0000
  C   C21       1.0  0.5329427146247169  0.32717173340530087  0.11804429515296283  1.0000
  C   C22       1.0  0.07045518207047528  0.9920998742701812  0.17727012799266362  1.0000
  C   C23       1.0  0.979513629164309  0.7331336939673392  0.14605362133146124  1.0000
  C   C24       1.0  0.19000906452629335  0.7474443449329728  0.9451700298737225  1.0000
  C   C25       1.0  0.24411656285221284  0.44140274623931935  0.2570269042446541  1.0000
  C   C26       1.0  0.2586227405144258  0.3916674916325461  0.3125398205319812  1.0000
  C   C27       1.0  0.13763409292419482  0.4145584995211066  0.3497747345126855  1.0000
  C   C28       1.0  0.047510440932697406  0.4808560310506067  0.3179719418608045  1.0000
  C   C29       1.0  0.694651450351266  0.42977045349763904  0.887860100113855  1.0000
  C   C30       1.0  0.6586332295781433  0.4915650740869425  0.8474736168342646  1.0000
  C   C31       1.0  0.021253619338850182  0.6412830349676569  0.18448204627765824  1.0000
  C   C32       1.0  0.06206958075289042  0.5716608378748589  0.22072418986962827  1.0000
  C   C33       1.0  0.3345781051260984  0.4244391268553472  0.20339358243619907  1.0000
  C   C34       1.0  0.4219837759212553  0.3933510796901415  0.15962164890096636  1.0000
  C   C35       1.0  0.301874289146987  0.677940530633677  0.9064761442096911  1.0000
  C   C36       1.0  0.3891973596663974  0.6401528100623252  0.863615543030761  1.0000
  C   C37       1.0  0.150229379807989  0.003104847028446  0.21112286108959924  1.0000
  C   C38       1.0  0.21445889608055776  0.030697246648749395  0.2322047642835301  1.0000
  C   C39       1.0  0.28554043724478373  0.9125766926347437  0.3840738147631059  1.0000
  C   C40       1.0  0.29352524643335437  0.982076506154101  0.34787799058273094  1.0000
  C   C41       1.0  0.8029478920276034  0.5505297070348618  0.3573947025530444  1.0000
  C   C42       1.0  0.9158341490355825  0.5228860008054852  0.3362956964330693  1.0000
  C   C43       1.0  0.8004772894666417  0.5178614301079563  0.7236226723922741  1.0000
  C   C44       1.0  0.9122791426727871  0.4925351622184309  0.7007823818876346  1.0000
  C   C45       1.0  0.43580481171344587  0.0624883685514845  0.7213188269698281  1.0000
  C   C46       1.0  0.4502216563207783  0.1245241798221457  0.6810612195852956  1.0000
  C   C47       1.0  0.4808706795990147  0.035672655847058386  0.8450541764977048  1.0000
  C   C48       1.0  0.5443277859970621  0.06110076486206849  0.8679898827912711  1.0000
  C   C49       1.0  0.3241766330500442  0.8764623315644041  0.662083848295332  1.0000
  C   C50       1.0  0.33089450999934655  0.914033575104547  0.7050371755181147  1.0000
  C   C51       1.0  0.40175901699430483  0.128991208426612  0.36531676031848553  1.0000
  C   C52       1.0  0.4139691740677591  0.16032630830114405  0.40910933357917406  1.0000
  N   N1        1.0  0.3115274415218749  0.055024478035640804  0.3077852505521932  1.0000
  N   N2        1.0  0.40756150289941917  0.997138669755522  0.7642039014832707  1.0000
  N   N3        1.0  0.6079481482156978  0.5567060939548156  0.8044915407473355  1.0000
  N   N4        1.0  0.11281194327942501  0.49848935978574366  0.2607685308788774  1.0000
  O   O1        1.0  0.091299907938108  0.4248333055955342  0.5207426882168846  1.0000
  O   O2        1.0  0.3535861507780496  0.24529981609274631  0.6118821291223  1.0000
  O   O3        1.0  0.326827831290494  0.2547219189474248  0.4976083196306505  1.0000
  O   O4        1.0  0.05831213867159581  0.5642815212361968  0.6763946781622182  1.0000
  O   O5        1.0  0.5053451405268066  0.2578099040382326  0.4338125871269511  1.0000
  O   O6        1.0  0.10741208801701418  0.4079177288760151  0.6357658836565819  1.0000
  O   O7        1.0  0.516771282770563  0.2564917327783077  0.6392030428295217  1.0000
  O   O8        1.0  0.44887617485943576  0.38156416353005074  0.5325057368172567  1.0000
  O   O9        1.0  0.3102671926986886  0.4450120284281383  0.6344984950793773  1.0000
  O   O10       1.0  0.3069031861378094  0.45162487388305544  0.458835276930877  1.0000
  O   O11       1.0  0.19058227404827477  0.554948740201965  0.5547770814674777  1.0000
  O   O12       1.0  0.032196684084290335  0.7507526820121485  0.6217924633557247  1.0000
  O   O13       1.0  0.7030649901619553  0.27357585238563337  0.5520256789973814  1.0000
  O   O14       1.0  0.40901094478238775  0.575436169897081  0.5914918382642329  1.0000
  O   O15       1.0  0.5967290873915374  0.476413344925916  0.5093347992593564  1.0000
  O   O16       1.0  0.40235605841584043  0.5786398682824724  0.4614313596260616  1.0000
  O   O17       1.0  0.24519492989145406  0.7137464300493763  0.5381193253070081  1.0000
  O   O18       1.0  0.6980949771165967  0.2974789957955082  0.4417598464980515  1.0000
  O   O19       1.0  0.6419662578152271  0.4941419571080274  0.38169123180827574  1.0000
  O   O20       1.0  0.6216543713518233  0.6333742730188591  0.43026496330734443  1.0000
  O   O21       1.0  0.0665660153274247  0.5896836309859594  0.4540291471293188  1.0000
  O   O22       1.0  0.3823146333836361  0.7908520779519962  0.45218689264517326  1.0000
  O   O23       1.0  0.472416468909053  0.4384795811885169  0.3572765217212961  1.0000
  O   O24       1.0  0.2688511188672961  0.6030235592621764  0.3689653533418707  1.0000
  O   O25       1.0  0.017757346862936233  0.762744039270956  0.5152757643044695  1.0000
  O   O26       1.0  0.22206505075406116  0.7773718248660016  0.4227823753424503  1.0000
  O   O27       1.0  0.6316095533621181  0.6607312212685272  0.5372822635042526  1.0000
  O   O28       1.0  0.23393349559059837  0.6014836169135548  0.7152556544139586  1.0000
  O   O29       1.0  0.4016017783993818  0.7846910400943159  0.5726365400547522  1.0000
  O   O30       1.0  0.23903078879719433  0.7694180660714309  0.6445100135318782  1.0000
  O   O31       1.0  0.4533546787502516  0.4455946769966771  0.7019678808797709  1.0000
  O   O32       1.0  0.6603077656433242  0.42292174497417523  0.6283813772352932  1.0000
  O   O33       1.0  0.4758898889489842  0.1292531220403177  0.04794251742723082  1.0000
  O   O34       1.0  0.6497090275977582  0.30880699023994396  0.9568943632021744  1.0000
  O   O35       1.0  0.5182639447811114  0.2993554623488919  0.0710084101105508  1.0000
  O   O36       1.0  0.7378824067147536  0.9897428961382319  0.8922466509097479  1.0000
  O   O37       1.0  0.6356263862564973  0.29611436627284593  0.135111272450672  1.0000
  O   O38       1.0  0.5899487128952998  0.14603257567436148  0.9328761201067267  1.0000
  O   O39       1.0  0.8513638895525588  0.2976299144000977  0.9296313933379566  1.0000
  O   O40       1.0  0.8019066423528117  0.1724660568035929  0.036231858284125514  1.0000
  O   O41       1.0  0.828659096914656  0.10912121503910302  0.934202047744087  1.0000
  O   O42       1.0  0.6563839220306491  0.10236828060154578  0.10984676653020396  1.0000
  O   O43       1.0  0.7392633090698624  0.9990860362157861  0.013848064577558734  1.0000
  O   O44       1.0  0.8437108446736727  0.8032896287876597  0.9467743595150041  1.0000
  O   O45       1.0  0.9677068308039196  0.28048325643447214  0.016767555870146087  1.0000
  O   O46       1.0  0.014791309639271413  0.9786484028147908  0.9771665421631469  1.0000
  O   O47       1.0  0.021431636729644807  0.07758326242868209  0.05938285822141861  1.0000
  O   O48       1.0  0.8814597234474918  0.9753140665482859  0.10720716079899971  1.0000
  O   O49       1.0  0.936043874063124  0.8402781453818308  0.03045231933685951  1.0000
  O   O50       1.0  0.8761218546472945  0.25654402076798277  0.12701704667044578  1.0000
  O   O51       1.0  0.9570755824270947  0.0596827752688114  0.18689421801505557  1.0000
  O   O52       1.0  0.12431754963574108  0.9203400116671074  0.13831242930303486  1.0000
  O   O53       1.0  0.5493699734882045  0.9642900510272838  0.11455173131408002  1.0000
  O   O54       1.0  0.06461722643229016  0.7629673695545164  0.11637263673612352  1.0000
  O   O55       1.0  0.707532140158719  0.11505795174300457  0.21149296441070223  1.0000
  O   O56       1.0  0.6799447657333463  0.9506848102249066  0.19968735509151972  1.0000
  O   O57       1.0  0.7348258766969449  0.7911908845484277  0.05329721080082093  1.0000
  O   O58       1.0  0.8614333897303015  0.7766606617024862  0.145798304667295  1.0000
  O   O59       1.0  0.2684585733282746  0.8935007589184567  0.031321252006051695  1.0000
  O   O60       1.0  0.989347917325631  0.9528065377802548  0.8533802278217592  1.0000
  O   O61       1.0  0.19794779474436555  0.7694316876621912  0.995965765973672  1.0000
  O   O62       1.0  0.09204077957070204  0.784798811411257  0.9240152621827352  1.0000
  O   O63       1.0  0.039939884611257505  0.10850705274302187  0.8667908304451403  1.0000
  O   O64       1.0  0.1506601441533135  0.130838413904776  0.9405393080262386  1.0000
