data_image0
_chemical_formula_structural       Cu3H18C12N20O6
_chemical_formula_sum              "Cu3 H18 C12 N20 O6"
_cell_length_a       7.058299055729507
_cell_length_b       9.09382913147738
_cell_length_c       10.374134360011288
_cell_angle_alpha    95.69042982098811
_cell_angle_beta     110.77397792808816
_cell_angle_gamma    105.10008973104576

_space_group_name_H-M_alt    "P 1"
_space_group_IT_number       1

loop_
  _space_group_symop_operation_xyz
  'x, y, z'

loop_
  _atom_site_type_symbol
  _atom_site_label
  _atom_site_symmetry_multiplicity
  _atom_site_fract_x
  _atom_site_fract_y
  _atom_site_fract_z
  _atom_site_occupancy
  Cu  Cu1       1.0  0.999874664677378  3.124031238849616e-05  0.9999945005301993  1.0000
  Cu  Cu2       1.0  0.8746930176011106  0.2600420897446796  0.4761182734747321  1.0000
  Cu  Cu3       1.0  0.12553022610617148  0.7399039970167466  0.5238687623826763  1.0000
  H   H1        1.0  0.6822768056099946  0.09194173181488452  0.9799081444272203  1.0000
  H   H2        1.0  0.317237018223217  0.9079759230800093  0.01993932566672641  1.0000
  H   H3        1.0  0.6094263227151657  0.9004787359582805  0.9756563621589649  1.0000
  H   H4        1.0  0.3902472642905863  0.09950567973182702  0.024221120155502276  1.0000
  H   H5        1.0  0.6259064935728487  0.9627559296363941  0.8361150376408515  1.0000
  H   H6        1.0  0.37388232020614254  0.03717060964032021  0.16385981365002064  1.0000
  H   H7        1.0  0.5992834253944749  0.3210276744416589  0.5598754406601214  1.0000
  H   H8        1.0  0.40091085873445553  0.6791170940874026  0.4399892151130729  1.0000
  H   H9        1.0  0.48524449128530717  0.1538121360275468  0.4383937478067636  1.0000
  H   H10       1.0  0.5149542844362358  0.8462079435140382  0.5616253597027877  1.0000
  H   H11       1.0  0.5255058980217838  0.3253875702060114  0.3929069435558076  1.0000
  H   H12       1.0  0.47465899627393787  0.6745430467556447  0.6069328231031506  1.0000
  H   H13       1.0  0.19076404810514447  0.3415148648925026  0.4070261932391759  1.0000
  H   H14       1.0  0.8095987693797254  0.6584847539302957  0.5931898514196374  1.0000
  H   H15       1.0  0.280529031082466  0.3095524101529464  0.5669015611398506  1.0000
  H   H16       1.0  0.7196922111636467  0.6902904553376885  0.4332613520331207  1.0000
  H   H17       1.0  0.1497806565608144  0.15952646808725754  0.427181819603689  1.0000
  H   H18       1.0  0.8504385271705672  0.8404025161226515  0.5729033216807338  1.0000
  C   C1        1.0  0.9028534074063046  0.576865642544206  0.2332970972326933  1.0000
  C   C2        1.0  0.09712052654249702  0.42314157774500677  0.766708681148735  1.0000
  C   C3        1.0  0.8572194310106199  0.685474811886948  0.024190850616449235  1.0000
  C   C4        1.0  0.1425527047581525  0.31461010135519984  0.9758040199901217  1.0000
  C   C5        1.0  0.7034179157501653  0.4075764370699844  0.9997570857655729  1.0000
  C   C6        1.0  0.29647241161558197  0.5924809528117122  0.00025518459560907485  1.0000
  C   C7        1.0  0.05785493445863916  0.8471395590583627  0.2529870506248884  1.0000
  C   C8        1.0  0.9420456734592548  0.15287384760137002  0.7470299175952206  1.0000
  C   C9        1.0  0.666096336023848  0.5200558559708099  0.8044454514308937  1.0000
  C   C10       1.0  0.33379162721810474  0.4799530723921068  0.19553363739444757  1.0000
  C   C11       1.0  0.7626641994356546  0.31152314998101366  0.20504296527546018  1.0000
  C   C12       1.0  0.2374516051328044  0.6884458849658799  0.7949730813128324  1.0000
  N   N1        1.0  0.8235840346417688  0.5573568295973175  0.08682907542802806  1.0000
  N   N2        1.0  0.1763278045012696  0.44271128343841326  0.9131945854259554  1.0000
  N   N3        1.0  0.013920767355834638  0.720043027493645  0.3127968145218674  1.0000
  N   N4        1.0  0.9860455028617352  0.27997999680469843  0.6871920749229189  1.0000
  N   N5        1.0  0.9685617646596325  0.8272603028168605  0.10835681723345653  1.0000
  N   N6        1.0  0.03119714871788661  0.17279462249153  0.8916877975022288  1.0000
  N   N7        1.0  0.7833712713233681  0.6680981886342251  0.8859927604758367  1.0000
  N   N8        1.0  0.21644862441704046  0.3319891495255831  0.11400808592806298  1.0000
  N   N9        1.0  0.625369511051538  0.3902311919792965  0.8609648098786237  1.0000
  N   N10       1.0  0.3744602247865316  0.6098110238455803  0.1390415137325505  1.0000
  N   N11       1.0  0.6732479789124212  0.2864798144809911  0.06159453010205594  1.0000
  N   N12       1.0  0.32668684551446603  0.713541379218704  0.9384113465847436  1.0000
  N   N13       1.0  0.8718405560546216  0.4555448699675965  0.29250586861962796  1.0000
  N   N14       1.0  0.12828593989755177  0.54447674965526  0.707524304769521  1.0000
  N   N15       1.0  0.6973658670041871  0.986843393788682  0.9438172336017061  1.0000
  N   N16       1.0  0.30242100384497655  0.013145257423424499  0.05613687109030248  1.0000
  N   N17       1.0  0.5912231964897074  0.2643827050851898  0.46596383416716947  1.0000
  N   N18       1.0  0.408957707626456  0.7356321236175488  0.5339447918971556  1.0000
  N   N19       1.0  0.1547936686330615  0.2681974925897919  0.4704307946486992  1.0000
  N   N20       1.0  0.8454846385163605  0.7317305587386898  0.52970889130534  1.0000
  O   O1        1.0  0.1771520042883098  0.9773521156191124  0.3299445359908617  1.0000
  O   O2        1.0  0.8228584092263276  0.022653677394508503  0.6700528406742093  1.0000
  O   O3        1.0  0.5935228967975944  0.503632708554484  0.6718272428946575  1.0000
  O   O4        1.0  0.40660710045996495  0.4963518218481865  0.3281613140439461  1.0000
  O   O5        1.0  0.7422676246396803  0.19295251134211364  0.26184245255208777  1.0000
  O   O6        1.0  0.2580071844896211  0.8069998684224944  0.738165206037209  1.0000
