data_image0
_chemical_formula_structural       Mn2H40C44Se4N12O4
_chemical_formula_sum              "Mn2 H40 C44 Se4 N12 O4"
_cell_length_a       10.524171300994109
_cell_length_b       10.723404838397522
_cell_length_c       13.5594
_cell_angle_alpha    99.18310361278384
_cell_angle_beta     108.32299919845356
_cell_angle_gamma    113.61704785931197

_space_group_name_H-M_alt    "P 1"
_space_group_IT_number       1

loop_
  _space_group_symop_operation_xyz
  'x, y, z'

loop_
  _atom_site_type_symbol
  _atom_site_label
  _atom_site_symmetry_multiplicity
  _atom_site_fract_x
  _atom_site_fract_y
  _atom_site_fract_z
  _atom_site_occupancy
  Mn  Mn1       1.0  0.6442221190139462  0.3958553710876772  0.24964888585613204  1.0000
  Mn  Mn2       1.0  0.35578958744088135  0.6041459178184354  0.750357083200008  1.0000
  H   H1        1.0  0.5317638342139404  0.06379234039102501  0.20352764653842573  1.0000
  H   H2        1.0  0.35508427751348387  0.320945380400147  0.2962876930192806  1.0000
  H   H3        1.0  0.4682301120978207  0.9362035610125262  0.7964710965561324  1.0000
  H   H4        1.0  0.644903565683016  0.6790483660023767  0.7037041264471072  1.0000
  H   H5        1.0  0.32149176096184107  0.8441742421692524  0.19894604389806153  1.0000
  H   H6        1.0  0.1397644498557398  0.1155921000687101  0.3008305708410147  1.0000
  H   H7        1.0  0.6785029913651215  0.15581734923224394  0.8010523518950379  1.0000
  H   H8        1.0  0.860228849789948  0.8844005688332928  0.6991705564706551  1.0000
  H   H9        1.0  0.19559064676593604  0.7003042186287801  0.2641666066695266  1.0000
  H   H10       1.0  0.9298952931868028  0.92504281069548  0.2351401385275621  1.0000
  H   H11       1.0  0.8044292002657513  0.2997110777840035  0.7358350041555681  1.0000
  H   H12       1.0  0.0701221002216315  0.0749735632178172  0.764855847130896  1.0000
  H   H13       1.0  0.9773720569550831  0.49484857574858415  0.26694577861172775  1.0000
  H   H14       1.0  0.7205428719587414  0.7055538011297102  0.23237458997340354  1.0000
  H   H15       1.0  0.02264213870064675  0.5051634881626654  0.7330518328008395  1.0000
  H   H16       1.0  0.27947507065237426  0.2944636502841007  0.7676260906588722  1.0000
  H   H17       1.0  0.789895853999667  0.5867776870441191  0.4621361143351522  1.0000
  H   H18       1.0  0.6254598304518098  0.32946840946056  0.037695061490048025  1.0000
  H   H19       1.0  0.2100998373835239  0.4132236018619935  0.5378711094814577  1.0000
  H   H20       1.0  0.37452617020987583  0.6705177944383678  0.9622997814197732  1.0000
  H   H21       1.0  0.6358122597242682  0.5915229993048072  0.4113759094570923  1.0000
  H   H22       1.0  0.6785902443470986  0.2264766003946974  0.08818167304057305  1.0000
  H   H23       1.0  0.36419018144025017  0.4084836771038739  0.5886247913341975  1.0000
  H   H24       1.0  0.3214047029066406  0.7735193010088466  0.9118173142858481  1.0000
  H   H25       1.0  0.6255115530826882  0.9448332626237601  0.047960644886543856  1.0000
  H   H26       1.0  0.3952279402571008  0.5846420810267006  0.4547551204957685  1.0000
  H   H27       1.0  0.3744792929397462  0.0551604837787565  0.9520370697457565  1.0000
  H   H28       1.0  0.6047622946769095  0.4153602853799256  0.5452317330391736  1.0000
  H   H29       1.0  0.7649812045597599  0.8298014628219834  0.9962325975699643  1.0000
  H   H30       1.0  0.3309834497822662  0.7740666712696225  0.5055816568629652  1.0000
  H   H31       1.0  0.23500179327599108  0.1701847410769446  0.003755612678183693  1.0000
  H   H32       1.0  0.6690063334124473  0.2259367726375245  0.49440964741393867  1.0000
  H   H33       1.0  0.11383035623607897  0.2559914944557562  0.04409198873769782  1.0000
  H   H34       1.0  0.714849487618892  0.0658805363858477  0.45475162114029644  1.0000
  H   H35       1.0  0.8861642011641064  0.7439957869436853  0.9559087655051073  1.0000
  H   H36       1.0  0.2851542468777664  0.9341326050259084  0.545259061131965  1.0000
  H   H37       1.0  0.959873131774941  0.3520668277265742  0.09419514339692366  1.0000
  H   H38       1.0  0.7605506943501082  0.8639431440872658  0.4049822395911705  1.0000
  H   H39       1.0  0.04013363185574544  0.6479247636749221  0.9058135581361527  1.0000
  H   H40       1.0  0.23945623789925455  0.1360743073265454  0.5950275544227351  1.0000
  C   C1        1.0  0.4415224877320938  0.0698360407702765  0.22384694464135893  1.0000
  C   C2        1.0  0.3433784384078677  0.21314576404381572  0.2758264793847971  1.0000
  C   C3        1.0  0.5584734604636238  0.9301598606332747  0.776149336933898  1.0000
  C   C4        1.0  0.65661350601993  0.7868501373597355  0.7241673502714718  1.0000
  C   C5        1.0  0.32408549317962343  0.9476132139481451  0.22265222547141414  1.0000
  C   C6        1.0  0.22215358770557708  0.0969373336814812  0.2770464341495753  1.0000
  C   C7        1.0  0.6759129086393328  0.0523816099548853  0.7773445188001703  1.0000
  C   C8        1.0  0.7778414570115472  0.9030607227230973  0.7229521114477606  1.0000
  C   C9        1.0  0.21028568629657932  0.9595928646553206  0.2498246897684737  1.0000
  C   C10       1.0  0.7897164624777773  0.0404073467502855  0.7501729112355378  1.0000
  C   C11       1.0  0.08318601096398477  0.8330091818501587  0.24980619308602314  1.0000
  C   C12       1.0  0.9168239859970554  0.1669985720590361  0.7501942748403039  1.0000
  C   C13       1.0  0.09356696092409318  0.7082346224068702  0.25792548843937624  1.0000
  C   C14       1.0  0.9464750986400573  0.8322269164774809  0.2415942771151053  1.0000
  C   C15       1.0  0.9064475890075413  0.2917742090028384  0.7420747514221588  1.0000
  C   C16       1.0  0.05353654592903467  0.1677840699332549  0.7584025758344667  1.0000
  C   C17       1.0  0.9714362962016947  0.5920692920650695  0.2584476139837904  1.0000
  C   C18       1.0  0.8291522576333462  0.7103713059247954  0.24095246696759895  1.0000
  C   C19       1.0  0.028580450540665846  0.4079438493466938  0.7415522308832863  1.0000
  C   C20       1.0  0.17086358563042833  0.28964399048798845  0.7590481669300432  1.0000
  C   C21       1.0  0.8732767767840812  0.2685670029467957  0.3640084684225329  1.0000
  C   C22       1.0  0.39716058361247514  0.5057054709208657  0.135034933935799  1.0000
  C   C23       1.0  0.12675012945764047  0.731405193445454  0.6360078625500378  1.0000
  C   C24       1.0  0.6028203860312189  0.494302282988329  0.8649658262240365  1.0000
  C   C25       1.0  0.736379901867771  0.0113956454289479  0.048877553263167874  1.0000
  C   C26       1.0  0.46154057283552413  0.6921518497449456  0.45290942471551443  1.0000
  C   C27       1.0  0.26361439871989484  0.9885970234730621  0.9511193933058026  1.0000
  C   C28       1.0  0.5384528598511975  0.3078548266637355  0.54708465301443  1.0000
  C   C29       1.0  0.8159749596448547  0.9465852784584357  0.019087722108920974  1.0000
  C   C30       1.0  0.4263019746176441  0.8005322388779634  0.4823723086445925  1.0000
  C   C31       1.0  0.18401459304543977  0.0534020029410058  0.9809044360169638  1.0000
  C   C32       1.0  0.5736894561851144  0.19947443753071784  0.5176227556131394  1.0000
  C   C33       1.0  0.9559104242606508  0.0318325976652218  0.01627626568779303  1.0000
  C   C34       1.0  0.5156288206336795  0.9401784604061874  0.4840304327115846  1.0000
  C   C35       1.0  0.04408122777699209  0.9681568387352399  0.9837211016430417  1.0000
  C   C36       1.0  0.48436306190838235  0.05982713850198  0.5159675557617902  1.0000
  C   C37       1.0  0.0076817041941409925  0.1808929411783922  0.044763487590515204  1.0000
  C   C38       1.0  0.6377348722319524  0.9615054280664738  0.45488963892412937  1.0000
  C   C39       1.0  0.992313402408726  0.8190954177215631  0.9552360616600384  1.0000
  C   C40       1.0  0.3622637600914302  0.0385055583442622  0.545114363951825  1.0000
  C   C41       1.0  0.9206661812618577  0.23633896259318024  0.07333818915213905  1.0000
  C   C42       1.0  0.6646053441034424  0.8470996560629374  0.4265567714634956  1.0000
  C   C43       1.0  0.07933602939823456  0.7636515513078025  0.9266670529669272  1.0000
  C   C44       1.0  0.3353953875672886  0.1529134853488259  0.5734472781470928  1.0000
  Se  Se1       1.0  0.984546296165952  0.1851372157003865  0.4169857431220337  1.0000
  Se  Se2       1.0  0.2635576807691891  0.567338500283185  0.08104785585329921  1.0000
  Se  Se3       1.0  0.01547050319260984  0.8148328256908428  0.5830352247228134  1.0000
  Se  Se4       1.0  0.736408141703812  0.4326552461193387  0.9189511279399624  1.0000
  N   N1        1.0  0.4520254207983783  0.2010228057683676  0.24979466457764943  1.0000
  N   N2        1.0  0.5479695264553612  0.7989730956351766  0.7501998977742232  1.0000
  N   N3        1.0  0.8404664622030963  0.5917244919008056  0.24970633342807255  1.0000
  N   N4        1.0  0.15954418142401042  0.40828649450993043  0.7502939627684314  1.0000
  N   N5        1.0  0.7989697953527397  0.3232975640207343  0.3293688001813919  1.0000
  N   N6        1.0  0.4840654655939005  0.46323686568859307  0.17045965936188176  1.0000
  N   N7        1.0  0.20105549885857946  0.676683252375625  0.6706415879322734  1.0000
  N   N8        1.0  0.5159337159321638  0.5367751982226565  0.8295409260345395  1.0000
  N   N9        1.0  0.7868295864027174  0.1539726683534255  0.07562378733931041  1.0000
  N   N10       1.0  0.5786569517167309  0.7139108951110773  0.4252082963101815  1.0000
  N   N11       1.0  0.2131718182421806  0.8460221555496048  0.9243795895939398  1.0000
  N   N12       1.0  0.4213405822012887  0.28609793629863134  0.5747907415926861  1.0000
  O   O1        1.0  0.6811167407189342  0.52290022411254  0.4121505240464103  1.0000
  O   O2        1.0  0.6093538512780368  0.2720516396069002  0.08705734138486321  1.0000
  O   O3        1.0  0.31887814464906217  0.47710537479562737  0.587854834584391  1.0000
  O   O4        1.0  0.39063870423819225  0.7279356417925416  0.9129392369154135  1.0000
