data_image0
_chemical_formula_structural       Ni4H20C20N8Cl4O12
_chemical_formula_sum              "Ni4 H20 C20 N8 Cl4 O12"
_cell_length_a       6.719859257016095
_cell_length_b       10.417551378225872
_cell_length_c       11.441628248364246
_cell_angle_alpha    89.99943759191515
_cell_angle_beta     87.78140314807271
_cell_angle_gamma    89.99948540630929

_space_group_name_H-M_alt    "P 1"
_space_group_IT_number       1

loop_
  _space_group_symop_operation_xyz
  'x, y, z'

loop_
  _atom_site_type_symbol
  _atom_site_label
  _atom_site_symmetry_multiplicity
  _atom_site_fract_x
  _atom_site_fract_y
  _atom_site_fract_z
  _atom_site_occupancy
  Ni  Ni1       1.0  0.2748491591595156  0.7792753769850189  0.7023752759280697  1.0000
  Ni  Ni2       1.0  0.7788055638068768  0.2257747813585809  0.3015130018381171  1.0000
  Ni  Ni3       1.0  0.2788043944155732  0.27422330665502404  0.8015141856348154  1.0000
  Ni  Ni4       1.0  0.7748504273867525  0.7207275494498117  0.2023732594356034  1.0000
  H   H1        1.0  0.005441123086292501  0.5572362442550014  0.0453180700291114  1.0000
  H   H2        1.0  0.5096561188042514  0.44794305460485623  0.9570629861669746  1.0000
  H   H3        1.0  0.009654419792163103  0.05204899521469738  0.4570713922131945  1.0000
  H   H4        1.0  0.5054616879178583  0.9427689435062304  0.5453278358748079  1.0000
  H   H5        1.0  0.8573251946247639  0.946045032912714  0.0515162832019627  1.0000
  H   H6        1.0  0.3922540628816194  0.05495374659414408  0.9507065170585424  1.0000
  H   H7        1.0  0.8922585221726181  0.4450391756903968  0.4506885810490644  1.0000
  H   H8        1.0  0.3573133583292503  0.5539677730164883  0.551532568835576  1.0000
  H   H9        1.0  0.03472596237826761  0.9776192659958906  0.8591764284921624  1.0000
  H   H10       1.0  0.5407447547936002  0.029396179226530702  0.145648780526912  1.0000
  H   H11       1.0  0.04074885174676979  0.4706049466048297  0.6456281365608447  1.0000
  H   H12       1.0  0.5347118382624885  0.522385129904279  0.3591876377535641  1.0000
  H   H13       1.0  0.9748327854569682  0.6942565770597965  0.49495063047826454  1.0000
  H   H14       1.0  0.52313434017762  0.2915009588629117  0.49713789846354217  1.0000
  H   H15       1.0  0.023137111992426202  0.20849248909406976  0.9971387154181884  1.0000
  H   H16       1.0  0.4748176046935485  0.8057381488246377  0.9949569629553281  1.0000
  H   H17       1.0  0.8614127797247662  0.7389442723197561  0.6124259588831223  1.0000
  H   H18       1.0  0.4052948739725082  0.23067566283643248  0.3938882050161396  1.0000
  H   H19       1.0  0.9052944083883646  0.2693168644824552  0.8938892011418743  1.0000
  H   H20       1.0  0.3614065876409144  0.761044791710539  0.1124335284715414  1.0000
  C   C1        1.0  0.20323014852228033  0.5624331194241491  0.8290711612711092  1.0000
  C   C2        1.0  0.6982866101612045  0.4482377849254036  0.1730142239807719  1.0000
  C   C3        1.0  0.19828419655915036  0.051761218730426585  0.6730155534211166  1.0000
  C   C4        1.0  0.7032399169707019  0.9375716578426391  0.3290777000020668  1.0000
  C   C5        1.0  0.10469273194868126  0.6675748032484916  0.895889967362649  1.0000
  C   C6        1.0  0.6038194968747844  0.34082065335144296  0.10714715940673611  1.0000
  C   C7        1.0  0.10381401029198403  0.15918056060666427  0.607149367203391  1.0000
  C   C8        1.0  0.6047113893684609  0.8324249619019142  0.3958990345457352  1.0000
  C   C9        1.0  0.0074885633892236994  0.6506058252403619  0.0030332114174954003  1.0000
  C   C10       1.0  0.5170199118282071  0.3548710203092397  0.9997896177117769  1.0000
  C   C11       1.0  0.017014124202930192  0.14512531096816866  0.49979029413979253  1.0000
  C   C12       1.0  0.5075090499791913  0.8493998246471007  0.5030411443431362  1.0000
  C   C13       1.0  0.9267724942426695  0.8654561050544625  0.005736055006146007  1.0000
  C   C14       1.0  0.45080352489878095  0.13750344011749144  0.9965020350663496  1.0000
  C   C15       1.0  0.9508073482330134  0.36249441100289903  0.49649529366558914  1.0000
  C   C16       1.0  0.4267790284080489  0.6345520363348456  0.5057461922913264  1.0000
  C   C17       1.0  0.027077663759150997  0.882744566767222  0.8981183352921179  1.0000
  C   C18       1.0  0.535765099051801  0.1236488947922965  0.10506197011645212  1.0000
  C   C19       1.0  0.0357658295145953  0.37635079245077907  0.6050500303211167  1.0000
  C   C20       1.0  0.5270845231165425  0.6172642343998189  0.3981284886769245  1.0000
  N   N1        1.0  0.11681969739738213  0.7841245298312175  0.8425760250483452  1.0000
  N   N2        1.0  0.6123475333677462  0.22465100349673142  0.1595461544491741  1.0000
  N   N3        1.0  0.1123435582625518  0.27535149757004257  0.6595412437675422  1.0000
  N   N4        1.0  0.6168249098327366  0.7158767260188907  0.3425932328349788  1.0000
  N   N5        1.0  0.915886343974286  0.7499066165482515  0.057906418875482805  1.0000
  N   N6        1.0  0.43953915848304353  0.2528638808847035  0.9450409810480381  1.0000
  N   N7        1.0  0.9395400505713952  0.24712596808485177  0.4450387461125445  1.0000
  N   N8        1.0  0.41589261349776047  0.7501048397688093  0.5579190800456076  1.0000
  Cl  Cl1       1.0  0.5915362449554352  0.8238093500408536  0.806775537476611  1.0000
  Cl  Cl2       1.0  0.0612359757475431  0.17573013690165598  0.18075835679032082  1.0000
  Cl  Cl3       1.0  0.5612331576888608  0.3242714444743838  0.6807615398018996  1.0000
  Cl  Cl4       1.0  0.09154660908399852  0.676186684445362  0.30676876245681234  1.0000
  O   O1        1.0  0.2951702027048738  0.5977775966606129  0.734564615919659  1.0000
  O   O2        1.0  0.7974993117602055  0.4170684761895912  0.25994536855888845  1.0000
  O   O3        1.0  0.2975037915322786  0.08293093536219939  0.7599498476959141  1.0000
  O   O4        1.0  0.7951732448619921  0.9022277388616045  0.23456454160813683  1.0000
  O   O5        1.0  0.1879073731628012  0.44864613566507217  0.8665196866732006  1.0000
  O   O6        1.0  0.6698755156016176  0.5626171525030585  0.13640137210903452  1.0000
  O   O7        1.0  0.16987486549325578  0.9373832428839673  0.6364055423473403  1.0000
  O   O8        1.0  0.6879139245198401  0.051348838855773175  0.36652253313635447  1.0000
  O   O9        1.0  0.9301930896865046  0.6669072166041871  0.5743899623559799  1.0000
  O   O10       1.0  0.5094806472787994  0.292385565973852  0.4104468386468838  1.0000
  O   O11       1.0  0.009486382755859807  0.20761276604082474  0.9104485012395713  1.0000
  O   O12       1.0  0.4301872528121819  0.8330828593479963  0.07440041580870371  1.0000
