data_image0
_chemical_formula_structural       Cu4H4C4Br4N6
_chemical_formula_sum              "Cu4 H4 C4 Br4 N6"
_cell_length_a       7.005717334684276
_cell_length_b       7.214876503084608
_cell_length_c       7.850950255019121
_cell_angle_alpha    113.87821982733867
_cell_angle_beta     113.09806648610277
_cell_angle_gamma    96.92115945603851

_space_group_name_H-M_alt    "P 1"
_space_group_IT_number       1

loop_
  _space_group_symop_operation_xyz
  'x, y, z'

loop_
  _atom_site_type_symbol
  _atom_site_label
  _atom_site_symmetry_multiplicity
  _atom_site_fract_x
  _atom_site_fract_y
  _atom_site_fract_z
  _atom_site_occupancy
  Cu  Cu1       1.0  0.9999934319757386  2.6751414807911175e-06  0.9999960614736307  1.0000
  Cu  Cu2       1.0  0.500006558667117  2.2022883037199684e-05  3.356281901264032e-06  1.0000
  Cu  Cu3       1.0  0.20293181011682293  0.4522483024111068  0.9035291366670533  1.0000
  Cu  Cu4       1.0  0.7971459227640167  0.5477838832020582  0.0964739973613149  1.0000
  H   H1        1.0  0.6951085349325083  0.7590615113824128  0.48765729856508216  1.0000
  H   H2        1.0  0.29072147493188544  0.728727897100363  0.487741312634938  1.0000
  H   H3        1.0  0.3049088338084758  0.24094254468054294  0.5123180367670698  1.0000
  H   H4        1.0  0.7093145781560609  0.27127646091763324  0.5122903608870643  1.0000
  C   C1        1.0  0.8672951249914647  0.7773437457336029  0.5388736060094246  1.0000
  C   C2        1.0  0.16989791002841786  0.7615889826825398  0.5389291625222582  1.0000
  C   C3        1.0  0.1326946606064396  0.2226470863394283  0.46109223800716836  1.0000
  C   C4        1.0  0.8301137023792292  0.23841658734524176  0.4610982142792466  1.0000
  Br  Br1       1.0  0.25594975924784796  0.8060119946686086  0.14993968584987258  1.0000
  Br  Br2       1.0  0.3944600955635593  0.34271287507943526  0.14956063708932982  1.0000
  Br  Br3       1.0  0.7439629783769277  0.19395205007102598  0.8500566959490922  1.0000
  Br  Br4       1.0  0.6054724210362464  0.6572738641770428  0.8504714953471433  1.0000
  N   N1        1.0  0.023273649881474665  0.8756798134862297  0.7420520906311125  1.0000
  N   N2        1.0  0.21772927969456665  0.8663989654418673  0.7420602419046959  1.0000
  N   N3        1.0  0.9767281020979866  0.12432399816110261  0.25794060603526964  1.0000
  N   N4        1.0  0.7822641264469326  0.13358872949242345  0.25792608487289204  1.0000
  N   N5        1.0  0.9517560801265647  0.7028670861825504  0.4056785106837849  1.0000
  N   N6        1.0  0.048260735318791624  0.29712577452797717  0.5943153959268626  1.0000
