data_image0
_chemical_formula_structural       Rb4H24C32O12F4
_chemical_formula_sum              "Rb4 H24 C32 O12 F4"
_cell_length_a       6.912993052247582
_cell_length_b       7.114309219003277
_cell_length_c       18.128723415839076
_cell_angle_alpha    89.99994093951486
_cell_angle_beta     92.10584211796643
_cell_angle_gamma    89.99990775543122

_space_group_name_H-M_alt    "P 1"
_space_group_IT_number       1

loop_
  _space_group_symop_operation_xyz
  'x, y, z'

loop_
  _atom_site_type_symbol
  _atom_site_label
  _atom_site_symmetry_multiplicity
  _atom_site_fract_x
  _atom_site_fract_y
  _atom_site_fract_z
  _atom_site_occupancy
  Rb  Rb1       1.0  0.7557157380346168  0.5222983051638862  0.4323059555804959  1.0000
  Rb  Rb2       1.0  0.7442831429354653  0.022300187498927905  0.5676942285368014  1.0000
  Rb  Rb3       1.0  0.24428355071157162  0.47769968128849877  0.5676945065684436  1.0000
  Rb  Rb4       1.0  0.2557146982812242  0.977699204572474  0.4323062138714562  1.0000
  H   H1        1.0  0.3547278104662083  0.309464530638195  0.17295087763256586  1.0000
  H   H2        1.0  0.14527361143353792  0.8094702058138097  0.8270482984673321  1.0000
  H   H3        1.0  0.6452729258118308  0.6905292389594777  0.8270496042576523  1.0000
  H   H4        1.0  0.8547285695133907  0.19053761996262605  0.17295109989929355  1.0000
  H   H5        1.0  0.4957788669559591  0.30102244307440174  0.049080630412220196  1.0000
  H   H6        1.0  0.004228360639352499  0.801026606188472  0.9509191798464582  1.0000
  H   H7        1.0  0.5042262119070314  0.6989713265197535  0.9509199106991486  1.0000
  H   H8        1.0  0.995776715364215  0.19898121958561177  0.04908025800094149  1.0000
  H   H9        1.0  0.9437937487143485  0.6852377904765702  0.12169250221353418  1.0000
  H   H10       1.0  0.55620051927265  0.18523914359909097  0.8783086571088815  1.0000
  H   H11       1.0  0.056202646397842684  0.31476160159527194  0.8783084720848464  1.0000
  H   H12       1.0  0.4437929807793707  0.8147644653286292  0.1216922777078366  1.0000
  H   H13       1.0  0.806044196328898  0.6931696332602825  0.24773147584296143  1.0000
  H   H14       1.0  0.6939457129238703  0.1931711038300392  0.7522685176463995  1.0000
  H   H15       1.0  0.19395219593801014  0.30682694757733486  0.7522683951949956  1.0000
  H   H16       1.0  0.3060448906488701  0.8068310994829203  0.24773182605933639  1.0000
  H   H17       1.0  0.35595581660808745  0.2683373881048894  0.2998889308787227  1.0000
  H   H18       1.0  0.14403988842129678  0.7683405920031489  0.7001118385260979  1.0000
  H   H19       1.0  0.6440420246121333  0.7316577871129796  0.700111511530423  1.0000
  H   H20       1.0  0.8559550605828503  0.2316630169226599  0.2998896676615104  1.0000
  H   H21       1.0  0.2108039190854214  0.4574184523249656  0.2639373402717665  1.0000
  H   H22       1.0  0.28919436391223025  0.9574255474439397  0.7360633887344716  1.0000
  H   H23       1.0  0.7891968171949697  0.5425725060370112  0.7360631416190486  1.0000
  H   H24       1.0  0.7108034772962099  0.0425836839523868  0.2639370536717108  1.0000
  C   C1        1.0  0.5709300203609259  0.5039582347166558  0.2183429695085906  1.0000
  C   C2        1.0  0.9290674424124885  0.0039606602573556  0.7816566509855889  1.0000
  C   C3        1.0  0.42907071591357476  0.49603975173455683  0.7816575123807394  1.0000
  C   C4        1.0  0.07093184205752577  0.9960429486686168  0.2183421562706513  1.0000
  C   C5        1.0  0.48336667858564647  0.39227220065637874  0.1629249422627552  1.0000
  C   C6        1.0  0.0166317108167107  0.8922752416456772  0.8370747110047886  1.0000
  C   C7        1.0  0.5166326101640735  0.6077215689424663  0.8370755198870794  1.0000
  C   C8        1.0  0.9833675750747657  0.10773117851525883  0.16292464788136127  1.0000
  C   C9        1.0  0.5611642629380782  0.3872710440739409  0.09283082046976429  1.0000
  C   C10       1.0  0.9388383485648217  0.8872732297071407  0.9071692686835034  1.0000
  C   C11       1.0  0.4388379222897355  0.612725536757516  0.9071702327907474  1.0000
  C   C12       1.0  0.06116383380828689  0.1127317848328602  0.09283068131421857  1.0000
  C   C13       1.0  0.7237337205857128  0.49436636231097714  0.0795536046146523  1.0000
  C   C14       1.0  0.7762643687330237  0.9943715813146526  0.9204463800737059  1.0000
  C   C15       1.0  0.27626411493806546  0.5056302185276778  0.9204446312721827  1.0000
  C   C16       1.0  0.22373347105159513  0.005637650082405799  0.07955351070197027  1.0000
  C   C17       1.0  0.8153533150959829  0.6039847305845215  0.1340125358419542  1.0000
  C   C18       1.0  0.6846439827825321  0.10398731869853611  0.8659881456563524  1.0000
  C   C19       1.0  0.18464742260233882  0.39601325586595243  0.8659884976778756  1.0000
  C   C20       1.0  0.31535530453394495  0.8960176958438096  0.13401176486060246  1.0000
  C   C21       1.0  0.7383399831956652  0.6077067744511739  0.20399765337489126  1.0000
  C   C22       1.0  0.7616529630107749  0.10770661571346102  0.7960018640694243  1.0000
  C   C23       1.0  0.26165641049506405  0.39228980638570476  0.7960027692935725  1.0000
  C   C24       1.0  0.23834197887664732  0.8922941819803397  0.20399688396624777  1.0000
  C   C25       1.0  0.32915290706218053  0.42038730327615775  0.3038750409002516  1.0000
  C   C26       1.0  0.1708454380392439  0.9203904753347986  0.6961257037508658  1.0000
  C   C27       1.0  0.6708478292146791  0.579607871939359  0.696125440989668  1.0000
  C   C28       1.0  0.8291567443362168  0.07961172796951389  0.30387424624745296  1.0000
  C   C29       1.0  0.2629722154848294  0.46576059624959487  0.3816162498674558  1.0000
  C   C30       1.0  0.23703184364322274  0.9657596536392672  0.6183845545778297  1.0000
  C   C31       1.0  0.7370314158463029  0.5342373901992729  0.6183842715026415  1.0000
  C   C32       1.0  0.7629746784730924  0.03423833280945839  0.38161435138152905  1.0000
  O   O1        1.0  0.5015589008224524  0.5225053241877972  0.28815153322160814  1.0000
  O   O2        1.0  0.9984385308466269  0.0225092313593365  0.7118480794369261  1.0000
  O   O3        1.0  0.4984418354544004  0.4774898510277198  0.7118489486683187  1.0000
  O   O4        1.0  0.0015607521983938  0.9774957831852192  0.2881501761885161  1.0000
  O   O5        1.0  0.3468696820151251  0.5956873610765215  0.4181997168357369  1.0000
  O   O6        1.0  0.1531306508581878  0.09569075584157362  0.5817995298358198  1.0000
  O   O7        1.0  0.6531324989400599  0.4043106253749825  0.5817996815329635  1.0000
  O   O8        1.0  0.8468787663171183  0.9043044193691187  0.4181994156049028  1.0000
  O   O9        1.0  0.12409563404741415  0.36475438501034313  0.40296615566736443  1.0000
  O   O10       1.0  0.3759042518788361  0.8647560905299229  0.5970346322269364  1.0000
  O   O11       1.0  0.8759051022270865  0.6352436014408696  0.5970343262219656  1.0000
  O   O12       1.0  0.6241022716624797  0.13524049030022667  0.4029648253632202  1.0000
  F   F1        1.0  0.7977545110889251  0.49084672860305284  0.0104554866887767  1.0000
  F   F2        1.0  0.702245031659352  0.990853286466603  0.9895445192265766  1.0000
  F   F3        1.0  0.20224477766079466  0.5091470409957921  0.9895449754610578  1.0000
  F   F4        1.0  0.2977528066990871  0.009158756166883096  0.010454819918003  1.0000
