data_image0
_chemical_formula_structural       Cs4H8C12S12N12
_chemical_formula_sum              "Cs4 H8 C12 S12 N12"
_cell_length_a       5.379028712971543
_cell_length_b       10.983637628732017
_cell_length_c       14.935731876628855
_cell_angle_alpha    89.45630353786466
_cell_angle_beta     87.54666280040051
_cell_angle_gamma    75.84179575199302

_space_group_name_H-M_alt    "P 1"
_space_group_IT_number       1

loop_
  _space_group_symop_operation_xyz
  'x, y, z'

loop_
  _atom_site_type_symbol
  _atom_site_label
  _atom_site_symmetry_multiplicity
  _atom_site_fract_x
  _atom_site_fract_y
  _atom_site_fract_z
  _atom_site_occupancy
  Cs  Cs1       1.0  0.625346986821171  0.021984651210949797  0.759100350945957  1.0000
  Cs  Cs2       1.0  0.6483056857937511  0.9776280604186451  0.2592066751245383  1.0000
  Cs  Cs3       1.0  0.10463215072643811  0.23072710259448562  0.973568058215058  1.0000
  Cs  Cs4       1.0  0.33378657365394543  0.7694227195354557  0.4734805097041744  1.0000
  H   H1        1.0  0.9389971264156214  0.7977866878235529  0.060980064212763814  1.0000
  H   H2        1.0  0.7351939317692738  0.20206598254256386  0.5617520222792294  1.0000
  H   H3        1.0  0.21279113074788097  0.6110555905121372  0.778796411309024  1.0000
  H   H4        1.0  0.8225144669147183  0.38896611248118507  0.2787262688466114  1.0000
  H   H5        1.0  0.5348708986925245  0.6088695526730561  0.9099125848851273  1.0000
  H   H6        1.0  0.14566899314129236  0.3911075458267561  0.4095264918365587  1.0000
  H   H7        1.0  0.8213195515299246  0.4254490627524348  0.6198203272369796  1.0000
  H   H8        1.0  0.24602122042949745  0.5746694106842084  0.119859009306019  1.0000
  C   C1        1.0  0.9952494715577413  0.5373553299739342  0.693393498705852  1.0000
  C   C2        1.0  0.5317137940865705  0.4627172952691225  0.19327479107980852  1.0000
  C   C3        1.0  0.6370655562669681  0.9121030429350296  0.9922411617105312  1.0000
  C   C4        1.0  0.5480496034110445  0.08791484586011217  0.4924437250343914  1.0000
  C   C5        1.0  0.4138058741870906  0.8055031799514862  0.9039548578576202  1.0000
  C   C6        1.0  0.21945269100945808  0.19457500604666927  0.40387951176356307  1.0000
  C   C7        1.0  0.09609726302781499  0.31029173089994083  0.6979410094653176  1.0000
  C   C8        1.0  0.406549179469465  0.6897799222482276  0.1978529142903582  1.0000
  C   C9        1.0  0.3171203961794616  0.41472239244853876  0.788897870673715  1.0000
  C   C10       1.0  0.7309040787415452  0.5852763547917872  0.2890333226133777  1.0000
  C   C11       1.0  0.7569513371985219  0.6855482137478431  0.9918078172263662  1.0000
  C   C12       1.0  0.4439171976651932  0.31445288346799316  0.4915233585146339  1.0000
  S   S1        1.0  0.04699053499292916  0.1766123717460388  0.6548298880713547  1.0000
  S   S2        1.0  0.22480796672402176  0.8233211541206912  0.15448631945409372  1.0000
  S   S3        1.0  0.20050388945659858  0.8024712667822694  0.8252367848013193  1.0000
  S   S4        1.0  0.0036126485432746215  0.19762377867730402  0.3250208287199286  1.0000
  S   S5        1.0  0.5359041279761597  0.415594016562636  0.8662705935811488  1.0000
  S   S6        1.0  0.9502283925328139  0.5843170917178141  0.3665797579882621  1.0000
  S   S7        1.0  0.6976643253864551  0.04491177255138719  0.0317303409119063  1.0000
  S   S8        1.0  0.7414686157026223  0.9549853074522755  0.531571885101876  1.0000
  S   S9        1.0  0.8292299528834304  0.674495356809757  0.6545115025635868  1.0000
  S   S10       1.0  0.5032442257121159  0.3255406397774862  0.15407870754735603  1.0000
  S   S11       1.0  0.9451787345908397  0.5501585238095429  0.025275338418715907  1.0000
  S   S12       1.0  0.4996523482992571  0.449819851513368  0.5238640017384668  1.0000
  N   N1        1.0  0.27030280377345406  0.30627266358862926  0.7607581221154618  1.0000
  N   N2        1.0  0.5762742583775375  0.6937459150647597  0.26083094477953495  1.0000
  N   N3        1.0  0.788440862887306  0.7984729869750921  0.019056309033466303  1.0000
  N   N4        1.0  0.5860278847097432  0.20152860807888828  0.519476621031572  1.0000
  N   N5        1.0  0.1805634472228944  0.5275861975777828  0.7546666933283817  1.0000
  N   N6        1.0  0.7069788027405293  0.4724235868410388  0.2546864962527877  1.0000
  N   N7        1.0  0.562893176191295  0.6928049092283713  0.9347505263546765  1.0000
  N   N8        1.0  0.25681063791127906  0.3072298171534058  0.4345675807145923  1.0000
  N   N9        1.0  0.9594210965170898  0.4245662023486361  0.6664233395758643  1.0000
  N   N10       1.0  0.3834228701841481  0.5754888648795031  0.16640144025812023  1.0000
  N   N11       1.0  0.4490063353005736  0.9147693434443626  0.9351303266473538  1.0000
  N   N12       1.0  0.3631045350606996  0.08529279088690338  0.43516050451604127  1.0000
