data_image0
_chemical_formula_structural       CoH18C12N24Cl2
_chemical_formula_sum              "Co1 H18 C12 N24 Cl2"
_cell_length_a       6.839439267122465
_cell_length_b       9.065129137357253
_cell_length_c       9.287962580868024
_cell_angle_alpha    100.6309218180614
_cell_angle_beta     91.83590338368218
_cell_angle_gamma    99.10569789531874

_space_group_name_H-M_alt    "P 1"
_space_group_IT_number       1

loop_
  _space_group_symop_operation_xyz
  'x, y, z'

loop_
  _atom_site_type_symbol
  _atom_site_label
  _atom_site_symmetry_multiplicity
  _atom_site_fract_x
  _atom_site_fract_y
  _atom_site_fract_z
  _atom_site_occupancy
  Co  Co1       1.0  2.41763963495011e-07  6.440263291974723e-07  0.5000013229405982  1.0000
  H   H1        1.0  0.2843325772931351  0.38796021762394867  0.44086676697217814  1.0000
  H   H2        1.0  0.7156681567277232  0.612040385267761  0.559134923134714  1.0000
  H   H3        1.0  0.9709236871858665  0.6609686272952683  0.3089717612396613  1.0000
  H   H4        1.0  0.029079988341422273  0.33903192659624876  0.6910289536773535  1.0000
  H   H5        1.0  0.0881648594218731  0.3857801075487187  0.30824337545307406  1.0000
  H   H6        1.0  0.9118327379450761  0.6142194351657293  0.6917558466368947  1.0000
  H   H7        1.0  0.4419806345029259  0.35695209721555426  0.21627092477262985  1.0000
  H   H8        1.0  0.5580187038746729  0.6430485541826413  0.7837285679548602  1.0000
  H   H9        1.0  0.38901771062786844  0.04771335153842668  0.8708329435581138  1.0000
  H   H10       1.0  0.6109744685596611  0.9522817559473037  0.12916202341248356  1.0000
  H   H11       1.0  0.5868361261515749  0.06034929537986499  0.6505793195086655  1.0000
  H   H12       1.0  0.4131598496707909  0.9396434482314855  0.34941535318652944  1.0000
  H   H13       1.0  0.5111519136574145  0.5547778045699158  0.28899704420678063  1.0000
  H   H14       1.0  0.48884910564287043  0.44522393630692375  0.7110048671377032  1.0000
  H   H15       1.0  0.21378088788257088  0.2830918816522184  0.9651427800081867  1.0000
  H   H16       1.0  0.7862236434829911  0.716912086194675  0.03485859862161079  1.0000
  H   H17       1.0  0.37853627438178716  0.8583391007064162  0.8982153254343364  1.0000
  H   H18       1.0  0.6214599566760128  0.14165477128750578  0.10178064248818693  1.0000
  C   C1        1.0  0.3855494150272846  0.46405244487298325  0.24525298183304764  1.0000
  C   C2        1.0  0.6144511846439329  0.5359527968759324  0.754743099885893  1.0000
  C   C3        1.0  0.0811363092518178  0.6903339610310864  0.4010938371550595  1.0000
  C   C4        1.0  0.9188632242732596  0.3096677995445701  0.5989090987792312  1.0000
  C   C5        1.0  0.689331460501414  0.008824057265890401  0.7100057604407157  1.0000
  C   C6        1.0  0.3106670220379186  0.991173180176922  0.28999306857399193  1.0000
  C   C7        1.0  0.23122087624445697  0.4489064164074036  0.3594415390627078  1.0000
  C   C8        1.0  0.768780428335248  0.5510964624545592  0.6405605935193749  1.0000
  C   C9        1.0  0.22931251101979203  0.4062093920818412  0.9843742011951381  1.0000
  C   C10       1.0  0.770689994055701  0.5937923290961746  0.015626685559546175  1.0000
  C   C11       1.0  0.4713150967711285  0.9716965234321713  0.9182025435450927  1.0000
  C   C12       1.0  0.5286784179716975  0.02829851634196248  0.08179676878436483  1.0000
  N   N1        1.0  0.8680895283295699  0.9763419286909989  0.6762104527081548  1.0000
  N   N2        1.0  0.1319112657792516  0.023658693405820882  0.3237890894192646  1.0000
  N   N3        1.0  0.3061514314031868  0.4996721235804385  0.11054463405053382  1.0000
  N   N4        1.0  0.6938487027247149  0.5003319225680298  0.8894576703692114  1.0000
  N   N5        1.0  0.22390845606334153  0.6377460268207783  0.9643347434480706  1.0000
  N   N6        1.0  0.7760893965390494  0.36225464427624116  0.03566577386922627  1.0000
  N   N7        1.0  0.20012701106504246  0.5973486194080876  0.4382312036781642  1.0000
  N   N8        1.0  0.7998748633636412  0.40265080659456487  0.5617713885808017  1.0000
  N   N9        1.0  0.8050289162601844  0.9042350602299504  0.8828019353418598  1.0000
  N   N10       1.0  0.1949660248797542  0.09576566946981299  0.11719848317557792  1.0000
  N   N11       1.0  0.11868945294712319  0.8191631402948898  0.5009505399096527  1.0000
  N   N12       1.0  0.881311281073735  0.18083746259681985  0.49905115019723945  1.0000
  N   N13       1.0  0.9363819394150638  0.9121423186675268  0.7854078255575632  1.0000
  N   N14       1.0  0.0636190798852212  0.08785942220931277  0.21459408578692063  1.0000
  N   N15       1.0  0.6502104610522964  0.9649550748675676  0.8374070793228656  1.0000
  N   N16       1.0  0.3497869712111595  0.03504336827197108  0.16258762557057346  1.0000
  N   N17       1.0  0.31320055189936374  0.66954719142322  0.5617105278406174  1.0000
  N   N18       1.0  0.6867986663023091  0.33045342156476193  0.4382932608458108  1.0000
  N   N19       1.0  0.3013396934795979  0.645302290289905  0.09594043579618734  1.0000
  N   N20       1.0  0.6986572739504169  0.35470068607873617  0.9040604745963637  1.0000
  N   N21       1.0  0.2634791621136827  0.8026723364395206  0.5988411833537628  1.0000
  N   N22       1.0  0.7365198008525482  0.19732714816588262  0.4011613101053372  1.0000
  N   N23       1.0  0.17798929611411304  0.49050036452995016  0.8915740441640597  1.0000
  N   N24       1.0  0.822013178917395  0.5095013470455142  0.10842791658036083  1.0000
  Cl  Cl1       1.0  0.3062279613622466  0.17891669527161003  0.6404456549770219  1.0000
  Cl  Cl2       1.0  0.6937722621877284  0.8210816508549567  0.35955344467521405  1.0000
