data_image0
_chemical_formula_structural       Cd4H72C88N16O16
_chemical_formula_sum              "Cd4 H72 C88 N16 O16"
_cell_length_a       13.846122643390004
_cell_length_b       13.846122263902776
_cell_length_c       15.596200179000679
_cell_angle_alpha    90.00002749864935
_cell_angle_beta     89.99998004467977
_cell_angle_gamma    90.65802260404362

_space_group_name_H-M_alt    "P 1"
_space_group_IT_number       1

loop_
  _space_group_symop_operation_xyz
  'x, y, z'

loop_
  _atom_site_type_symbol
  _atom_site_label
  _atom_site_symmetry_multiplicity
  _atom_site_fract_x
  _atom_site_fract_y
  _atom_site_fract_z
  _atom_site_occupancy
  Cd  Cd1       1.0  0.16708695112674124  0.28489047657831884  0.506424670928972  1.0000
  Cd  Cd2       1.0  0.7151092364640378  0.832913600434523  0.4935760604343003  1.0000
  Cd  Cd3       1.0  0.21510967420393  0.3329137366373942  0.0064240382878538  1.0000
  Cd  Cd4       1.0  0.6670865129510729  0.7848910625938358  0.9935754107119338  1.0000
  H   H1        1.0  0.1002910587219432  0.17928537733658348  0.2244316124126868  1.0000
  H   H2        1.0  0.8207140912414488  0.8997089494875679  0.7755678223185214  1.0000
  H   H3        1.0  0.32071444526218335  0.3997084803847244  0.7244309783533893  1.0000
  H   H4        1.0  0.6002914269725609  0.6792858551702777  0.2755684563777052  1.0000
  H   H5        1.0  0.0322581918764371  0.0695645831579412  0.1108096929669955  1.0000
  H   H6        1.0  0.9304344856974893  0.967742060296757  0.8891903676194277  1.0000
  H   H7        1.0  0.430435605849965  0.4677415389914825  0.6108090692791777  1.0000
  H   H8        1.0  0.5322585167028038  0.5695643997060102  0.3891903501250483  1.0000
  H   H9        1.0  0.867044682654189  0.917544466111131  0.30385356063535346  1.0000
  H   H10       1.0  0.08245559263871631  0.13295518437416115  0.6961477871650674  1.0000
  H   H11       1.0  0.582455950407244  0.6329549551571532  0.8038522559279218  1.0000
  H   H12       1.0  0.3670464921362253  0.4175439993012588  0.19614652714474093  1.0000
  H   H13       1.0  0.934807007320309  0.026572247041066494  0.41637756370057843  1.0000
  H   H14       1.0  0.9734276248628719  0.06519351165320589  0.583622790435932  1.0000
  H   H15       1.0  0.4734272891109512  0.5651938789739432  0.9163764616788725  1.0000
  H   H16       1.0  0.4348082449968089  0.5265717311553573  0.08362233656566083  1.0000
  H   H17       1.0  0.6661060610270724  0.9543928935348659  0.12526715106388764  1.0000
  H   H18       1.0  0.04561009245018251  0.3338955054585923  0.8747310782506263  1.0000
  H   H19       1.0  0.5456083523415175  0.8338951542781599  0.6252677794763744  1.0000
  H   H20       1.0  0.16610563475757803  0.45439249630420153  0.3747310910201307  1.0000
  H   H21       1.0  0.7479755188557605  0.024574481892827293  0.1898570320677493  1.0000
  H   H22       1.0  0.9754267241985772  0.2520260315861904  0.8101427488417485  1.0000
  H   H23       1.0  0.4754264767597932  0.7520248329914594  0.6898565822452555  1.0000
  H   H24       1.0  0.24797522454833398  0.5245740700235899  0.3101422839540008  1.0000
  H   H25       1.0  0.7147883993907059  0.905025881695245  0.22132642841262404  1.0000
  H   H26       1.0  0.09497533022592822  0.28520980934164436  0.7786724060350709  1.0000
  H   H27       1.0  0.5949749971434388  0.7852102493559272  0.7213264156827535  1.0000
  H   H28       1.0  0.21479017745178913  0.40502473692409774  0.2786730599463851  1.0000
  H   H29       1.0  0.040851793380341006  0.8807996740253826  0.07715615429854952  1.0000
  H   H30       1.0  0.11919878938129361  0.9591491551362947  0.9228448425640111  1.0000
  H   H31       1.0  0.6191998499014275  0.4591487930776167  0.5771546869411497  1.0000
  H   H32       1.0  0.54085127547895  0.38080020210986726  0.4228446599040652  1.0000
  H   H33       1.0  0.910795055104245  0.7930579705114839  0.9628711009955639  1.0000
  H   H34       1.0  0.20694195058312906  0.08920524644786806  0.03712890258843521  1.0000
  H   H35       1.0  0.7069415246961768  0.5892050937782329  0.462869812476285  1.0000
  H   H36       1.0  0.41079475828395573  0.2930588366688339  0.5371295499261566  1.0000
  H   H37       1.0  0.3632264858854414  0.0236063576174317  0.6251528635446918  1.0000
  H   H38       1.0  0.9763913426437442  0.6367727996367873  0.3748483408269649  1.0000
  H   H39       1.0  0.47639317865902353  0.13677373919146163  0.1251522347045935  1.0000
  H   H40       1.0  0.8632253712698557  0.5236068712305553  0.8748470461218005  1.0000
  H   H41       1.0  0.44568485866979307  0.9369685088147293  0.7456061030349731  1.0000
  H   H42       1.0  0.0630306304832189  0.5543141824856832  0.2543954068212173  1.0000
  H   H43       1.0  0.5630316255422372  0.054314632982212195  0.2456059026197082  1.0000
  H   H44       1.0  0.9456844062295173  0.43696822434402083  0.7543939572191365  1.0000
  H   H45       1.0  0.3642785947498338  0.16390033406809582  0.9196310319964456  1.0000
  H   H46       1.0  0.8361006343496983  0.6357218261482203  0.0803695823859059  1.0000
  H   H47       1.0  0.33610019074853165  0.135721452995675  0.4196303949089639  1.0000
  H   H48       1.0  0.864278316079776  0.6639006984896271  0.5803695782916805  1.0000
  H   H49       1.0  0.2783171398210555  0.24719312610751124  0.8002500613373655  1.0000
  H   H50       1.0  0.7528070559220909  0.7216844942193035  0.19974869172684612  1.0000
  H   H51       1.0  0.252806659275727  0.2216826126085678  0.3002507067692832  1.0000
  H   H52       1.0  0.7783160932326396  0.7471928236005424  0.6997486874765073  1.0000
  H   H53       1.0  0.6927576963514923  0.9643417851566481  0.8715239209941572  1.0000
  H   H54       1.0  0.035658909736206106  0.3072426701785318  0.1284762257250875  1.0000
  H   H55       1.0  0.5356577964033349  0.8072431820096353  0.3715245587484333  1.0000
  H   H56       1.0  0.19275736514141784  0.4643412558641984  0.6284768703346657  1.0000
  H   H57       1.0  0.6207605394971979  0.0561371217411732  0.824200673348713  1.0000
  H   H58       1.0  0.9438616749097976  0.3792381702326821  0.1757978835720877  1.0000
  H   H59       1.0  0.443862096574442  0.8792392190715927  0.3242021641300497  1.0000
  H   H60       1.0  0.1207617402838039  0.5561388219439178  0.6757980428083742  1.0000
  H   H61       1.0  0.6158640891342984  0.9357193115450996  0.7849624576811751  1.0000
  H   H62       1.0  0.0642781860141994  0.38413572201994833  0.2150377067855089  1.0000
  H   H63       1.0  0.5642785515107178  0.88413476045379  0.2849618192282506  1.0000
  H   H64       1.0  0.11586372276575223  0.4357217175487164  0.715038345238739  1.0000
  H   H65       1.0  0.4649019003839285  0.8723261336640107  0.0859640015604128  1.0000
  H   H66       1.0  0.1276757496269028  0.5350988556254065  0.9140374774644968  1.0000
  H   H67       1.0  0.6276746399329625  0.03509847209770099  0.5859631511367172  1.0000
  H   H68       1.0  0.964902109461832  0.37232449909981813  0.4140373190524258  1.0000
  H   H69       1.0  0.3347416359023114  0.9872845617812088  0.9953150314949185  1.0000
  H   H70       1.0  0.0127163597727105  0.6652584665133219  0.0046865376487801  1.0000
  H   H71       1.0  0.5127158143325374  0.1652583112431998  0.4953148346171616  1.0000
  H   H72       1.0  0.8347427252692727  0.4872827164209495  0.5046850845087363  1.0000
  C   C1        1.0  0.0641400453078518  0.17621592146754483  0.3928687988330495  1.0000
  C   C2        1.0  0.8237850876083642  0.9358593929913253  0.6071312892421759  1.0000
  C   C3        1.0  0.32378465346580754  0.4358604499243412  0.8928681670622611  1.0000
  C   C4        1.0  0.5641404790145188  0.6762155867530878  0.10713127983129313  1.0000
  C   C5        1.0  0.021044040061923404  0.11031346290408808  0.32670588074164203  1.0000
  C   C6        1.0  0.8896862999286341  0.9789559649859709  0.673294198949023  1.0000
  C   C7        1.0  0.38968661403361443  0.4789562729492828  0.8267052553306797  1.0000
  C   C8        1.0  0.5210451709357785  0.6103124501835634  0.17329418317778086  1.0000
  C   C9        1.0  0.04913441676127661  0.12178030249172876  0.24081380355062987  1.0000
  C   C10       1.0  0.8782204880785756  0.9508658757172767  0.7591862700282308  1.0000
  C   C11       1.0  0.37822083577558635  0.4508654153996971  0.7408131758313347  1.0000
  C   C12       1.0  0.5491355144791257  0.6217793358333665  0.2591862565651725  1.0000
  C   C13       1.0  0.0118953267506257  0.06070521072396669  0.17794463658577803  1.0000
  C   C14       1.0  0.9392939291724788  0.988104629793966  0.8220560694116871  1.0000
  C   C15       1.0  0.43929430070232206  0.4881048579795007  0.6779440146032061  1.0000
  C   C16       1.0  0.5118963997637352  0.5607049999997782  0.3220554090304049  1.0000
  C   C17       1.0  0.9460748985460158  0.9879112631880813  0.20129460790941786  1.0000
  C   C18       1.0  0.0120878143784537  0.05392529982653117  0.7987060955242742  1.0000
  C   C19       1.0  0.5120889335719525  0.5539257465590025  0.7012932944852823  1.0000
  C   C20       1.0  0.4460759461669427  0.48791084264763623  0.2987054854026213  1.0000
  C   C21       1.0  0.917645052448485  0.9752472058750284  0.2866121859881119  1.0000
  C   C22       1.0  0.024751677645198807  0.08235559437029137  0.713389164423873  1.0000
  C   C23       1.0  0.5247520425052485  0.5823546336883538  0.7866108749616458  1.0000
  C   C24       1.0  0.4176461330036645  0.4752467395805057  0.21338791072253124  1.0000
  C   C25       1.0  0.9555887926383947  0.03662835305392059  0.349436257181246  1.0000
  C   C26       1.0  0.9633709001304567  0.04441130165388779  0.6505640930119371  1.0000
  C   C27       1.0  0.463371312490537  0.5444116418062136  0.8494351533601119  1.0000
  C   C28       1.0  0.45559072674559076  0.5366278817983101  0.15056364094087377  1.0000
  C   C29       1.0  0.7306126821476157  0.9518280438689715  0.1658795969558327  1.0000
  C   C30       1.0  0.04817340140927941  0.26938782089030866  0.834119248881443  1.0000
  C   C31       1.0  0.5481723678951341  0.7693875002198352  0.6658789393904386  1.0000
  C   C32       1.0  0.23061299382642636  0.4518276335898719  0.3341199064467872  1.0000
  C   C33       1.0  0.8122968499214737  0.9127977221601568  0.11552307949214223  1.0000
  C   C34       1.0  0.087202530403296  0.18770375120423208  0.8844770043278487  1.0000
  C   C35       1.0  0.5872029608708119  0.68770342098977  0.6155217782561665  1.0000
  C   C36       1.0  0.31229641945420644  0.4127980523742706  0.3844770232001907  1.0000
  C   C37       1.0  0.9627448397666286  0.8806140263781687  0.0736750355901705  1.0000
  C   C38       1.0  0.11938482290301523  0.0372555785355502  0.9263262634484306  1.0000
  C   C39       1.0  0.6193859913602608  0.5372559568280906  0.573673727453972  1.0000
  C   C40       1.0  0.46274511541643193  0.3806143877655329  0.4263256480391036  1.0000
  C   C41       1.0  0.8981749277959211  0.838470996855797  0.018253203712149  1.0000
  C   C42       1.0  0.1615282299472369  0.10182484922514587  0.9817474623897624  1.0000
  C   C43       1.0  0.6615286975267978  0.6018251890655933  0.5182525429841149  1.0000
  C   C44       1.0  0.39817518161581233  0.33847211018348833  0.4817474819361749  1.0000
  C   C45       1.0  0.263535881016523  0.18840448240552377  0.6335325192565406  1.0000
  C   C46       1.0  0.8115943063148024  0.736465530012481  0.3664674999920051  1.0000
  C   C47       1.0  0.3115954181317094  0.23646429867444138  0.133532527799332  1.0000
  C   C48       1.0  0.7635340473644021  0.6884049827938198  0.8664668502673508  1.0000
  C   C49       1.0  0.3148975917130272  0.13949885351817667  0.7056789203501951  1.0000
  C   C50       1.0  0.8605003427376658  0.6851035051619191  0.2943210620345695  1.0000
  C   C51       1.0  0.36050070399740974  0.18510302600223838  0.20567828756800577  1.0000
  C   C52       1.0  0.8148957863468453  0.6394985929970859  0.794320412453182  1.0000
  C   C53       1.0  0.36378717928626264  0.05315283668394949  0.6898904332868696  1.0000
  C   C54       1.0  0.946846245358401  0.6362134170509179  0.3101101405597575  1.0000
  C   C55       1.0  0.4468473349841489  0.1362129381550616  0.18989044387178922  1.0000
  C   C56       1.0  0.863784645553949  0.5531525758992117  0.8101094887930813  1.0000
  C   C57       1.0  0.41034842256815557  0.0058047931317304  0.756464324265913  1.0000
  C   C58       1.0  0.9941943213947724  0.5896512395540724  0.2435368562362399  1.0000
  C   C59       1.0  0.4941953848859272  0.089651518578826  0.25646369371488487  1.0000
  C   C60       1.0  0.9103473586412322  0.505805236325365  0.7435362044237835  1.0000
  C   C61       1.0  0.4096696237716985  0.046221654049595905  0.8387215485370803  1.0000
  C   C62       1.0  0.9537782165446915  0.5903305019716283  0.1612790058921973  1.0000
  C   C63       1.0  0.45377852601148316  0.0903308163785752  0.33872091566754403  1.0000
  C   C64       1.0  0.9096685920338032  0.5462213309114644  0.6612783563982136  1.0000
  C   C65       1.0  0.36292052525658397  0.1331287133816375  0.8552230295715832  1.0000
  C   C66       1.0  0.866871674939631  0.637080363163143  0.1447769328151338  1.0000
  C   C67       1.0  0.36687125663697634  0.13707923325151938  0.35522303554063234  1.0000
  C   C68       1.0  0.8629194998884486  0.6331283813942787  0.6447775680278199  1.0000
  C   C69       1.0  0.3148166026236936  0.17910899445966774  0.7883965129031056  1.0000
  C   C70       1.0  0.8208913813274635  0.6851858560775455  0.21160412525616584  1.0000
  C   C71       1.0  0.3208909892572862  0.1851839681093068  0.2883965189962369  1.0000
  C   C72       1.0  0.8148141069166287  0.6791086808481521  0.7116034779811998  1.0000
  C   C73       1.0  0.6221667705266327  0.9798085672419105  0.8432632053521799  1.0000
  C   C74       1.0  0.020190625999056497  0.3778329264602647  0.1567363318247672  1.0000
  C   C75       1.0  0.5201909681180795  0.8778334405974064  0.3432632051408647  1.0000
  C   C76       1.0  0.12216714980680622  0.47980950627324853  0.656736973218095  1.0000
  C   C77       1.0  0.5459685650898152  0.9585655587335321  0.9079251166925318  1.0000
  C   C78       1.0  0.041434461377484404  0.4540322812771719  0.0920757230526519  1.0000
  C   C79       1.0  0.5414355012434839  0.954032116602775  0.40792448098471124  1.0000
  C   C80       1.0  0.0459682474954093  0.45856573213843876  0.592075076396718  1.0000
  C   C81       1.0  0.4728277051157193  0.9101935177938426  0.0254697861429918  1.0000
  C   C82       1.0  0.08980650354003218  0.5271733108054306  0.974531703890385  1.0000
  C   C83       1.0  0.5898068617406127  0.0271729122977717  0.5254695742293123  1.0000
  C   C84       1.0  0.9728278912779373  0.41019119345238403  0.4745302657861147  1.0000
  C   C85       1.0  0.4080527445519877  0.9657016349620802  0.9819072625431959  1.0000
  C   C86       1.0  0.034298183014634304  0.5919471153346407  0.018092989348844  1.0000
  C   C87       1.0  0.5342983650209732  0.09194696160574979  0.4819083450108722  1.0000
  C   C88       1.0  0.9080516614932251  0.46570049281832127  0.5180928215910185  1.0000
  N   N1        1.0  0.8054364644712636  0.8593178650323807  0.0445256475276707  1.0000
  N   N2        1.0  0.1406822364609184  0.19456425060763388  0.9554744191525444  1.0000
  N   N3        1.0  0.6406826943346999  0.6945638823188813  0.5445249909942547  1.0000
  N   N4        1.0  0.3054360061615924  0.3593189555396917  0.4554744345043034  1.0000
  N   N5        1.0  0.9078966702121819  0.927133207869815  0.13525992651275234  1.0000
  N   N6        1.0  0.07286599827868663  0.0921044324476128  0.864740768612194  1.0000
  N   N7        1.0  0.572866421563525  0.5921033905987301  0.6352586188624372  1.0000
  N   N8        1.0  0.40789696963507543  0.42713353623030054  0.3647401527167916  1.0000
  N   N9        1.0  0.5579420181758863  0.9066451853617606  0.9791975924162771  1.0000
  N   N10       1.0  0.093356780588131  0.44205853676549367  0.0208032238377385  1.0000
  N   N11       1.0  0.5933563483988707  0.9420583928513792  0.4791969590391362  1.0000
  N   N12       1.0  0.05794172852981921  0.40664459832629507  0.5208038572148368  1.0000
  N   N13       1.0  0.4544485106661966  0.9950929085956516  0.9072044502621922  1.0000
  N   N14       1.0  0.0049064070408491  0.5455515109119843  0.0927957953781942  1.0000
  N   N15       1.0  0.504907339719381  0.045552048070902594  0.4072048871262056  1.0000
  N   N16       1.0  0.9544488428773762  0.49509254619390214  0.59279563204219  1.0000
  O   O1        1.0  0.112507569627553  0.24995248525230807  0.36605586575254995  1.0000
  O   O2        1.0  0.7500488935675592  0.8874919571452934  0.6339442316496575  1.0000
  O   O3        1.0  0.2500477475038494  0.3874929909684041  0.8660558680391759  1.0000
  O   O4        1.0  0.6125079934199107  0.7499514426983463  0.13394422936313796  1.0000
  O   O5        1.0  0.0538823456166853  0.1569277335279935  0.4720957865919004  1.0000
  O   O6        1.0  0.8430738074314166  0.9461177257644307  0.527904939345099  1.0000
  O   O7        1.0  0.34307334314196686  0.4461181029661887  0.9720945153631321  1.0000
  O   O8        1.0  0.5538828103425217  0.6569266341069878  0.027904287028256602  1.0000
  O   O9        1.0  0.20447680835602713  0.25652285942488356  0.6515465461037948  1.0000
  O   O10       1.0  0.7434761386947812  0.7955238685269275  0.34845351990181683  1.0000
  O   O11       1.0  0.2434772431220438  0.2955233690679932  0.1515459129361503  1.0000
  O   O12       1.0  0.704475703492996  0.7565240811022063  0.8484528707059767  1.0000
  O   O13       1.0  0.2803127121489624  0.16126024898749589  0.5572177684211752  1.0000
  O   O14       1.0  0.838738907828926  0.7196892446975197  0.44278223467969013  1.0000
  O   O15       1.0  0.3387400495408315  0.21968725021471164  0.0572177775687734  1.0000
  O   O16       1.0  0.7803115708732024  0.6612615212514044  0.9427815843501224  1.0000
