data_image0
_chemical_formula_structural       Hg2P4H36Au4C60F40
_chemical_formula_sum              "Hg2 P4 H36 Au4 C60 F40"
_cell_length_a       10.47212077440626
_cell_length_b       10.999339880069522
_cell_length_c       18.19440045395811
_cell_angle_alpha    106.97644042983232
_cell_angle_beta     90.01218369712194
_cell_angle_gamma    118.4219469599851

_space_group_name_H-M_alt    "P 1"
_space_group_IT_number       1

loop_
  _space_group_symop_operation_xyz
  'x, y, z'

loop_
  _atom_site_type_symbol
  _atom_site_label
  _atom_site_symmetry_multiplicity
  _atom_site_fract_x
  _atom_site_fract_y
  _atom_site_fract_z
  _atom_site_occupancy
  Hg  Hg1       1.0  1.5028814317000002e-06  1.0959486474e-06  1.9340289009999997e-07  1.0000
  Hg  Hg2       1.0  0.9999992045116174  0.9999992205818343  0.49999963514952833  1.0000
  P   P1        1.0  0.31112593459744176  0.22628209095265817  0.8586946150204113  1.0000
  P   P2        1.0  0.08497279841930806  0.7737647740848531  0.641303930365531  1.0000
  P   P3        1.0  0.6888747573892505  0.7737189667265628  0.14130535942938144  1.0000
  P   P4        1.0  0.9150263912341006  0.22623518833644612  0.3586969500425923  1.0000
  H   H1        1.0  0.5113896702027391  0.30200323835138226  0.7852259310640405  1.0000
  H   H2        1.0  0.20944637648456432  0.6980566585622727  0.7148343843706754  1.0000
  H   H3        1.0  0.48861047409120334  0.6979967237209056  0.2147743997213425  1.0000
  H   H4        1.0  0.7905528131688442  0.30194330385902646  0.2851664960374478  1.0000
  H   H5        1.0  0.3358914453255509  0.21850553454308405  0.7254558502459217  1.0000
  H   H6        1.0  0.11743220704361335  0.7815520735288005  0.7745513943323915  1.0000
  H   H7        1.0  0.6641082917465442  0.7814955231397821  0.2745441241459972  1.0000
  H   H8        1.0  0.8825675303025522  0.21844898449943173  0.22544912974013437  1.0000
  H   H9        1.0  0.3956506378131479  0.10810498382700474  0.7523560830279764  1.0000
  H   H10       1.0  0.2876166454811938  0.8919693074484486  0.7477099654938469  1.0000
  H   H11       1.0  0.6043499137026488  0.8918938826347118  0.24764460415086384  1.0000
  H   H12       1.0  0.7123825433499961  0.10803065393676552  0.2522892658724345  1.0000
  H   H13       1.0  0.5407498090565711  0.29751387467700857  0.934076968855088  1.0000
  H   H14       1.0  0.24330023998738434  0.7024361563295403  0.565921673173854  1.0000
  H   H15       1.0  0.45924992828959443  0.7024871833512237  0.06592355521744511  1.0000
  H   H16       1.0  0.7566989491178832  0.2975638054010404  0.4340781078730416  1.0000
  H   H17       1.0  0.4131469969930636  0.10682646817370771  0.9116906319669836  1.0000
  H   H18       1.0  0.30637076505556143  0.8931369555985641  0.5882981737571527  1.0000
  H   H19       1.0  0.5868527403531019  0.8931745898545245  0.0883098921055492  1.0000
  H   H20       1.0  0.6936289722906039  0.1068641024296682  0.4117023503153803  1.0000
  H   H21       1.0  0.39017402728264744  0.23727108519853607  0.9864720980874607  1.0000
  H   H22       1.0  0.15292269028636696  0.7627357812620518  0.5135558805932519  1.0000
  H   H23       1.0  0.6098266649781224  0.762729972826044  0.013528426042945798  1.0000
  H   H24       1.0  0.8470770467857209  0.23726527642081416  0.48644409379866715  1.0000
  H   H25       1.0  0.31543176480600016  0.4380797417652077  0.9502781027851128  1.0000
  H   H26       1.0  0.8774960097516171  0.5619804802645803  0.5497100681263303  1.0000
  H   H27       1.0  0.6845689274547695  0.5619213162593724  0.0497224213452938  1.0000
  H   H28       1.0  0.1225031793536502  0.43801948146599307  0.45028971292056497  1.0000
  H   H29       1.0  0.2973658022347934  0.4369413037009481  0.8527066671470678  1.0000
  H   H30       1.0  0.860591197366489  0.5631058990724185  0.647274865973145  1.0000
  H   H31       1.0  0.7026339351113722  0.5630597543272773  0.1472938569254651  1.0000
  H   H32       1.0  0.13940594061643455  0.4368918704118558  0.3527239786452157  1.0000
  H   H33       1.0  0.47268447785081963  0.48864340684303914  0.901997685198985  1.0000
  H   H34       1.0  0.9841866673703594  0.5113818296551217  0.5979960913101081  1.0000
  H   H35       1.0  0.5273162141358798  0.5113576508361747  0.0980022892508075  1.0000
  H   H36       1.0  0.015811973494003144  0.48861703577780013  0.4020029467111499  1.0000
  Au  Au1       1.0  0.063264862841109  0.06051929017682061  0.838876388925442  1.0000
  Au  Au2       1.0  0.0028383401051998115  0.9394849909505754  0.6610845310823307  1.0000
  Au  Au3       1.0  0.9367358294196607  0.9394817678477594  0.16112413520495747  1.0000
  Au  Au4       1.0  0.9971618039146651  0.06051497077635301  0.33891525002243833  1.0000
  C   C1        1.0  0.39688094187653183  0.21270476174773736  0.7720796404326649  1.0000
  C   C2        1.0  0.1842606726281702  0.7873710034831307  0.7279611734780501  1.0000
  C   C3        1.0  0.6031201573320147  0.7872952003208982  0.2279206904105848  1.0000
  C   C4        1.0  0.8157379687843405  0.21262786264051672  0.27203896390443555  1.0000
  C   C5        1.0  0.4248921938005239  0.2161337881961742  0.9294860908721458  1.0000
  C   C6        1.0  0.20882336148331154  0.7838256012545914  0.5705313716279363  1.0000
  C   C7        1.0  0.5751069955788142  0.7838661738797587  0.07051423985536331  1.0000
  C   C8        1.0  0.7911763755887762  0.21617545642827454  0.4294686027639827  1.0000
  C   C9        1.0  0.3532809208924165  0.4161223106814447  0.8943375532607831  1.0000
  C   C10       1.0  0.9373176638148524  0.583918908087334  0.6056548995166864  1.0000
  C   C11       1.0  0.6467188164537491  0.5838787473467806  0.10566297081174982  1.0000
  C   C12       1.0  0.06268152501633747  0.41608105329788  0.39434433184959516  1.0000
  C   C13       1.0  0.8372556405956646  0.921388715975674  0.8236727390011609  1.0000
  C   C14       1.0  0.9158943693682177  0.07856740442909432  0.6762709400848124  1.0000
  C   C15       1.0  0.1627445034242072  0.07861124575125443  0.17632704210360117  1.0000
  C   C16       1.0  0.08410577492571747  0.9214325576432003  0.3237293907005636  1.0000
  C   C17       1.0  0.7414301830588316  0.9772329749890931  0.8362689993519793  1.0000
  C   C18       1.0  0.7642218574952508  0.022681380334532302  0.6637027121169581  1.0000
  C   C19       1.0  0.2585684583536789  0.02276589113455431  0.16373113803050635  1.0000
  C   C20       1.0  0.2357788342173705  0.9773196769993291  0.33629671265221356  1.0000
  C   C21       1.0  0.5889453832069976  0.8894487014310641  0.8242547668628646  1.0000
  C   C22       1.0  0.6994991730327484  0.11044788099922438  0.6757461184119435  1.0000
  C   C23       1.0  0.41105325820550587  0.1105501646925831  0.1757453705196212  1.0000
  C   C24       1.0  0.3005009712611939  0.8895520810730635  0.32425421237343954  1.0000
  C   C25       1.0  0.52651099019635  0.7374194097651242  0.7976993579164642  1.0000
  C   C26       1.0  0.7890307825628257  0.2624858312713627  0.7022959211306342  1.0000
  C   C27       1.0  0.4734891538235146  0.26258055196180413  0.20230042318829788  1.0000
  C   C28       1.0  0.2109684068165124  0.7375141308045772  0.2977044095968751  1.0000
  C   C29       1.0  0.618186869437352  0.6768436479804053  0.7838170312153139  1.0000
  C   C30       1.0  0.9412937825208233  0.32310120192635594  0.7161847926925873  1.0000
  C   C31       1.0  0.3818116312301783  0.32315302658037137  0.21618326921561254  1.0000
  C   C32       1.0  0.058706909739946356  0.6768998560982241  0.2838157314378194  1.0000
  C   C33       1.0  0.7700081952311564  0.769326466670073  0.7969562290873782  1.0000
  C   C34       1.0  0.0006506716865857095  0.23062470177089275  0.7030264036534462  1.0000
  C   C35       1.0  0.22999194906278575  0.23067349540222185  0.20304410169799783  1.0000
  C   C36       1.0  0.9993500200260428  0.7693763555629616  0.29697302111573254  1.0000
  C   C37       1.0  0.9833515174918124  0.1913514687984019  0.0363414668050837  1.0000
  C   C38       1.0  0.7917545873799839  0.8087170885295122  0.4636612834751829  1.0000
  C   C39       1.0  0.01664958199080508  0.8086484936156  0.9636594137187801  1.0000
  C   C40       1.0  0.2082421439292403  0.19128177725606577  0.5363383041109486  1.0000
  C   C41       1.0  0.1068284719995489  0.33006975811592554  0.0607475782191216  1.0000
  C   C42       1.0  0.776589755421938  0.6700153949744134  0.4392644675624808  1.0000
  C   C43       1.0  0.8931718133134441  0.6699323958645924  0.9392531391984278  1.0000
  C   C44       1.0  0.2234084790427958  0.32998456710517143  0.560735863107162  1.0000
  C   C45       1.0  0.09822154958362735  0.45792709455884084  0.08326311392685434  1.0000
  C   C46       1.0  0.6401785001376298  0.5421202657954042  0.4167520665731743  1.0000
  C   C47       1.0  0.9017742270850707  0.5420717715757493  0.9167370232820247  1.0000
  C   C48       1.0  0.3598168693092134  0.45787969594975664  0.5832477142422334  1.0000
  C   C49       1.0  0.960038762172957  0.4472862034951179  0.08101580393466179  1.0000
  C   C50       1.0  0.5126141826336268  0.5527429954074993  0.4190197304418461  1.0000
  C   C51       1.0  0.03995933072457091  0.5527115659855113  0.9189830407415798  1.0000
  C   C52       1.0  0.4873837850801622  0.4472602535001686  0.580979531105278  1.0000
  C   C53       1.0  0.8333564522975296  0.3095920837909958  0.0567354649284724  1.0000
  C   C54       1.0  0.5236001459379482  0.6904321114552732  0.44334650974494855  1.0000
  C   C55       1.0  0.16663958975173912  0.6904034937886935  0.9432629929998484  1.0000
  C   C56       1.0  0.4763976818530793  0.30956894692560877  0.5566545638924579  1.0000
  C   C57       1.0  0.8475624170704139  0.18473572086735862  0.0351821549170523  1.0000
  C   C58       1.0  0.6625884434369241  0.8153207319375043  0.4648577363307068  1.0000
  C   C59       1.0  0.1524385411190822  0.815262049293054  0.964817789294024  1.0000
  C   C60       1.0  0.3374108866873939  0.1846814217013062  0.5351424313483619  1.0000
  F   F1        1.0  0.7956695407399011  0.1251584446932483  0.86137725813915  1.0000
  F   F2        1.0  0.6705858935685853  0.874760474632133  0.6386401115635678  1.0000
  F   F3        1.0  0.20432964918758506  0.87484151807341  0.1386241719495871  1.0000
  F   F4        1.0  0.32941479869219153  0.12524058339244704  0.3613604125668316  1.0000
  F   F5        1.0  0.5004631178556738  0.9494599433331531  0.8378926158437281  1.0000
  F   F6        1.0  0.5509863885703725  0.050428827824326616  0.6621737131001382  1.0000
  F   F7        1.0  0.4995355227346182  0.05053892175440211  0.162105872496916  1.0000
  F   F8        1.0  0.44901265978990784  0.9495689423433761  0.3378262309951907  1.0000
  F   F9        1.0  0.37882229936620604  0.6492926872857155  0.7848407085863441  1.0000
  F   F10       1.0  0.7294747802987447  0.35061992177902823  0.7151442700830727  1.0000
  F   F11       1.0  0.621177703634615  0.3507050825329827  0.21515868588624443  1.0000
  F   F12       1.0  0.2705253639951978  0.6493800402932595  0.28485606070230324  1.0000
  F   F13       1.0  0.5578049521999733  0.5288985916019586  0.7573792201724885  1.0000
  F   F14       1.0  0.02879933930863394  0.47105222570569094  0.7426585763852245  1.0000
  F   F15       1.0  0.4421955990417388  0.4711002745143917  0.24262091732574478  1.0000
  F   F16       1.0  0.9712019009189633  0.5289499282711816  0.2573421410901986  1.0000
  F   F17       1.0  0.8535266730802821  0.7024433928488989  0.7817608147941328  1.0000
  F   F18       1.0  0.15105339324743744  0.29756716890072005  0.718261467753507  1.0000
  F   F19       1.0  0.1464744258541941  0.2975565688743771  0.21823896636850285  1.0000
  F   F20       1.0  0.8489472987392619  0.7024338887785007  0.2817385066962785  1.0000
  F   F21       1.0  0.24457948419413372  0.3454070244568187  0.06331950756857202  1.0000
  F   F22       1.0  0.899024648862401  0.6547045246832469  0.4366988473086195  1.0000
  F   F23       1.0  0.7554209429601287  0.654597322468021  0.9366832455229995  1.0000
  F   F24       1.0  0.1009728960682992  0.34529214884508974  0.5632998040225914  1.0000
  F   F25       1.0  0.22121040804901074  0.5916298657660876  0.1070035419692488  1.0000
  F   F26       1.0  0.6294802374826105  0.40842909526845267  0.39297934404104495  1.0000
  F   F27       1.0  0.778786605846463  0.4083733845266765  0.8929979182424644  1.0000
  F   F28       1.0  0.37051226639819396  0.5915708654515656  0.607018787558914  1.0000
  F   F29       1.0  0.9491513102735354  0.569711687546743  0.10207788586430407  1.0000
  F   F30       1.0  0.37931202191292374  0.4302906107611408  0.3978605259710193  1.0000
  F   F31       1.0  0.05084432565018198  0.4302849870249759  0.8979224143930152  1.0000
  F   F32       1.0  0.6206830810570524  0.5697126381574693  0.602138735402491  1.0000
  F   F33       1.0  0.6994134776627733  0.2990181395461492  0.05376731147082842  1.0000
  F   F34       1.0  0.40021717376452415  0.7009796356024155  0.4462876395658242  1.0000
  F   F35       1.0  0.3005837852298257  0.7009741501657274  0.9462305665960359  1.0000
  F   F36       1.0  0.5997802476268747  0.2990225194251296  0.55371472671996  1.0000
  F   F37       1.0  0.7212999372884356  0.05239829856798651  0.011327851019729  1.0000
  F   F38       1.0  0.6686510079835488  0.9476432610228902  0.48868775771504863  1.0000
  F   F39       1.0  0.2786989697787162  0.9475972793461338  0.9886711567628126  1.0000
  F   F40       1.0  0.3313473669520875  0.05235889227419931  0.5113118602255396  1.0000
