data_image0
_chemical_formula_structural       Zn16H28C96S16Br4O52
_chemical_formula_sum              "Zn16 H28 C96 S16 Br4 O52"
_cell_length_a       19.676034493564185
_cell_length_b       19.684718248286963
_cell_length_c       33.39480420134107
_cell_angle_alpha    79.13109357988202
_cell_angle_beta     79.15719395943167
_cell_angle_gamma    63.92979728924428

_space_group_name_H-M_alt    "P 1"
_space_group_IT_number       1

loop_
  _space_group_symop_operation_xyz
  'x, y, z'

loop_
  _atom_site_type_symbol
  _atom_site_label
  _atom_site_symmetry_multiplicity
  _atom_site_fract_x
  _atom_site_fract_y
  _atom_site_fract_z
  _atom_site_occupancy
  Zn  Zn1       1.0  0.05469333630243512  0.40018633822062816  0.4779421148822394  1.0000
  Zn  Zn2       1.0  0.9842569548443338  0.48328560421114714  0.5609328119095524  1.0000
  Zn  Zn3       1.0  0.05984064358980849  0.5592303610790452  0.4821021364535129  1.0000
  Zn  Zn4       1.0  0.9015258924777998  0.5562229353094708  0.47939315627937173  1.0000
  Zn  Zn5       1.0  0.6941851566560048  0.34912491149707153  0.27195981222418913  1.0000
  Zn  Zn6       1.0  0.689379887583158  0.18921434420867905  0.266297868293556  1.0000
  Zn  Zn7       1.0  0.7679336307230218  0.2679911309211532  0.19061739418892643  1.0000
  Zn  Zn8       1.0  0.8488177951950179  0.19481205344138164  0.27213537620354344  1.0000
  Zn  Zn9       1.0  0.2670452288997539  0.766363111876757  0.6896635610674551  1.0000
  Zn  Zn10      1.0  0.3493210874914823  0.6953259105819853  0.7722077774762824  1.0000
  Zn  Zn11      1.0  0.1933869556461119  0.847900503529509  0.7708822858954607  1.0000
  Zn  Zn12      1.0  0.18980518221022896  0.6889994710082377  0.7667106176369033  1.0000
  Zn  Zn13      1.0  0.5602046315305246  0.06034075432847173  0.9831903404259709  1.0000
  Zn  Zn14      1.0  0.4012276578300416  0.05511100001956489  0.9782768171823621  1.0000
  Zn  Zn15      1.0  0.5551232041707693  0.9012107407493768  0.9782032517387909  1.0000
  Zn  Zn16      1.0  0.483301108649684  0.9835404713098653  0.06039115762416006  1.0000
  H   H1        1.0  0.9544812177804051  0.24894906146159473  0.3516706031227487  1.0000
  H   H2        1.0  0.7470664490231159  0.45341579490563794  0.350073214529978  1.0000
  H   H3        1.0  0.9991553997612215  0.3004300878198904  0.39977939482232483  1.0000
  H   H4        1.0  0.09694656973064751  0.5967539742113244  0.6997028438453942  1.0000
  H   H5        1.0  0.2014298989666656  0.7014883365087953  0.5982597252584938  1.0000
  H   H6        1.0  0.05059128413118691  0.550538008067349  0.6498342276014457  1.0000
  H   H7        1.0  0.28576082652895  0.510240305893987  0.4093013229897411  1.0000
  H   H8        1.0  0.4641535420208244  0.23912791444289644  0.34069737095013863  1.0000
  H   H9        1.0  0.7716275900842434  0.5468959727441315  0.6486876788605829  1.0000
  H   H10       1.0  0.4785730497727771  0.7027756025437669  0.601581298451322  1.0000
  H   H11       1.0  0.047248921724836614  0.271185952467718  0.6485081253474548  1.0000
  H   H12       1.0  0.20313927828239292  0.9783412112738286  0.6014594802496307  1.0000
  H   H13       1.0  0.800821471368046  0.7791221531057249  0.40233106465574064  1.0000
  H   H14       1.0  0.9491421093986788  0.9709249928711896  0.34778067538988494  1.0000
  H   H15       1.0  0.5503361896314517  0.05044075507704793  0.1531402378473672  1.0000
  H   H16       1.0  0.6517705226521997  0.15187994670357352  0.04855154115103488  1.0000
  H   H17       1.0  0.600255299399045  0.10014823134158501  0.19944112190054145  1.0000
  H   H18       1.0  0.7028371885840984  0.4786499725884355  0.10178317854774833  1.0000
  H   H19       1.0  0.5469402798069893  0.7719290119440315  0.1482729209272052  1.0000
  H   H20       1.0  0.08700811701299221  0.10836247216942502  0.21011124473059792  1.0000
  H   H21       1.0  0.16334183148659784  0.14117824791813402  0.04008399579713282  1.0000
  H   H22       1.0  0.5012004139267249  0.7953975855575878  0.8983875795032649  1.0000
  H   H23       1.0  0.29679696431047387  0.0029155265177109907  0.8997756832106136  1.0000
  H   H24       1.0  0.4497191326301647  0.7508065855313364  0.8502812994357926  1.0000
  H   H25       1.0  0.4489719454224287  0.4709467783611885  0.8476909751332543  1.0000
  H   H26       1.0  0.30090357543375035  0.27892218789617823  0.9023174436334289  1.0000
  H   H27       1.0  0.9635936574913588  0.738934310451789  0.8407962864530777  1.0000
  H   H28       1.0  0.7861249638286624  0.010396348017984338  0.9092474493537567  1.0000
  C   C1        1.0  0.0613681897458918  0.3158474651264882  0.5617557134201407  1.0000
  C   C2        1.0  0.06875230092403942  0.5690897614071774  0.5693803247880355  1.0000
  C   C3        1.0  0.18396265387048774  0.4385681664989391  0.43828773089259  1.0000
  C   C4        1.0  0.9380748251919899  0.6842145901824069  0.43850027352903714  1.0000
  C   C5        1.0  0.9315365690369367  0.43019620041678036  0.4308619279940162  1.0000
  C   C6        1.0  0.8162246181821545  0.5615658260424324  0.5619812345964237  1.0000
  C   C7        1.0  0.5656449313351289  0.3111602542968869  0.3113062439231697  1.0000
  C   C8        1.0  0.6807642243736681  0.1807002232114811  0.18113795268268978  1.0000
  C   C9        1.0  0.6889982469513783  0.43452220032817473  0.18858585997787003  1.0000
  C   C10       1.0  0.9347189071772422  0.18882814281296575  0.1890224337475104  1.0000
  C   C11       1.0  0.8195532977639886  0.3194745315688437  0.3193881177787291  1.0000
  C   C12       1.0  0.8119199462054995  0.06585185689929311  0.31144975371153555  1.0000
  C   C13       1.0  0.43394776677083513  0.6889348315155958  0.6883400011559573  1.0000
  C   C14       1.0  0.31975590879282123  0.8184211169005592  0.8191426144012441  1.0000
  C   C15       1.0  0.18864037821867197  0.9335633310853165  0.6881450273459253  1.0000
  C   C16       1.0  0.06530397010623551  0.8106712176940504  0.811161108109623  1.0000
  C   C17       1.0  0.18044892143444002  0.6805228425836418  0.6806010337638713  1.0000
  C   C18       1.0  0.31161865424914487  0.5657367356387154  0.8114070326024747  1.0000
  C   C19       1.0  0.4381567788629326  0.184094976045948  0.9386004171567421  1.0000
  C   C20       1.0  0.43074094064798635  0.9304210333607653  0.9306050211466684  1.0000
  C   C21       1.0  0.6840026124494757  0.9389964120036112  0.9385906286412508  1.0000
  C   C22       1.0  0.5612271253595864  0.8162155387800285  0.06152359842411671  1.0000
  C   C23       1.0  0.5693635386687603  0.06946469971261152  0.06947559958844352  1.0000
  C   C24       1.0  0.3156874377568712  0.061704685421247546  0.06124844244337881  1.0000
  C   C25       1.0  0.8991542897484808  0.4052252617598811  0.4021307519736014  1.0000
  C   C26       1.0  0.8480096148524582  0.3484360937906529  0.3480296105425111  1.0000
  C   C27       1.0  0.8273049855189357  0.4484506335948666  0.38777923812902787  1.0000
  C   C28       1.0  0.9194216643419895  0.30467520786070423  0.3619396160047685  1.0000
  C   C29       1.0  0.8024545601262788  0.41996953444108  0.36102449780685236  1.0000
  C   C30       1.0  0.9439267231888806  0.33324203877151604  0.3885101917900542  1.0000
  C   C31       1.0  0.09929283044679951  0.5995692383128669  0.5962686899334884  1.0000
  C   C32       1.0  0.1519412900864268  0.6519840998817656  0.6517832308236536  1.0000
  C   C33       1.0  0.14239816972750674  0.6426592405079461  0.5818462321669884  1.0000
  C   C34       1.0  0.1093250883765222  0.6092835195287803  0.6666960668832048  1.0000
  C   C35       1.0  0.1682226124309594  0.6683547860717098  0.6094929117086425  1.0000
  C   C36       1.0  0.08378849779684573  0.5838411407678662  0.639083199662345  1.0000
  C   C37       1.0  0.30342758642592577  0.45341728606168624  0.4012139457681558  1.0000
  C   C38       1.0  0.4465727370033933  0.29591543046302604  0.34879904557745084  1.0000
  C   C39       1.0  0.2589549224569438  0.413084479914673  0.4135666432769157  1.0000
  C   C40       1.0  0.49097739995686845  0.3362844842378225  0.336366838313758  1.0000
  C   C41       1.0  0.37834865074086826  0.33838590551200565  0.3724562555795147  1.0000
  C   C42       1.0  0.3717708625550743  0.41084443824091477  0.37767440888303133  1.0000
  C   C43       1.0  0.7264489333644663  0.5759478491478803  0.6289819556871452  1.0000
  C   C44       1.0  0.523735199486218  0.6737098988349078  0.6212936077984069  1.0000
  C   C45       1.0  0.7411763681579445  0.5862822016661371  0.5866213477593548  1.0000
  C   C46       1.0  0.5090136081583909  0.6635295889199354  0.6636706885804886  1.0000
  C   C47       1.0  0.6028344594832334  0.6418674940986907  0.6086020490614957  1.0000
  C   C48       1.0  0.6473618524642434  0.6077196367549503  0.6416586025227604  1.0000
  C   C49       1.0  0.0763339178095919  0.2260311817963441  0.6288239253971284  1.0000
  C   C50       1.0  0.17412909489866024  0.023446492981712197  0.6211757579200425  1.0000
  C   C51       1.0  0.08654842599434433  0.2407807068002086  0.5864474806827574  1.0000
  C   C52       1.0  0.163791827245511  0.008640324815893082  0.6635402270162417  1.0000
  C   C53       1.0  0.14231506414222392  0.10251430580392909  0.6084960384864075  1.0000
  C   C54       1.0  0.10813121767111512  0.14696535872378289  0.6415498616312477  1.0000
  C   C55       1.0  0.8448743018204541  0.7999813018837185  0.39759804305855806  1.0000
  C   C56       1.0  0.9050763646070835  0.950102140213794  0.3524599491373764  1.0000
  C   C57       1.0  0.9136390062507047  0.7589988238418499  0.413593455527071  1.0000
  C   C58       1.0  0.8363552222721824  0.9910585395948316  0.3364126360560676  1.0000
  C   C59       1.0  0.9083591804917222  0.8804924255610729  0.3746835740287864  1.0000
  C   C60       1.0  0.8417259349084746  0.8694740261924282  0.3752830067678021  1.0000
  C   C61       1.0  0.6538965012200678  0.15377539352328978  0.15059610033247853  1.0000
  C   C62       1.0  0.598206515844261  0.09833381981777481  0.09800015161731322  1.0000
  C   C63       1.0  0.6682832917780672  0.16819673130278556  0.10748356103029984  1.0000
  C   C64       1.0  0.5833612532681016  0.0834286621309062  0.1406804459449518  1.0000
  C   C65       1.0  0.6405387710589069  0.14060722475170462  0.0817187579188996  1.0000
  C   C66       1.0  0.6110291238851886  0.11097046238531054  0.1661892377276857  1.0000
  C   C67       1.0  0.6737488693448698  0.5239411350552956  0.1213852486239588  1.0000
  C   C68       1.0  0.575969430662994  0.726686037305825  0.12864328695761174  1.0000
  C   C69       1.0  0.6635370730559133  0.5094678794776473  0.16378169996892925  1.0000
  C   C70       1.0  0.5862271322506772  0.7412289427162192  0.08625615165206574  1.0000
  C   C71       1.0  0.6076812163756459  0.6476705044560731  0.14149431365064666  1.0000
  C   C72       1.0  0.6418213527628397  0.6029703315532229  0.1085309820661423  1.0000
  C   C73       1.0  0.0800933361372458  0.1246241472656564  0.17766481434171066  1.0000
  C   C74       1.0  0.17023058805680344  0.12484371061004407  0.0725309813814974  1.0000
  C   C75       1.0  0.0092233367409449  0.16354475103959487  0.16379742428076585  1.0000
  C   C76       1.0  0.24112385495205055  0.08617530185019005  0.0864157689493226  1.0000
  C   C77       1.0  0.11152560575713721  0.13884066931032632  0.1056793026864753  1.0000
  C   C78       1.0  0.1387344996521591  0.1104415648384744  0.14449776031205636  1.0000
  C   C79       1.0  0.34490730100199585  0.8507871784124462  0.8478305722488529  1.0000
  C   C80       1.0  0.40182034628239194  0.9020063152324552  0.9019149605751341  1.0000
  C   C81       1.0  0.3017495025186038  0.9226566866098763  0.8621223331143781  1.0000
  C   C82       1.0  0.44549357327249345  0.8305553161032293  0.8880773225601646  1.0000
  C   C83       1.0  0.3302740104012544  0.9475411781476166  0.8888491663671377  1.0000
  C   C84       1.0  0.4169037685409408  0.8060437652716529  0.8615033231947679  1.0000
  C   C85       1.0  0.4049568433672023  0.45004561819243355  0.8524091957633929  1.0000
  C   C86       1.0  0.3449408786356117  0.29979329871203225  0.8976123564053896  1.0000
  C   C87       1.0  0.33625193007908655  0.49089609362804504  0.836349468031486  1.0000
  C   C88       1.0  0.41366526385800745  0.2588943941295127  0.9136692433306949  1.0000
  C   C89       1.0  0.34171507709042714  0.36931066574685906  0.8752916629290015  1.0000
  C   C90       1.0  0.40827979304567924  0.38043990154317703  0.8746891216263464  1.0000
  C   C91       1.0  0.9461428780751078  0.795746551534613  0.8488332607397597  1.0000
  C   C92       1.0  0.8035270065033729  0.9535856697243972  0.901222697891818  1.0000
  C   C93       1.0  0.9907265751950907  0.835919020677167  0.8363065641466393  1.0000
  C   C94       1.0  0.7588403270074623  0.9135051922391355  0.9136990665638653  1.0000
  C   C95       1.0  0.8717093326223307  0.9108329661318347  0.8776204353517232  1.0000
  C   C96       1.0  0.8780059929034254  0.8384307827375609  0.872486543069428  1.0000
  S   S1        1.0  0.299787697046618  0.32350344150183474  0.39681379075285866  1.0000
  S   S2        1.0  0.4502955760126213  0.4257584717196039  0.3532631746558934  1.0000
  S   S3        1.0  0.6593763904789399  0.6343689914109805  0.5620021719907414  1.0000
  S   S4        1.0  0.5908400976038595  0.615362706244518  0.6882576578564683  1.0000
  S   S5        1.0  0.1347384524814288  0.1590346339765887  0.56188025491592  1.0000
  S   S6        1.0  0.11562663919492883  0.09038603131245536  0.688150614690102  1.0000
  S   S7        1.0  0.9746104522614233  0.8044496919680174  0.40170515568679127  1.0000
  S   S8        1.0  0.775537715642841  0.9454448668785461  0.3482016064428636  1.0000
  S   S9        1.0  0.6152306662185084  0.5914110422884844  0.18819520676926524  1.0000
  S   S10       1.0  0.6343196335475768  0.6592630774462835  0.06183147831799119  1.0000
  S   S11       1.0  0.0133453156899677  0.1829647404556098  0.110583120037731  1.0000
  S   S12       1.0  0.23691061066178074  0.06659811161799922  0.13962470547537723  1.0000
  S   S13       1.0  0.2754873065017307  0.4452051910245983  0.8481845115596374  1.0000
  S   S14       1.0  0.47448766204907156  0.30452003806728817  0.901803878701749  1.0000
  S   S15       1.0  0.9503381799661738  0.9254514807653538  0.8531120207339885  1.0000
  S   S16       1.0  0.7992998021416541  0.8239008130600851  0.8969407260737796  1.0000
  Br  Br1       1.0  0.7570370705061579  0.5467032783223684  0.40204962187266363  1.0000
  Br  Br2       1.0  0.17045398840949133  0.6707493809668393  0.5255585041776172  1.0000
  Br  Br3       1.0  0.7247178160994211  0.22431693903976682  0.07935520186070022  1.0000
  Br  Br4       1.0  0.20341941365133923  0.9928717819026643  0.8478638450255789  1.0000
  O   O1        1.0  0.0005593333631849996  0.4983163192755884  0.5005863230772009  1.0000
  O   O2        1.0  0.07706561509659342  0.3156986684848987  0.5227708417741754  1.0000
  O   O3        1.0  0.030962586139779105  0.5308328450725313  0.587512891128718  1.0000
  O   O4        1.0  0.15655494836566672  0.505285637444196  0.449237345613355  1.0000
  O   O5        1.0  0.026310642503489103  0.3739890290301346  0.5813458058605436  1.0000
  O   O6        1.0  0.15292312281611234  0.39163743009586943  0.44650402815570095  1.0000
  O   O7        1.0  0.08255289050092782  0.5834357939725907  0.5308256283239957  1.0000
  O   O8        1.0  0.005123917211918201  0.6561178169027002  0.44935131692716385  1.0000
  O   O9        1.0  0.8912049789043126  0.49505174677711516  0.4430822100758078  1.0000
  O   O10       1.0  0.890611871798747  0.6539919638948888  0.4471170015994375  1.0000
  O   O11       1.0  0.9975911655564719  0.3839864054410071  0.440856213972431  1.0000
  O   O12       1.0  0.8746228459564876  0.5259774902215071  0.5813649882285505  1.0000
  O   O13       1.0  0.8158225478048352  0.578366754494695  0.5230326720533115  1.0000
  O   O14       1.0  0.7497280243577649  0.2498091047066639  0.250782267578643  1.0000
  O   O15       1.0  0.5964577142856201  0.35833873615570133  0.3034984783540722  1.0000
  O   O16       1.0  0.6626451723574008  0.1626371900254783  0.21917170378250014  1.0000
  O   O17       1.0  0.725133463839022  0.3763297060049667  0.1690910370060835  1.0000
  O   O18       1.0  0.5928965739017258  0.245077517861958  0.2996098861726538  1.0000
  O   O19       1.0  0.6726746580668107  0.43444469447243966  0.2275712935549734  1.0000
  O   O20       1.0  0.7193153638971455  0.21928033631377974  0.16705816040538227  1.0000
  O   O21       1.0  0.8763641034542007  0.22497075762155555  0.16946746181959332  1.0000
  O   O22       1.0  0.8635000869760817  0.25374042819001363  0.30856545340113684  1.0000
  O   O23       1.0  0.9346944296035388  0.17276039415767044  0.22792145466725344  1.0000
  O   O24       1.0  0.7539451241027848  0.3629066500075594  0.3082483727992057  1.0000
  O   O25       1.0  0.7456603710248544  0.0931256196866458  0.29970355955930483  1.0000
  O   O26       1.0  0.8588876548432438  0.09670295799404026  0.3037497722596996  1.0000
  O   O27       1.0  0.2507367061654833  0.7485805015058555  0.7498760507635186  1.0000
  O   O28       1.0  0.3758116175346943  0.7241861214378602  0.6686994162171517  1.0000
  O   O29       1.0  0.36594936235120923  0.7524063455831609  0.8091353780635304  1.0000
  O   O30       1.0  0.17203672921905883  0.9335331824252502  0.7271143681798196  1.0000
  O   O31       1.0  0.4338796408473088  0.673327450228591  0.7273473718671184  1.0000
  O   O32       1.0  0.22429247682902806  0.875323051098974  0.6686494005366159  1.0000
  O   O33       1.0  0.2547982446705461  0.8586751567653009  0.8069742900666698  1.0000
  O   O34       1.0  0.09599243988006381  0.8579223130014313  0.8030109758559335  1.0000
  O   O35       1.0  0.16383847428512874  0.6640690875865828  0.7189039566512251  1.0000
  O   O36       1.0  0.09274682629408203  0.7443678424925436  0.7996916664424775  1.0000
  O   O37       1.0  0.21883646976131393  0.71888646933035  0.664404650179087  1.0000
  O   O38       1.0  0.3582038613972714  0.596959409364885  0.8036587692194885  1.0000
  O   O39       1.0  0.24525746839715626  0.5926505290154652  0.7997699493055068  1.0000
  O   O40       1.0  0.499970017623099  0.9999576654348488  7.13821530383316e-05  1.0000
  O   O41       1.0  0.5045564562218062  0.15682575227277337  0.9502072493271143  1.0000
  O   O42       1.0  0.38722677563215774  0.9960498283811886  0.9417036308993048  1.0000
  O   O43       1.0  0.6527837763140882  0.8921974789644197  0.9463916274184785  1.0000
  O   O44       1.0  0.39129333867187915  0.15314289512211593  0.9464431954817911  1.0000
  O   O45       1.0  0.6569252273025443  0.005191930625187499  0.9501585950567065  1.0000
  O   O46       1.0  0.49645295902137593  0.8866072110644939  0.9415093484832797  1.0000
  O   O47       1.0  0.5767936459673068  0.8161008875037864  0.02252196588906945  1.0000
  O   O48       1.0  0.5310834739394111  0.031139253442368786  0.08603109191290063  1.0000
  O   O49       1.0  0.5263825359859525  0.8744904619243737  0.08103388593706745  1.0000
  O   O50       1.0  0.585504499867831  0.08556277917517713  0.03108106072203038  1.0000
  O   O51       1.0  0.31547232633550243  0.07750144044939593  0.02234824504572691  1.0000
  O   O52       1.0  0.3741771228594857  0.026666804847096236  0.0807739015459532  1.0000
