data_image0
_chemical_formula_structural       Zr6H24C50Br5ClO32
_chemical_formula_sum              "Zr6 H24 C50 Br5 Cl1 O32"
_cell_length_a       14.786204841582915
_cell_length_b       14.772835806603888
_cell_length_c       14.829855696256768
_cell_angle_alpha    60.21995811296682
_cell_angle_beta     59.77794240967992
_cell_angle_gamma    60.18705255221272

_space_group_name_H-M_alt    "P 1"
_space_group_IT_number       1

loop_
  _space_group_symop_operation_xyz
  'x, y, z'

loop_
  _atom_site_type_symbol
  _atom_site_label
  _atom_site_symmetry_multiplicity
  _atom_site_fract_x
  _atom_site_fract_y
  _atom_site_fract_z
  _atom_site_occupancy
  Zr  Zr1       1.0  0.8762118780115035  0.8847672170144495  0.6153235589280754  1.0000
  Zr  Zr2       1.0  0.12016607497451301  0.11895004680350497  0.3807080576562072  1.0000
  Zr  Zr3       1.0  0.11421419884736396  0.8811910197513128  0.6191064608677906  1.0000
  Zr  Zr4       1.0  0.8805310298259031  0.1228967325375975  0.3767982477154206  1.0000
  Zr  Zr5       1.0  0.11772036219436907  0.8833256669845895  0.37705064937125604  1.0000
  Zr  Zr6       1.0  0.8779580471098  0.12322127046222399  0.6163160968000909  1.0000
  H   H1        1.0  0.08853245391911464  0.7206592128410989  0.5914294317277609  1.0000
  H   H2        1.0  0.09701513993746153  0.0952208727712076  0.21576351635025762  1.0000
  H   H3        1.0  0.09168188740160593  0.09329183231759697  0.5946609946949978  1.0000
  H   H4        1.0  0.7148368483610952  0.09902428585925793  0.590062099989467  1.0000
  H   H5        1.0  0.835545692699924  0.6020076518780468  0.621593876630392  1.0000
  H   H6        1.0  0.16101847900358018  0.5733012450843232  0.3761627518320054  1.0000
  H   H7        1.0  0.8465199473805994  0.4282549109596447  0.6181596939583472  1.0000
  H   H8        1.0  0.5741085788863459  0.8622554535345655  0.9123541174705566  1.0000
  H   H9        1.0  0.6165617090932615  0.11842183893246269  0.9321409664270986  1.0000
  H   H10       1.0  0.40782920497684216  0.8657879415905185  0.08626484513635545  1.0000
  H   H11       1.0  0.13814715912953096  0.8525848279762017  0.0804960573997917  1.0000
  H   H12       1.0  0.8491832106200476  0.1424993266288298  0.09416647378310464  1.0000
  H   H13       1.0  0.12807694782514295  0.8603640831493208  0.9126447256580763  1.0000
  H   H14       1.0  0.5857819290258348  0.43346335321380985  0.6324862764803216  1.0000
  H   H15       1.0  0.5934886125000888  0.41440764527353485  0.3489058396428888  1.0000
  H   H16       1.0  0.4151384061218979  0.60105597141564  0.6256204200130995  1.0000
  H   H17       1.0  0.13323914830917988  0.599518550433146  0.9110165782999572  1.0000
  H   H18       1.0  0.7351138990452954  0.6202198958561311  0.9720243911892725  1.0000
  H   H19       1.0  0.8220199532041051  0.5356108190327332  0.8858557499002372  1.0000
  H   H20       1.0  0.832810736728369  0.3656948807616232  0.054608973197353854  1.0000
  H   H21       1.0  0.7457423440654977  0.45027149963228646  0.14065956283180725  1.0000
  H   H22       1.0  0.5823395320567927  0.14073999393162503  0.3474481949490809  1.0000
  H   H23       1.0  0.5946816644391646  0.8531697895604892  0.6374155478322052  1.0000
  H   H24       1.0  0.4125379014240735  0.12937913689516725  0.3591029415011704  1.0000
  C   C1        1.0  0.9928401409231428  0.7031252365195187  0.49414984636990067  1.0000
  C   C2        1.0  0.3112644846411711  0.9961424657741633  0.2025704348831923  1.0000
  C   C3        1.0  0.00281389482307765  0.30473250423609227  0.4962948722124382  1.0000
  C   C4        1.0  0.69798849969262  0.9978241908618912  0.8044020159104692  1.0000
  C   C5        1.0  0.9883695406875785  0.703485492744058  0.8042197030776351  1.0000
  C   C6        1.0  0.697938877398528  0.0013607790165651354  0.490972223219977  1.0000
  C   C7        1.0  0.9993300171776129  0.30766239816018975  0.19903503606312975  1.0000
  C   C8        1.0  0.30514071743105825  0.9903504210194002  0.5020234646554301  1.0000
  C   C9        1.0  0.30360346572069846  0.7009224084318432  0.4912292887155231  1.0000
  C   C10       1.0  0.9877177446198289  0.001425159501181405  0.8068594040996474  1.0000
  C   C11       1.0  0.7002027034369718  0.31232502326792394  0.49256357585790783  1.0000
  C   C12       1.0  0.9973559235526608  0.9981424441461327  0.19613768192313336  1.0000
  C   C13       1.0  0.008249286730141102  0.4035215724362047  0.49568096726223126  1.0000
  C   C14       1.0  0.9968258028471693  0.5990003042243546  0.4965778367314543  1.0000
  C   C15       1.0  0.09871324743549789  0.4437849904373295  0.42894804794351415  1.0000
  C   C16       1.0  0.9082514485102422  0.5577106235511592  0.5672183613732004  1.0000
  C   C17       1.0  0.09188395526134469  0.5414791602625969  0.4285772144778122  1.0000
  C   C18       1.0  0.9145701712242627  0.4617223176601897  0.5654492068398227  1.0000
  C   C19       1.0  0.41694651026635654  0.9946545999128844  0.10584559496393108  1.0000
  C   C20       1.0  0.6030488588371913  0.9924275376293891  0.9109688384400769  1.0000
  C   C21       1.0  0.4783913934947677  0.06463030680004772  0.06287268964696577  1.0000
  C   C22       1.0  0.5464122768951398  0.9187233186764346  0.954955524691968  1.0000
  C   C23       1.0  0.5699684458879516  0.06361530875904708  0.965981136977284  1.0000
  C   C24       1.0  0.45472442549998976  0.9207913418304939  0.05086831490417149  1.0000
  C   C25       1.0  0.9839785667787667  0.0045288528980407545  0.908414219037532  1.0000
  C   C26       1.0  0.9940074614837189  0.9977833050547956  0.09706731640090993  1.0000
  C   C27       1.0  0.9048138685618953  0.0847011601526972  0.9608408183650995  1.0000
  C   C28       1.0  0.07314556696308466  0.9172583396462385  0.04655452077473391  1.0000
  C   C29       1.0  0.9103119409846557  0.08070991950228998  0.0539337932922237  1.0000
  C   C30       1.0  0.0672802650542723  0.9215466069101338  0.9538976310440148  1.0000
  C   C31       1.0  0.4072267206675448  0.6021495976013611  0.48505702838673403  1.0000
  C   C32       1.0  0.5999067683102625  0.41408221209224644  0.49052152582805764  1.0000
  C   C33       1.0  0.45917039989544856  0.5486971997421507  0.4060210639201714  1.0000
  C   C34       1.0  0.5500869251680028  0.4663358427800405  0.5692058017153698  1.0000
  C   C35       1.0  0.554240732288193  0.45593998083049303  0.40929450474219203  1.0000
  C   C36       1.0  0.45552041690943684  0.5587696994281756  0.5655316226870823  1.0000
  C   C37       1.0  0.9884438347007246  0.6042991753990848  0.9052225673343912  1.0000
  C   C38       1.0  0.9990764570336877  0.4090698272027211  0.0998290797194059  1.0000
  C   C39       1.0  0.911394185022459  0.5497808435523127  0.9590642437447271  1.0000
  C   C40       1.0  0.07731280591950446  0.4655121451373248  0.04443060581525769  1.0000
  C   C41       1.0  0.9175034844189938  0.455798662300502  0.05262563556721027  1.0000
  C   C42       1.0  0.07134897739202015  0.559484450541703  0.9506396016999118  1.0000
  C   C43       1.0  0.8098303097537779  0.5484746903006582  0.9586333415655162  1.0000
  C   C44       1.0  0.81652800125633  0.44193339967610973  0.06449215831004541  1.0000
  C   C45       1.0  0.4076199033338523  0.9864920968058756  0.5034644332274425  1.0000
  C   C46       1.0  0.5982452497244638  0.9972844857212023  0.4923355521057573  1.0000
  C   C47       1.0  0.46024814577648926  0.9077242896076712  0.5823886291563908  1.0000
  C   C48       1.0  0.5477110292631622  0.07587121124493025  0.41285906747181417  1.0000
  C   C49       1.0  0.5543862104539486  0.9136036313614397  0.5763405779013553  1.0000
  C   C50       1.0  0.453962571600492  0.06956450216763693  0.4194001250886217  1.0000
  Br  Br1       1.0  0.23817616304335593  0.3717892477714386  0.33851164645219717  1.0000
  Br  Br2       1.0  0.4484183303455964  0.164675692555825  0.12756360275505335  1.0000
  Br  Br3       1.0  0.7844009233625471  0.20463456333844482  0.9155132736744279  1.0000
  Br  Br4       1.0  0.40949428500753277  0.5910495487930163  0.2898040928162828  1.0000
  Br  Br5       1.0  0.41276360673150214  0.7881785263459308  0.7033384353339684  1.0000
  Cl  Cl1       1.0  0.18554342779092536  0.423895599639792  0.08701741064842142  1.0000
  O   O1        1.0  0.914462308877212  0.7428160530237022  0.5704625093185386  1.0000
  O   O2        1.0  0.26743056015808964  0.0734503450721249  0.24248347062966502  1.0000
  O   O3        1.0  0.07773063063145703  0.26327182897292534  0.420505350750993  1.0000
  O   O4        1.0  0.7333693824832324  0.9240351006657124  0.762292380019808  1.0000
  O   O5        1.0  0.06606009319235533  0.7428270036701363  0.7636948916880186  1.0000
  O   O6        1.0  0.7357610846150919  0.07951204449305041  0.41522409827378237  1.0000
  O   O7        1.0  0.9223299821675823  0.26857069314671383  0.2352462452194005  1.0000
  O   O8        1.0  0.26119249763110736  0.9164468216356172  0.577722840293589  1.0000
  O   O9        1.0  0.2615890226949561  0.7425521732317435  0.4165904332791826  1.0000
  O   O10       1.0  0.9145514217468572  0.07796016182744143  0.7634646362166894  1.0000
  O   O11       1.0  0.737592238867002  0.27320919567726054  0.5703692443980657  1.0000
  O   O12       1.0  0.07593201589988041  0.9226579997171385  0.23266177171384328  1.0000
  O   O13       1.0  0.06515334931420114  0.9232990616742783  0.769540849442336  1.0000
  O   O14       1.0  0.7396319681789125  0.27119587977965404  0.41699760201469627  1.0000
  O   O15       1.0  0.9217563581909475  0.07535329338501379  0.23573237200756847  1.0000
  O   O16       1.0  0.26360544377753575  0.7358533079987382  0.5714778554855043  1.0000
  O   O17       1.0  0.91271810829015  0.7409885669179063  0.7644411160698683  1.0000
  O   O18       1.0  0.2676904811352898  0.06886293691930236  0.42547239890485855  1.0000
  O   O19       1.0  0.07457386371334003  0.26562132333788196  0.2403039835607785  1.0000
  O   O20       1.0  0.7366134062098341  0.926108717786441  0.5680839791371851  1.0000
  O   O21       1.0  0.7351784421476495  0.07694795234247936  0.7626706015049648  1.0000
  O   O22       1.0  0.06929706950312903  0.7433160533284776  0.4169830116137021  1.0000
  O   O23       1.0  0.2700170400611909  0.922071369345332  0.2363059852607706  1.0000
  O   O24       1.0  0.9228005435840315  0.26912062810310283  0.5723436950054861  1.0000
  O   O25       1.0  0.7951906898092531  0.07228132404168254  0.5630544702315561  1.0000
  O   O26       1.0  0.06473181160426113  0.06733608559209604  0.5673025653684577  1.0000
  O   O27       1.0  0.06827852530542335  0.06837672945290758  0.29583130147296544  1.0000
  O   O28       1.0  0.062222514902451495  0.8007350732278768  0.5646133095111168  1.0000
  O   O29       1.0  0.1464627672720694  0.9506338280639641  0.44990846454651745  1.0000
  O   O30       1.0  0.9481969049635238  0.9539999015551642  0.44653515060095816  1.0000
  O   O31       1.0  0.9499597495934256  0.15060642389000375  0.4482438074778087  1.0000
  O   O32       1.0  0.9454504590543849  0.9536481058532402  0.6463907697472138  1.0000
