data_image0
_chemical_formula_structural       Zn4H56C88N4O16
_chemical_formula_sum              "Zn4 H56 C88 N4 O16"
_cell_length_a       13.182259873740637
_cell_length_b       13.201170382257283
_cell_length_c       15.609181581983394
_cell_angle_alpha    82.50303937868736
_cell_angle_beta     68.13999065205367
_cell_angle_gamma    83.959804081599

_space_group_name_H-M_alt    "P 1"
_space_group_IT_number       1

loop_
  _space_group_symop_operation_xyz
  'x, y, z'

loop_
  _atom_site_type_symbol
  _atom_site_label
  _atom_site_symmetry_multiplicity
  _atom_site_fract_x
  _atom_site_fract_y
  _atom_site_fract_z
  _atom_site_occupancy
  Zn  Zn1       1.0  0.9238655781561246  0.7007761104731999  0.8286145322907715  1.0000
  Zn  Zn2       1.0  0.032890564496000266  0.6982689358731877  0.6298372380235121  1.0000
  Zn  Zn3       1.0  0.07613466868335186  0.29922357797073573  0.17138628224874705  1.0000
  Zn  Zn4       1.0  0.9671105009485074  0.30173075361717144  0.37016267936950004  1.0000
  H   H1        1.0  0.7136029279685866  0.7801889978127792  0.9867978849618236  1.0000
  H   H2        1.0  0.6266629683644707  0.733596014086018  0.15675818248181628  1.0000
  H   H3        1.0  0.9084629787710339  0.5248253195341377  0.13753445054176436  1.0000
  H   H4        1.0  0.9871972795656416  0.5872904060714036  0.9697505470504877  1.0000
  H   H5        1.0  0.7681460897797546  0.5338043029834552  0.2861473445809679  1.0000
  H   H6        1.0  0.5463733215148351  0.6337665579756476  0.28481319921301196  1.0000
  H   H7        1.0  0.3915132079257403  0.6039323221220274  0.41655478654875094  1.0000
  H   H8        1.0  0.702528622552556  0.47197957045101196  0.42466214147233927  1.0000
  H   H9        1.0  0.17739612889383932  0.8303783011259683  0.4680487456375105  1.0000
  H   H10       1.0  0.30688300772865057  0.8071804142132563  0.3061341249846663  1.0000
  H   H11       1.0  0.20180451077929715  0.4983151989760444  0.34870647946495126  1.0000
  H   H12       1.0  0.07921622236626995  0.5350714821376813  0.5071270045701651  1.0000
  H   H13       1.0  0.40796996170837446  0.6870331182910475  0.18921501724111783  1.0000
  H   H14       1.0  0.26940635925341627  0.5085148153311465  0.19968198590237307  1.0000
  H   H15       1.0  0.551476138503119  0.6131478596090435  0.09038079466977679  1.0000
  H   H16       1.0  0.3126372080120061  0.4364040777422388  0.05875967942746742  1.0000
  H   H17       1.0  0.9122810975300051  0.019616441547412905  0.8411546805062218  1.0000
  H   H18       1.0  0.09562342265972028  0.21086387487005  0.5319723606565387  1.0000
  H   H19       1.0  0.07580713690879998  0.023889272225588305  0.5456817974561758  1.0000
  H   H20       1.0  0.874401506836051  0.18253629079583084  0.9157684706677353  1.0000
  H   H21       1.0  0.8870078361467646  0.37152011018058323  0.9011891385618749  1.0000
  H   H22       1.0  0.0656345784925421  0.37218454343257434  0.6079225026108687  1.0000
  H   H23       1.0  0.7447993195521003  0.7103284677274858  0.5547346116860012  1.0000
  H   H24       1.0  0.5632020987247511  0.7090252991601815  0.5404131064493569  1.0000
  H   H25       1.0  0.5907214580788317  0.7001143142176857  0.8513407546117403  1.0000
  H   H26       1.0  0.3602257897859571  0.705419993335852  0.6153859240804849  1.0000
  H   H27       1.0  0.2082283675826772  0.6765365675708567  0.9124806028491931  1.0000
  H   H28       1.0  0.3897851996397675  0.6824243482334468  0.9268804440868975  1.0000
  H   H29       1.0  0.2863971710622478  0.2198129870949828  0.013202727979631798  1.0000
  H   H30       1.0  0.3733373289137701  0.26640291099050023  0.843242058010098  1.0000
  H   H31       1.0  0.09153732084563157  0.47517360978342543  0.8624645074562592  1.0000
  H   H32       1.0  0.012803638070231186  0.4127115798827817  0.030249168744468577  1.0000
  H   H33       1.0  0.23185094009363633  0.4661946306305041  0.7138526370152718  1.0000
  H   H34       1.0  0.453624427255292  0.3662339055400993  0.7151863920849734  1.0000
  H   H35       1.0  0.608485456819288  0.3960666093437341  0.5834446832483805  1.0000
  H   H36       1.0  0.29746912387913216  0.52802088882369  0.5753387323195439  1.0000
  H   H37       1.0  0.8226040686760923  0.16962215280591408  0.5319520017026489  1.0000
  H   H38       1.0  0.6931180084463121  0.19282004076504222  0.6938657252090009  1.0000
  H   H39       1.0  0.798195738398604  0.5016844937089432  0.6512930525806624  1.0000
  H   H40       1.0  0.9207831601062747  0.4649289771093451  0.49287271617565415  1.0000
  H   H41       1.0  0.5920318719024064  0.31296733561315193  0.8107845770529918  1.0000
  H   H42       1.0  0.7305912382004247  0.49148793828685206  0.8003193275383964  1.0000
  H   H43       1.0  0.4485215586590241  0.38685336515359847  0.9096200119227476  1.0000
  H   H44       1.0  0.6873614039558332  0.5635956128499018  0.9412416469111591  1.0000
  H   H45       1.0  0.08771924784856813  0.9803817159206434  0.1588462684319935  1.0000
  H   H46       1.0  0.9043775958536668  0.7891365843492938  0.46802620704323045  1.0000
  H   H47       1.0  0.9241939813128893  0.9761096581383981  0.45431626339534137  1.0000
  H   H48       1.0  0.12559874234185023  0.8174634018891498  0.08423106137788486  1.0000
  H   H49       1.0  0.11299154749499243  0.6284803511869587  0.09880994093700216  1.0000
  H   H50       1.0  0.9343664892903899  0.6278151502988295  0.39207613228825267  1.0000
  H   H51       1.0  0.25520164618409763  0.2896727506182373  0.44526581255525605  1.0000
  H   H52       1.0  0.43679881891112143  0.2909766867940036  0.4595866093455995  1.0000
  H   H53       1.0  0.40927883803018955  0.29988460873831013  0.14866012712712257  1.0000
  H   H54       1.0  0.6397751301883402  0.2945819968593781  0.3846125092205811  1.0000
  H   H55       1.0  0.7917727975701322  0.3234615930641454  0.08751880769558079  1.0000
  H   H56       1.0  0.6102151961775558  0.3175730458671921  0.07311993080372765  1.0000
  C   C1        1.0  0.7539968302534984  0.72417463999588  0.023410426669954704  1.0000
  C   C2        1.0  0.7053176152978009  0.6962885427690114  0.11788365762088653  1.0000
  C   C3        1.0  0.7578922683226493  0.6208158797438589  0.16254575399536  1.0000
  C   C4        1.0  0.8623511393938015  0.5821455806307725  0.10746196702250893  1.0000
  C   C5        1.0  0.9063152389485577  0.6152456962061095  0.013937890075574416  1.0000
  C   C6        1.0  0.7110086552813326  0.5802692769016532  0.25908212772112904  1.0000
  C   C7        1.0  0.6037366301313508  0.5904528719590516  0.31367647705746293  1.0000
  C   C8        1.0  0.4391319683813463  0.5582574830419489  0.4534612052892582  1.0000
  C   C9        1.0  0.5538260522256235  0.5447636587196173  0.40821418986843117  1.0000
  C   C10       1.0  0.6139728918454634  0.48524321566058154  0.4570913862347865  1.0000
  C   C11       1.0  0.18588043348189123  0.7586050324251803  0.4377436758626772  1.0000
  C   C12       1.0  0.25736112527081184  0.744772593714103  0.3481979192137458  1.0000
  C   C13       1.0  0.26560216570260303  0.650618218568596  0.3119712756819481  1.0000
  C   C14       1.0  0.19864648731085305  0.5739688082425191  0.37052826342313233  1.0000
  C   C15       1.0  0.12987775101204582  0.593425809297493  0.4590890324671974  1.0000
  C   C16       1.0  0.3434385462998363  0.633050514892908  0.22016547631372418  1.0000
  C   C17       1.0  0.33972733446272213  0.556104256849686  0.172117930334835  1.0000
  C   C18       1.0  0.5279768754164917  0.5648323895951819  0.05024572779637989  1.0000
  C   C19       1.0  0.42130567945243036  0.5299642464719199  0.08445845598725298  1.0000
  C   C20       1.0  0.39498362520571095  0.464007173875011  0.03255681386591648  1.0000
  C   C21       1.0  0.9852990652549989  0.8974165785807103  0.7036399579115481  1.0000
  C   C22       1.0  0.9936928805026137  0.011034217259229701  0.6951805656638471  1.0000
  C   C23       1.0  0.951877774300186  0.06255938099934612  0.7740886625365705  1.0000
  C   C24       1.0  0.9602950140433176  0.1692067797956724  0.7687827105610552  1.0000
  C   C25       1.0  0.01525833923540889  0.223503778713642  0.679948908418126  1.0000
  C   C26       1.0  0.056783577752597084  0.16905268769700402  0.5998586174719307  1.0000
  C   C27       1.0  0.04553726572694928  0.06548834240530971  0.60709265627478  1.0000
  C   C28       1.0  0.9156234048750278  0.22429205833672228  0.8483702824072165  1.0000
  C   C29       1.0  0.922958043706856  0.3284459090280691  0.8408062823885911  1.0000
  C   C30       1.0  0.9774021849584993  0.38250901619088046  0.7531887369751756  1.0000
  C   C31       1.0  0.023761597397935867  0.3301011458143962  0.6749026628564392  1.0000
  C   C32       1.0  0.9807734728814449  0.49655891828620463  0.7448598931823296  1.0000
  C   C33       1.0  0.7870386212813539  0.7057646698054043  0.7136781415973629  1.0000
  C   C34       1.0  0.677731849327486  0.7060208493595468  0.7046617883624575  1.0000
  C   C35       1.0  0.670000344686343  0.7078053008235088  0.6160628461526017  1.0000
  C   C36       1.0  0.5694584795241507  0.7069407163814108  0.608395685199241  1.0000
  C   C37       1.0  0.4721041017610969  0.7017559821616292  0.6886225336235724  1.0000
  C   C38       1.0  0.47981630092132116  0.6973495000932178  0.7783491693684396  1.0000
  C   C39       1.0  0.5838172056307581  0.7016940554392905  0.7837706176247752  1.0000
  C   C40       1.0  0.36781660583638137  0.7001741096253441  0.683024659893938  1.0000
  C   C41       1.0  0.2745989055972941  0.6914452547169393  0.7623788578106953  1.0000
  C   C42       1.0  0.28280782150850553  0.684294475053079  0.8512018945791552  1.0000
  C   C43       1.0  0.3830149483554733  0.6878410966040323  0.8588189189737888  1.0000
  C   C44       1.0  0.1654903906756572  0.6900937277444328  0.7534912525342675  1.0000
  C   C45       1.0  0.2460025006110697  0.2758265804980412  0.9765905093704107  1.0000
  C   C46       1.0  0.2946810494472273  0.30371038869675715  0.882115812176245  1.0000
  C   C47       1.0  0.24210644452271868  0.3791822841134406  0.8374544242480724  1.0000
  C   C48       1.0  0.13764661054553778  0.4178548850054897  0.8925369830285277  1.0000
  C   C49       1.0  0.09368409308522266  0.38475552640833405  0.986062404717842  1.0000
  C   C50       1.0  0.28898842386161033  0.4197288912243666  0.7409179210744624  1.0000
  C   C51       1.0  0.3962604490115921  0.409545296166968  0.6863235717381356  1.0000
  C   C52       1.0  0.5608642933257781  0.4417406861581697  0.5465390994058906  1.0000
  C   C53       1.0  0.4461709788169867  0.4552352770148644  0.5917851504808667  1.0000
  C   C54       1.0  0.3860241368587152  0.5147557158328555  0.542909236608402  1.0000
  C   C55       1.0  0.8141205838622834  0.24139542467364813  0.5622555330840342  1.0000
  C   C56       1.0  0.7426407541018702  0.2552270883405967  0.6518036660205552  1.0000
  C   C57       1.0  0.7343996667389587  0.34938223321508843  0.6880289598591034  1.0000
  C   C58       1.0  0.8013545781336545  0.42603088124783994  0.6294716539698796  1.0000
  C   C59       1.0  0.8701232651629096  0.4065746456808128  0.5409108177264627  1.0000
  C   C60       1.0  0.6565632849725129  0.36694993477024707  0.7798354004742764  1.0000
  C   C61       1.0  0.6602728631072023  0.4438961970821964  0.8278828170053315  1.0000
  C   C62       1.0  0.47202337259219695  0.43516730096927614  0.9497544454961897  1.0000
  C   C63       1.0  0.5786930310545058  0.4700339131443344  0.915543004750077  1.0000
  C   C64       1.0  0.6050158522982796  0.5359917480345616  0.9674449650194532  1.0000
  C   C65       1.0  0.014701183922909394  0.10258311410427011  0.2963595741340724  1.0000
  C   C66       1.0  0.006306500800711483  0.988966239867267  0.30481979632892114  1.0000
  C   C67       1.0  0.04812400887183085  0.9374418362722781  0.22591150580512925  1.0000
  C   C68       1.0  0.03970590476176026  0.8307952082790352  0.2312163639869524  1.0000
  C   C69       1.0  0.9847419087732872  0.776495911850816  0.3200512648744437  1.0000
  C   C70       1.0  0.9432183051277286  0.830947000719263  0.4001410440215239  1.0000
  C   C71       1.0  0.9544629834509522  0.9345113502796707  0.3929068757708406  1.0000
  C   C72       1.0  0.08437679620254805  0.7757084019567204  0.1516285411921032  1.0000
  C   C73       1.0  0.07704220780947679  0.6715537878979632  0.15919196716313166  1.0000
  C   C74       1.0  0.022598016119069073  0.6174914441025692  0.24681008662414422  1.0000
  C   C75       1.0  0.9762394692157838  0.6698985457964923  0.3250966132896236  1.0000
  C   C76       1.0  0.019227494023965577  0.5034423021800408  0.2551398898119784  1.0000
  C   C77       1.0  0.21296152584981334  0.29423654749389533  0.2863231797903936  1.0000
  C   C78       1.0  0.32226748270629446  0.29398037325489673  0.29533850643095855  1.0000
  C   C79       1.0  0.3300006198806499  0.2921959154016918  0.38393821933559735  1.0000
  C   C80       1.0  0.4305425354815922  0.29305973647637273  0.3916048062413679  1.0000
  C   C81       1.0  0.5278960993164785  0.2982444781318137  0.31137628997574746  1.0000
  C   C82       1.0  0.520184714084422  0.30265095276456583  0.22165132207216937  1.0000
  C   C83       1.0  0.41618299193917346  0.298306398492592  0.2162301297153917  1.0000
  C   C84       1.0  0.6321827261973991  0.2998271129890996  0.316975634899478  1.0000
  C   C85       1.0  0.7253980233985825  0.30855520563186195  0.2376222718807384  1.0000
  C   C86       1.0  0.7171916102335841  0.3157052187060005  0.14879789336601593  1.0000
  C   C87       1.0  0.6169845314869418  0.3121578295465851  0.14118157741768295  1.0000
  C   C88       1.0  0.8345106759380624  0.3099059638664556  0.24650802361179544  1.0000
  N   N1        1.0  0.8528011719944782  0.6837426020113285  0.9711877793274366  1.0000
  N   N2        1.0  0.12323182026420906  0.6839245920133906  0.4929395886101702  1.0000
  N   N3        1.0  0.1471997456413873  0.3162593839428567  0.0288119364675197  1.0000
  N   N4        1.0  0.8767683796441472  0.31607586615953664  0.5070598762360915  1.0000
  O   O1        1.0  0.9460528189151626  0.852565438478429  0.7854526299381702  1.0000
  O   O2        1.0  0.01883414428417039  0.8544497036682159  0.6285056734272984  1.0000
  O   O3        1.0  0.9312961401012597  0.5415572586602054  0.818144683518774  1.0000
  O   O4        1.0  0.03227582664250406  0.5406839608660763  0.6647394973341817  1.0000
  O   O5        1.0  0.7869744917912979  0.7125114818295946  0.7944550955023144  1.0000
  O   O6        1.0  0.8718328727124313  0.6964498036568046  0.6402923601893846  1.0000
  O   O7        1.0  0.08169526345911744  0.6811226761184701  0.8283598787140106  1.0000
  O   O8        1.0  0.16445043813791205  0.6976243758271966  0.6717194399094025  1.0000
  O   O9        1.0  0.053949015864823466  0.14743501754629312  0.21454632310899058  1.0000
  O   O10       1.0  0.9811652886271314  0.14554999221139298  0.37149347327092386  1.0000
  O   O11       1.0  0.06870492534324767  0.45844243083016084  0.18185523387423785  1.0000
  O   O12       1.0  0.9677274905236284  0.4593187809921844  0.3352613073036038  1.0000
  O   O13       1.0  0.21302498688190488  0.2874874422005079  0.20554604213610617  1.0000
  O   O14       1.0  0.12816727558794835  0.3035514157630175  0.3597083199514231  1.0000
  O   O15       1.0  0.9183041694521844  0.318877019761132  0.1716392679842187  1.0000
  O   O16       1.0  0.83555077511523  0.30237301719934356  0.328280679081665  1.0000
