data_image0
_chemical_formula_structural       Zn2H14C36I6N4O12
_chemical_formula_sum              "Zn2 H14 C36 I6 N4 O12"
_cell_length_a       9.947118987408363
_cell_length_b       11.222193583366861
_cell_length_c       23.686742923044676
_cell_angle_alpha    91.58353209434286
_cell_angle_beta     89.10149190960973
_cell_angle_gamma    90.01970497304268

_space_group_name_H-M_alt    "P 1"
_space_group_IT_number       1

loop_
  _space_group_symop_operation_xyz
  'x, y, z'

loop_
  _atom_site_type_symbol
  _atom_site_label
  _atom_site_symmetry_multiplicity
  _atom_site_fract_x
  _atom_site_fract_y
  _atom_site_fract_z
  _atom_site_occupancy
  Zn  Zn1       1.0  0.635897329945152  0.4934443008511451  0.4999236192269905  1.0000
  Zn  Zn2       1.0  0.3570348060655776  0.5130048928334927  0.503239739614628  1.0000
  H   H1        1.0  0.7200166115183323  0.4941460526729032  0.6803932595048395  1.0000
  H   H2        1.0  0.3315086806874064  0.892087699269709  0.5398882581523026  1.0000
  H   H3        1.0  0.4955790925137934  0.7937100531639629  0.05382183655112271  1.0000
  H   H4        1.0  0.09844994375844611  0.5895064717627249  0.5139386988689267  1.0000
  H   H5        1.0  0.27772910052681965  0.5131304806600879  0.21588705053464  1.0000
  H   H6        1.0  0.49510640347642015  0.7861370047637661  0.9467423125005254  1.0000
  H   H7        1.0  0.2900501188561647  0.4642719372404257  0.6784654103458436  1.0000
  H   H8        1.0  0.6293988698141675  0.9018497326914736  0.5019859774314526  1.0000
  H   H9        1.0  0.1340034112880701  0.3300536876791397  0.5055267772186127  1.0000
  H   H10       1.0  0.5001068505496918  0.194150794588559  0.0554624265405437  1.0000
  H   H11       1.0  0.5022432438466141  0.18651827655832418  0.9484148007741524  1.0000
  H   H12       1.0  0.2708963865969737  0.5204922433759123  0.3220901535829768  1.0000
  H   H13       1.0  0.701580746439369  0.4998139521344241  0.3238084471421345  1.0000
  H   H14       1.0  0.7139171604491636  0.49064794954054486  0.786451620498802  1.0000
  C   C1        1.0  0.521119812607374  0.7326633771917769  0.510689696932701  1.0000
  C   C2        1.0  0.4960311978999954  0.7048271308509513  0.9708730740988614  1.0000
  C   C3        1.0  0.4961014049526469  0.7090162708512364  0.0301711334941288  1.0000
  C   C4        1.0  0.49646778813178827  0.6043848209316421  0.060200471461861596  1.0000
  C   C5        1.0  0.4975401306664652  0.4922603443009662  0.0312107666533166  1.0000
  C   C6        1.0  0.49785243232699367  0.38427560841165587  0.06080338818111391  1.0000
  C   C7        1.0  0.4996765117858715  0.2754577601057662  0.0313491203449061  1.0000
  C   C8        1.0  0.5008229239227475  0.27125452184608173  0.9720312084686782  1.0000
  C   C9        1.0  0.4954830432866829  0.6109338587305402  0.1228057600253081  1.0000
  C   C10       1.0  0.4954422336842229  0.3865769649622876  0.12342485062191598  1.0000
  C   C11       1.0  0.3700355468065482  0.51133465471014  0.24006610277491797  1.0000
  C   C12       1.0  0.48478569366479723  0.5112005965390621  0.3921252212550641  1.0000
  C   C13       1.0  0.36614773839304593  0.5151247785632761  0.2988274007570482  1.0000
  C   C14       1.0  0.4861467100534043  0.5106337722199256  0.3287720965191312  1.0000
  C   C15       1.0  0.6096031096228884  0.5038195946381876  0.2996525597574617  1.0000
  C   C16       1.0  0.6130621130663058  0.5019632540049129  0.2408535888475569  1.0000
  C   C17       1.0  0.49289521790976215  0.5048394566656639  0.21086552074263656  1.0000
  C   C18       1.0  0.6217246126009357  0.4844199962570669  0.7622671754052633  1.0000
  C   C19       1.0  0.6251754206107023  0.4862521891805045  0.7035963524584119  1.0000
  C   C20       1.0  0.5050808963949437  0.4795404448272863  0.6736423788060648  1.0000
  C   C21       1.0  0.3820390289305635  0.46961076452848255  0.7026850717618487  1.0000
  C   C22       1.0  0.3790593826582622  0.46838642591076507  0.7614837411716806  1.0000
  C   C23       1.0  0.4749229024064903  0.27077616246517516  0.491498020437561  1.0000
  C   C24       1.0  0.4992311188623475  0.4763841070675169  0.7914294168158308  1.0000
  C   C25       1.0  0.42980007181552793  0.0637299029644609  0.5269873497272073  1.0000
  C   C26       1.0  0.46742646905643426  0.13702428356990734  0.4858648500208815  1.0000
  C   C27       1.0  0.4256114925353529  0.9343162052881835  0.5267407701199218  1.0000
  C   C28       1.0  0.5314871788287264  0.8644432776153862  0.5127849573951195  1.0000
  C   C29       1.0  0.933319869024281  0.4163757457638582  0.513399163050174  1.0000
  C   C30       1.0  0.0821853963469508  0.4163145749833106  0.5088452986094225  1.0000
  C   C31       1.0  0.5059302374756457  0.4852550855656758  0.6104572840185654  1.0000
  C   C32       1.0  0.5012054594224581  0.3693385546973075  0.879355499636219  1.0000
  C   C33       1.0  0.4962622675295236  0.5937327240116018  0.8788800320643518  1.0000
  C   C34       1.0  0.49694679869104164  0.5959778881356071  0.9414390337192771  1.0000
  C   C35       1.0  0.49815608472112416  0.4879641190415782  0.9709866516812653  1.0000
  C   C36       1.0  0.49988526678182404  0.3758409779401291  0.9419705791702028  1.0000
  I   I1        1.0  0.19298056646172768  0.4566836009882635  0.8043139332107643  1.0000
  I   I2        1.0  0.3662039668015424  0.14152765766265665  0.6063375758405201  1.0000
  I   I3        1.0  0.5216745539230914  0.07679326593264338  0.4033992038059182  1.0000
  I   I4        1.0  0.8735483815561551  0.2987883807040461  0.5768951187913132  1.0000
  I   I5        1.0  0.9114308335245483  0.5887939202034147  0.42201078005401627  1.0000
  I   I6        1.0  0.7999610609064688  0.4944215392597328  0.19813693501824764  1.0000
  N   N1        1.0  0.4991803016145298  0.4796321759682057  0.8521558397814744  1.0000
  N   N2        1.0  0.4935393984839465  0.5007028328509759  0.1501084239489998  1.0000
  N   N3        1.0  0.8468807097530657  0.47688752564565096  0.4870180820854202  1.0000
  N   N4        1.0  0.15252052864533283  0.511586583898719  0.510907347528935  1.0000
  O   O1        1.0  0.6300227301669494  0.6759087351150368  0.499237433455157  1.0000
  O   O2        1.0  0.493612036784846  0.6840870871209006  0.8508802496613583  1.0000
  O   O3        1.0  0.4957498539732867  0.705251598564601  0.1503042474501015  1.0000
  O   O4        1.0  0.49455910163971595  0.2962180362051114  0.1514457875976234  1.0000
  O   O5        1.0  0.4059653702532273  0.6859374903751386  0.5196710321221616  1.0000
  O   O6        1.0  0.5952341438723607  0.48578612669791  0.4155262736597151  1.0000
  O   O7        1.0  0.37431441381180264  0.5359491014907858  0.41762437636601385  1.0000
  O   O8        1.0  0.5910445319198772  0.3128199442968906  0.5007420706538497  1.0000
  O   O9        1.0  0.3666390102314665  0.3282615991414914  0.4856973189755037  1.0000
  O   O10       1.0  0.619596408697035  0.5005991074103944  0.5860043035586742  1.0000
  O   O11       1.0  0.39335543960188346  0.4748885367958451  0.5861576722531296  1.0000
  O   O12       1.0  0.5041941895091924  0.27517633194632646  0.8517447312847891  1.0000
