data_image0
_chemical_formula_structural       Zn2H32C46N10O14
_chemical_formula_sum              "Zn2 H32 C46 N10 O14"
_cell_length_a       15.892870413579585
_cell_length_b       17.094419754287664
_cell_length_c       19.373395150090694
_cell_angle_alpha    89.44164873278457
_cell_angle_beta     86.87926358187146
_cell_angle_gamma    86.75989437353526

_space_group_name_H-M_alt    "P 1"
_space_group_IT_number       1

loop_
  _space_group_symop_operation_xyz
  'x, y, z'

loop_
  _atom_site_type_symbol
  _atom_site_label
  _atom_site_symmetry_multiplicity
  _atom_site_fract_x
  _atom_site_fract_y
  _atom_site_fract_z
  _atom_site_occupancy
  Zn  Zn1       1.0  0.5893350453370871  0.5064965696370222  0.49679604324832377  1.0000
  Zn  Zn2       1.0  0.4115291956870521  0.49448296303936684  0.5030663943402587  1.0000
  H   H1        1.0  0.8837094331492564  0.47782068901754093  0.5942647522940306  1.0000
  H   H2        1.0  0.1172252361520592  0.5224367987563879  0.4059180584395108  1.0000
  H   H3        1.0  0.12330968271924549  0.43730432940961333  0.6162933500793173  1.0000
  H   H4        1.0  0.8779798607756177  0.5624452382757852  0.3837406462332281  1.0000
  H   H5        1.0  0.28289327612031906  0.44204240847113135  0.6052031129519051  1.0000
  H   H6        1.0  0.7184025181449412  0.5579635023958571  0.39472065999150635  1.0000
  H   H7        1.0  0.6225394572973497  0.4314365222348469  0.8451148157521047  1.0000
  H   H8        1.0  0.3752423321701315  0.5655638256907024  0.1556986959339639  1.0000
  H   H9        1.0  0.376359502050363  0.5518514667446082  0.8536001887804829  1.0000
  H   H10       1.0  0.6226915835800498  0.44753150214999227  0.1459855520379207  1.0000
  H   H11       1.0  0.3754294851417653  0.5459003504535358  0.7243995154786944  1.0000
  H   H12       1.0  0.6261395623298893  0.4568227501998051  0.2748799244705752  1.0000
  H   H13       1.0  0.5499433133884892  0.8949505331795462  0.5834487347686875  1.0000
  H   H14       1.0  0.45000825579605663  0.10586749145987535  0.4164592639125432  1.0000
  H   H15       1.0  0.6102049002152581  0.10835438189388207  0.5888122506251676  1.0000
  H   H16       1.0  0.39010122482483917  0.8924230354270005  0.41082480321551174  1.0000
  H   H17       1.0  0.7250299012631342  0.4797594198109534  0.5974762918680057  1.0000
  H   H18       1.0  0.2758423699433691  0.5208041375966771  0.40260316878602964  1.0000
  H   H19       1.0  0.6205622638615509  0.3745748021281017  0.6639730583795895  1.0000
  H   H20       1.0  0.3802288488763708  0.6263272228856632  0.33592714718013644  1.0000
  H   H21       1.0  0.661294674483379  0.6977120954623075  0.5648436987921528  1.0000
  H   H22       1.0  0.6525673911533899  0.7090073191884726  0.6571492259370473  1.0000
  H   H23       1.0  0.6619404025314211  0.7936940194744934  0.6025051072276355  1.0000
  H   H24       1.0  0.3380848946514945  0.2065113504870197  0.3975619267035242  1.0000
  H   H25       1.0  0.3382685609847371  0.3024532478233724  0.43536144418786893  1.0000
  H   H26       1.0  0.3468716983566722  0.29133964858056055  0.3430191128319677  1.0000
  H   H27       1.0  0.7395565433055251  0.2996340792879478  0.6107752871549721  1.0000
  H   H28       1.0  0.7186955941757345  0.30346756707028516  0.5203253433968342  1.0000
  H   H29       1.0  0.7458883328957525  0.21097720565198583  0.5615033534054775  1.0000
  H   H30       1.0  0.2813770820820594  0.6974928977672619  0.4791323359199211  1.0000
  H   H31       1.0  0.2608664788779365  0.7010865678910674  0.3886404818862488  1.0000
  H   H32       1.0  0.254455498495922  0.7898803945170696  0.4377111099667133  1.0000
  C   C1        1.0  0.5280545695767813  0.34980441499385506  0.4900768550982876  1.0000
  C   C2        1.0  0.47188347033652894  0.6510478358235969  0.5097287079661258  1.0000
  C   C3        1.0  0.5358577803970803  0.262011446682308  0.49112127270924333  1.0000
  C   C4        1.0  0.464231176803338  0.7388187373959949  0.5086597524951699  1.0000
  C   C5        1.0  0.4899670233573159  0.21947786932825147  0.44516071230589915  1.0000
  C   C6        1.0  0.5100275549248676  0.7813292260322554  0.5546807245772597  1.0000
  C   C7        1.0  0.48538434448386164  0.13883208232481786  0.4516997881442393  1.0000
  C   C8        1.0  0.5147080341206944  0.8619675595562553  0.5481117558122719  1.0000
  C   C9        1.0  0.5279050667845766  0.09915555205473939  0.5045726453662525  1.0000
  C   C10       1.0  0.4723157078370761  0.9016215786701165  0.4951486062577928  1.0000
  C   C11       1.0  0.5773289035742765  0.1399629618024107  0.548262404299095  1.0000
  C   C12       1.0  0.4229636627797929  0.8608267038327352  0.45139262509076156  1.0000
  C   C13       1.0  0.581435745331639  0.2209721595722128  0.5414991372826067  1.0000
  C   C14       1.0  0.41882509231783166  0.7798373408335095  0.4581796538072496  1.0000
  C   C15       1.0  0.23930753737823812  0.5036209091711539  0.448960906708912  1.0000
  C   C16       1.0  0.7616734941016927  0.49683718818176453  0.5511539051841439  1.0000
  C   C17       1.0  0.1519184738429189  0.5043700933364405  0.4508246427360234  1.0000
  C   C18       1.0  0.8490835531397352  0.4958647016146924  0.5493186542518345  1.0000
  C   C19       1.0  0.10932407898501137  0.4813169928057731  0.5123638467087589  1.0000
  C   C20       1.0  0.8918127560046185  0.5187227939731258  0.4877823909310308  1.0000
  C   C21       1.0  0.15573481428333483  0.4565277555610619  0.5686862119507907  1.0000
  C   C22       1.0  0.8454846258217115  0.543432008996312  0.43138778417093704  1.0000
  C   C23       1.0  0.4964668976488225  0.48699719974380423  0.6357307773281208  1.0000
  C   C24       1.0  0.5048327647276165  0.5143559753257632  0.3641385478985342  1.0000
  C   C25       1.0  0.243106033304251  0.4585796081953716  0.5627241861761405  1.0000
  C   C26       1.0  0.7580921086346423  0.5415314490384872  0.43729545705374306  1.0000
  C   C27       1.0  0.5675117268881777  0.4530720869137993  0.7471295830753207  1.0000
  C   C28       1.0  0.4324999840935745  0.5470202748194593  0.2531363573469818  1.0000
  C   C29       1.0  0.5683641417911289  0.4569911359518029  0.8190768983096178  1.0000
  C   C30       1.0  0.43031240813454735  0.5414054699690279  0.1813949793800447  1.0000
  C   C31       1.0  0.4991236796350902  0.49192582655602723  0.8576684777221575  1.0000
  C   C32       1.0  0.4988953083518055  0.5056638489708829  0.14258234753867072  1.0000
  C   C33       1.0  0.42946479364994866  0.5243126908990162  0.8232589014760664  1.0000
  C   C34       1.0  0.5699236581497755  0.47545341930432955  0.1764844064692284  1.0000
  C   C35       1.0  0.42870565456328086  0.5205931279101604  0.7517162452101616  1.0000
  C   C36       1.0  0.5720541675164057  0.4809477712821319  0.24786368996532807  1.0000
  C   C37       1.0  0.49715076569805217  0.48511049862930383  0.7130908619551235  1.0000
  C   C38       1.0  0.503656636858075  0.5161027303486634  0.2867918402484904  1.0000
  C   C39       1.0  0.49737389074033433  0.49994195649252016  0.0669966573568459  1.0000
  C   C40       1.0  0.49806394752542343  0.49364299919664484  0.9335803498690752  1.0000
  C   C41       1.0  0.6387074627641454  0.4102357515644356  0.7078241473429543  1.0000
  C   C42       1.0  0.36166012993304963  0.5900151306228663  0.2926862752450816  1.0000
  C   C43       1.0  0.6358322440338071  0.7354858735484198  0.607649303624747  1.0000
  C   C44       1.0  0.3638468178841804  0.26487260093232823  0.39245744602196453  1.0000
  C   C45       1.0  0.7127104357012185  0.2689638360527055  0.5683915966910291  1.0000
  C   C46       1.0  0.28759510627276796  0.7318668978603139  0.431010278578178  1.0000
  N   N1        1.0  0.4307513611784444  0.5306651984774075  0.967781123405814  1.0000
  N   N2        1.0  0.5622228498417953  0.45898433930330623  0.03310180787125461  1.0000
  N   N3        1.0  0.4303820505541437  0.5339546432344232  0.035572533632311804  1.0000
  N   N4        1.0  0.5626453619892117  0.4557864108997335  0.9652872161902621  1.0000
  N   N5        1.0  0.5250141554548975  0.017902855326489893  0.5180933829204903  1.0000
  N   N6        1.0  0.4752049404626177  0.9828795270447014  0.4816361572569079  1.0000
  N   N7        1.0  0.28381404482761496  0.48201291169442556  0.5040753893514989  1.0000
  N   N8        1.0  0.7172290972634414  0.5183991009309207  0.4959790838241176  1.0000
  N   N9        1.0  0.020389632434294907  0.4796392588503762  0.5219027915770625  1.0000
  N   N10       1.0  0.9807416918400802  0.5203418602719337  0.47827033983563183  1.0000
  O   O1        1.0  0.5949449766632212  0.3871440936506757  0.48522953860959467  1.0000
  O   O2        1.0  0.40491647795552405  0.6138191402108573  0.5144516969305286  1.0000
  O   O3        1.0  0.45281744610543473  0.3795623420043909  0.4961973588796198  1.0000
  O   O4        1.0  0.5471018796368057  0.6211875651942121  0.5037576791171361  1.0000
  O   O5        1.0  0.5679292260606984  0.4916658538470458  0.6029772273450649  1.0000
  O   O6        1.0  0.4334780612205903  0.5094081718154865  0.39702613030068795  1.0000
  O   O7        1.0  0.42519094496675064  0.4855420932458115  0.6093964213958643  1.0000
  O   O8        1.0  0.5761794998002969  0.515935719634129  0.39033169077680446  1.0000
  O   O9        1.0  0.7125618064996216  0.41072420435126833  0.7234170271775113  1.0000
  O   O10       1.0  0.28752146469550155  0.5889983120246568  0.277867019890529  1.0000
  O   O11       1.0  0.5453499079176893  0.7405422817126419  0.6086678158370802  1.0000
  O   O12       1.0  0.4543200563049509  0.26027934896670496  0.39133573659633925  1.0000
  O   O13       1.0  0.6250248047208871  0.2609981633389608  0.5885968208098902  1.0000
  O   O14       1.0  0.37537176535521166  0.7397770451195239  0.4110193546166698  1.0000
