data_image0
_chemical_formula_structural       Zn2H32C40N4O12
_chemical_formula_sum              "Zn2 H32 C40 N4 O12"
_cell_length_a       8.644334237542376
_cell_length_b       10.804437553072152
_cell_length_c       11.843162347115548
_cell_angle_alpha    70.29293896464102
_cell_angle_beta     68.58600276732075
_cell_angle_gamma    66.42218662693388

_space_group_name_H-M_alt    "P 1"
_space_group_IT_number       1

loop_
  _space_group_symop_operation_xyz
  'x, y, z'

loop_
  _atom_site_type_symbol
  _atom_site_label
  _atom_site_symmetry_multiplicity
  _atom_site_fract_x
  _atom_site_fract_y
  _atom_site_fract_z
  _atom_site_occupancy
  Zn  Zn1       1.0  0.6870391357455501  0.25017216433257516  0.749811974962455  1.0000
  Zn  Zn2       1.0  0.31294945963834625  0.7498272998950315  0.25019463693136845  1.0000
  H   H1        1.0  0.13210343183401113  0.12880271231291124  0.4286693821652818  1.0000
  H   H2        1.0  0.689430075118594  0.3712989188336381  0.07135306075330305  1.0000
  H   H3        1.0  0.8679219202441214  0.8711916098104813  0.5713219314997742  1.0000
  H   H4        1.0  0.31056104126106016  0.6287047000549606  0.928648486372779  1.0000
  H   H5        1.0  0.1404640163587768  0.8985033932571586  0.5751435938088604  1.0000
  H   H6        1.0  0.614190557986582  0.6016097652715687  0.9247873905046473  1.0000
  H   H7        1.0  0.8595549232221842  0.10150124791285013  0.4248642735986221  1.0000
  H   H8        1.0  0.38580540173531813  0.398391796508065  0.07520798880699424  1.0000
  H   H9        1.0  0.1674634385026293  0.8847762392120232  0.7210264889767826  1.0000
  H   H10       1.0  0.7733648493132532  0.6154051612474947  0.7789124466927998  1.0000
  H   H11       1.0  0.8325491515369875  0.1152284042317149  0.27898028251806284  1.0000
  H   H12       1.0  0.22662600509323738  0.3845943169827634  0.22108810773843146  1.0000
  H   H13       1.0  0.4350568524996984  0.8847215245564899  0.7236198332926588  1.0000
  H   H14       1.0  0.04352622406761941  0.6153104830097292  0.7763615085886072  1.0000
  H   H15       1.0  0.5649687419148391  0.11527071514083789  0.2763762559452869  1.0000
  H   H16       1.0  0.956461963058544  0.3846910690203346  0.22363798465663345  1.0000
  H   H17       1.0  0.1406223815381152  0.2990487307115331  0.6566591189020342  1.0000
  H   H18       1.0  0.09682280671977854  0.2001199039760451  0.8434044027543377  1.0000
  H   H19       1.0  0.8593730412382923  0.700941423778538  0.3433424479563312  1.0000
  H   H20       1.0  0.9031700580113406  0.7998816418215854  0.15659788163624444  1.0000
  H   H21       1.0  0.2346300145118434  0.3814506723104998  0.4268935667202029  1.0000
  H   H22       1.0  0.04355648134401237  0.11820004097678093  0.07322286775153938  1.0000
  H   H23       1.0  0.7653512163500121  0.6185446488649405  0.5731129757203205  1.0000
  H   H24       1.0  0.9564415085233262  0.8818118569547908  0.9267817606768814  1.0000
  H   H25       1.0  0.5386555447140609  0.39937564333508396  0.32622296931344147  1.0000
  H   H26       1.0  0.2649051025016646  0.1007352637175174  0.17351881631696386  1.0000
  H   H27       1.0  0.4613276898348175  0.6006186482961908  0.6737809130280396  1.0000
  H   H28       1.0  0.7350987391430336  0.8992766480695099  0.8264798787970237  1.0000
  H   H29       1.0  0.7314220356657086  0.34209361215467043  0.4641735603202972  1.0000
  H   H30       1.0  0.5381597509795668  0.1582585138019681  0.03529227548536799  1.0000
  H   H31       1.0  0.2685683842086773  0.6578986336820876  0.5358192682819974  1.0000
  H   H32       1.0  0.4618430755924194  0.8417482299090865  0.9647017950702191  1.0000
  C   C1        1.0  0.0026336050660233125  0.0818335709232016  0.6414366896895275  1.0000
  C   C2        1.0  0.7258356139739769  0.4183684135898319  0.8584070284459172  1.0000
  C   C3        1.0  0.9973814994237669  0.9181731528200604  0.3585662779969282  1.0000
  C   C4        1.0  0.27415591702496295  0.5816331463576391  0.1415890743339289  1.0000
  C   C5        1.0  0.16200354730058544  0.9531374420626122  0.62906264259135  1.0000
  C   C6        1.0  0.7442608740396961  0.5469929901752622  0.8708437680933938  1.0000
  C   C7        1.0  0.8380105553917047  0.046870307827767015  0.37094448065349883  1.0000
  C   C8        1.0  0.25573599806548225  0.45300649653405867  0.12915319609908946  1.0000
  C   C9        1.0  0.3336408276282512  0.9825036072389679  0.5624807394574487  1.0000
  C   C10       1.0  0.8786408098132839  0.5175535071151175  0.9374882293602268  1.0000
  C   C11       1.0  0.6663788715058343  0.017503112960064005  0.43752384783649473  1.0000
  C   C12       1.0  0.12134972593374009  0.48245115334093225  0.06251076801866152  1.0000
  C   C13       1.0  0.3725392656242405  0.047118757721563015  0.43490009923689843  1.0000
  C   C14       1.0  0.8544464008702235  0.4529715613519942  0.06510439792361922  1.0000
  C   C15       1.0  0.6274793421140641  0.9528858942012381  0.5651030820191989  1.0000
  C   C16       1.0  0.145544556133693  0.5470341372744728  0.9348935451674264  1.0000
  C   C17       1.0  0.461638001139029  0.93801229913656  0.6256575001934052  1.0000
  C   C18       1.0  0.02539721631731574  0.5619889642477887  0.8743224970264976  1.0000
  C   C19       1.0  0.5383846838428212  0.06198614228678423  0.37434405432113477  1.0000
  C   C20       1.0  0.974595993255619  0.4380156967699308  0.12567630057904472  1.0000
  C   C21       1.0  0.38791664243948515  0.27566078357844503  0.6815673608911438  1.0000
  C   C22       1.0  0.3455516463353236  0.22395433047518054  0.8181903189613492  1.0000
  C   C23       1.0  0.6120762025628537  0.7243335163847109  0.3184330553597332  1.0000
  C   C24       1.0  0.6544529787288197  0.7760389428992911  0.1818063141755743  1.0000
  C   C25       1.0  0.271243823955679  0.308353379255614  0.6116654389356241  1.0000
  C   C26       1.0  0.19174141686296062  0.19109661339470563  0.8882691886343393  1.0000
  C   C27       1.0  0.7287513500307482  0.6916378060491226  0.3883382643269398  1.0000
  C   C28       1.0  0.8082559463685897  0.8088997600738851  0.11173041472683554  1.0000
  C   C29       1.0  0.3238166167303263  0.35394543119737426  0.48308386957810256  1.0000
  C   C30       1.0  0.16139479492167647  0.14574157749751043  0.01686818712202147  1.0000
  C   C31       1.0  0.6761747854888328  0.6460416109080074  0.5169198883793128  1.0000
  C   C32       1.0  0.8386049301139313  0.8542630758700797  0.9831340494718501  1.0000
  C   C33       1.0  0.49144503072445644  0.36586187476035553  0.42667617421682275  1.0000
  C   C34       1.0  0.28455494245178414  0.13413296535160413  0.07308385143878128  1.0000
  C   C35       1.0  0.5085439399131744  0.6341220616072293  0.5733269080690987  1.0000
  C   C36       1.0  0.715445044464978  0.865874805924264  0.9269137268322039  1.0000
  C   C37       1.0  0.5995947185990358  0.33408576583750726  0.5019050275315066  1.0000
  C   C38       1.0  0.43608543753239104  0.16598461218499244  0.9976955558420357  1.0000
  C   C39       1.0  0.40039860434648467  0.6659002494119123  0.4980948987890199  1.0000
  C   C40       1.0  0.5639170376521885  0.8340169419445194  0.0023032624579356143  1.0000
  N   N1        1.0  0.5488167956137103  0.29072148181573004  0.6260482206442433  1.0000
  N   N2        1.0  0.46593842675598995  0.20922273934341007  0.8735651691986063  1.0000
  N   N3        1.0  0.45118038860533705  0.7092707483063095  0.3739515615599273  1.0000
  N   N4        1.0  0.53405626919524  0.7907757079249934  0.12643337297657084  1.0000
  O   O1        1.0  0.9023113021376613  0.08995022545621371  0.7517744649366733  1.0000
  O   O2        1.0  0.7439596214760442  0.4103347113885718  0.7480472119382849  1.0000
  O   O3        1.0  0.09768635588702036  0.9100616832281437  0.24822547734036227  1.0000
  O   O4        1.0  0.25600921154982365  0.5896772011614858  0.25195056561574347  1.0000
  O   O5        1.0  0.9725143470169613  0.1737763893715965  0.5450154210135948  1.0000
  O   O6        1.0  0.691128503580899  0.32644705001887797  0.9548153435676524  1.0000
  O   O7        1.0  0.027508842090426755  0.8262220647838917  0.4549805997332114  1.0000
  O   O8        1.0  0.308868527807995  0.6735493342025052  0.04517957364213734  1.0000
  O   O9        1.0  0.25091910240222864  0.09747746395656522  0.3682340019241934  1.0000
  O   O10       1.0  0.716427499891786  0.40265985027778584  0.13176870545537858  1.0000
  O   O11       1.0  0.7491100913126726  0.902516849955042  0.6317609505025529  1.0000
  O   O12       1.0  0.283565198918012  0.5973417008962443  0.868231235859504  1.0000
