data_image0
_chemical_formula_structural       Zn3H8C16N2O14
_chemical_formula_sum              "Zn3 H8 C16 N2 O14"
_cell_length_a       6.213934036432076
_cell_length_b       8.88554940335783
_cell_length_c       8.885488371768023
_cell_angle_alpha    70.4964780587606
_cell_angle_beta     88.0724786565192
_cell_angle_gamma    88.07341494543643

_space_group_name_H-M_alt    "P 1"
_space_group_IT_number       1

loop_
  _space_group_symop_operation_xyz
  'x, y, z'

loop_
  _atom_site_type_symbol
  _atom_site_label
  _atom_site_symmetry_multiplicity
  _atom_site_fract_x
  _atom_site_fract_y
  _atom_site_fract_z
  _atom_site_occupancy
  Zn  Zn1       1.0  0.5000108287958653  0.1453170481325543  0.854679260981122  1.0000
  Zn  Zn2       1.0  0.4999936260922198  0.8546832925632368  0.1453176027780146  1.0000
  Zn  Zn3       1.0  0.9999980065283794  3.676659687996535e-07  0.9999981126593412  1.0000
  H   H1        1.0  0.29487393569593223  0.11692194175029155  0.1169155137361741  1.0000
  H   H2        1.0  0.7051209392513087  0.883076003746076  0.8830801210950838  1.0000
  H   H3        1.0  0.7717574132448277  0.09640909827269438  0.5176582926395242  1.0000
  H   H4        1.0  0.7717501272608587  0.5176336330683495  0.0964312281809185  1.0000
  H   H5        1.0  0.22824563087987573  0.9035829540381071  0.48234708250662806  1.0000
  H   H6        1.0  0.22824464902968333  0.48236562820024176  0.9035740850972757  1.0000
  H   H7        1.0  0.28471033588209593  0.4311637613766166  0.4311669102073097  1.0000
  H   H8        1.0  0.7152893891366149  0.5688330068581492  0.5688312813456022  1.0000
  C   C1        1.0  0.14581650395442133  0.1607949451933024  0.6461863532055432  1.0000
  C   C2        1.0  0.1458002845723669  0.6461884288713337  0.16079263162759355  1.0000
  C   C3        1.0  0.8542039889030519  0.8392088768593735  0.35380335390852485  1.0000
  C   C4        1.0  0.8541862455491228  0.35381800082613774  0.8392092567587071  1.0000
  C   C5        1.0  0.041117631294412114  0.2532398186231575  0.4912906862787664  1.0000
  C   C6        1.0  0.04109961674886621  0.4912892145462279  0.2532431815907045  1.0000
  C   C7        1.0  0.9588931156427734  0.7467653123732774  0.5087066491046242  1.0000
  C   C8        1.0  0.9588886535280566  0.5087135751911305  0.746755422665224  1.0000
  C   C9        1.0  0.8496643051146294  0.20546342241525645  0.44491145440963464  1.0000
  C   C10       1.0  0.8496578779651643  0.4448977841265673  0.2054750175444582  1.0000
  C   C11       1.0  0.15034003912049343  0.794539387709321  0.5550913141476386  1.0000
  C   C12       1.0  0.1503335431108681  0.5551062606141953  0.794528717180377  1.0000
  C   C13       1.0  0.7603673548537131  0.3013900455513151  0.301418289967387  1.0000
  C   C14       1.0  0.23962432106993253  0.6986044727249235  0.6985909717723403  1.0000
  C   C15       1.0  0.13602243906112219  0.3942478592943529  0.3942481627055728  1.0000
  C   C16       1.0  0.8639786389473515  0.6057573054025196  0.6057504855241405  1.0000
  N   N1        1.0  0.5669470225668505  0.24739523391843218  0.2474145964242496  1.0000
  N   N2        1.0  0.4330525581375184  0.7526051979305918  0.7525890893019278  1.0000
  O   O1        1.0  0.310874606035263  0.04945872852110969  0.049449853136849194  1.0000
  O   O2        1.0  0.6891250060030529  0.9505427759266353  0.950543332892657  1.0000
  O   O3        1.0  0.3322584823055906  0.20987512119478413  0.6627932768457825  1.0000
  O   O4        1.0  0.3322473395384193  0.6627920077840839  0.20987905036113835  1.0000
  O   O5        1.0  0.667747686298256  0.7901227602167252  0.3371987711501419  1.0000
  O   O6        1.0  0.6677457688137097  0.33721075834823466  0.7901183369676447  1.0000
  O   O7        1.0  0.0465288074897572  0.048081144159780785  0.7475231753344715  1.0000
  O   O8        1.0  0.046510340456244095  0.7475199530224896  0.04809084899388697  1.0000
  O   O9        1.0  0.9534855519566676  0.9519108035372453  0.2524752499524183  1.0000
  O   O10       1.0  0.9534730364189982  0.25248409503430475  0.9519119245882591  1.0000
  O   O11       1.0  0.48947384737589067  0.11830202323348257  0.3316748033166235  1.0000
  O   O12       1.0  0.4894640658111058  0.3316568087734169  0.11834241176605789  1.0000
  O   O13       1.0  0.5105291510911698  0.8816923769193534  0.6683263875558653  1.0000
  O   O14       1.0  0.510535567772614  0.668341261723938  0.8816643372258073  1.0000
