data_image0
_chemical_formula_structural       Cu4P2H28C34Br4N2
_chemical_formula_sum              "Cu4 P2 H28 C34 Br4 N2"
_cell_length_a       7.106658481409603
_cell_length_b       10.368943058615645
_cell_length_c       13.038807917029105
_cell_angle_alpha    81.10603316448334
_cell_angle_beta     82.50704627416675
_cell_angle_gamma    83.95673122814833

_space_group_name_H-M_alt    "P 1"
_space_group_IT_number       1

loop_
  _space_group_symop_operation_xyz
  'x, y, z'

loop_
  _atom_site_type_symbol
  _atom_site_label
  _atom_site_symmetry_multiplicity
  _atom_site_fract_x
  _atom_site_fract_y
  _atom_site_fract_z
  _atom_site_occupancy
  Cu  Cu1       1.0  0.06719928450034732  0.10218601035618488  0.43150841916520477  1.0000
  Cu  Cu2       1.0  0.9328056274422922  0.8978040403937229  0.5684882849938261  1.0000
  Cu  Cu3       1.0  0.6944264812060794  0.050130432395199896  0.4540665677505728  1.0000
  Cu  Cu4       1.0  0.3055850461078364  0.9498517612842002  0.5459305660391607  1.0000
  P   P1        1.0  0.9588580667002378  0.20737514559912998  0.2878776318030418  1.0000
  P   P2        1.0  0.04114538759978364  0.7926253902326436  0.7121341106585319  1.0000
  H   H1        1.0  0.9519490710280895  0.3985170914077826  0.42150348560141987  1.0000
  H   H2        1.0  0.048078771467018604  0.6014837947539817  0.5784827979851173  1.0000
  H   H3        1.0  0.7318367134615829  0.5951314444091763  0.45650861919028063  1.0000
  H   H4        1.0  0.26819807044595495  0.40487032811461177  0.5434809336117253  1.0000
  H   H5        1.0  0.4390851078090067  0.6475326382948624  0.36834653369003684  1.0000
  H   H6        1.0  0.5609349728340478  0.3524718567676216  0.6316582794029202  1.0000
  H   H7        1.0  0.37067349209917927  0.5095745485870536  0.2392737959496714  1.0000
  H   H8        1.0  0.6293292885076983  0.4904190085245547  0.760745672334714  1.0000
  H   H9        1.0  0.5931795011023199  0.31880967385055203  0.1996861564479389  1.0000
  H   H10       1.0  0.4067974457238608  0.6811753090675906  0.8003275682561222  1.0000
  H   H11       1.0  0.30574325898917454  0.08532516078483349  0.18911857181674213  1.0000
  H   H12       1.0  0.6942558127411901  0.9146669937483408  0.8108713878726164  1.0000
  H   H13       1.0  0.5303633967807714  0.15726555594388  0.03314760070855272  1.0000
  H   H14       1.0  0.46962577556244883  0.8427501503644308  0.9668396356441631  1.0000
  H   H15       1.0  0.48518793913017794  0.3830321806097032  0.9358712655747539  1.0000
  H   H16       1.0  0.5147895711328092  0.6169842235508227  0.06413431996342209  1.0000
  H   H17       1.0  0.21513649990965433  0.5362012461334088  0.9955136857716693  1.0000
  H   H18       1.0  0.7848523884064846  0.463813973197432  0.0045004702304894005  1.0000
  H   H19       1.0  0.9848050049300883  0.46299510990775883  0.14869262959906135  1.0000
  H   H20       1.0  0.015189538922925313  0.5370083241965489  0.8513232251155782  1.0000
  H   H21       1.0  0.93327987960641  0.1433687770823084  0.06960200950950217  1.0000
  H   H22       1.0  0.06668935059307309  0.8566468846169142  0.9303927105293183  1.0000
  H   H23       1.0  0.794050854858256  0.9526567226444629  0.018248594792865398  1.0000
  H   H24       1.0  0.20593038377788997  0.0473541134912381  0.9817397179575167  1.0000
  H   H25       1.0  0.6217549204951142  0.7990683880677594  0.15933874769354625  1.0000
  H   H26       1.0  0.3782492534540652  0.2009286600802511  0.8406495565543537  1.0000
  H   H27       1.0  0.5825660893869866  0.8489528696680324  0.3433180031176235  1.0000
  H   H28       1.0  0.41745454995485437  0.1510244105809306  0.6566782974026139  1.0000
  C   C1        1.0  0.7890950002925622  0.34776702402926674  0.306727942637437  1.0000
  C   C2        1.0  0.21090592959588864  0.6522317009641724  0.6932765010369834  1.0000
  C   C3        1.0  0.8270415084001499  0.4256781683237278  0.3795463595801039  1.0000
  C   C4        1.0  0.17296992488755347  0.5743284957051742  0.6204488226008777  1.0000
  C   C5        1.0  0.7037298039609966  0.5347836005341478  0.3996527318693168  1.0000
  C   C6        1.0  0.2962864170291724  0.4652180530480478  0.6003480552384841  1.0000
  C   C7        1.0  0.5395501680733901  0.5652262072926176  0.3490818832119373  1.0000
  C   C8        1.0  0.4604612611844061  0.4347675438515281  0.6509247086798311  1.0000
  C   C9        1.0  0.501236705720082  0.48807003146950484  0.27676326621142516  1.0000
  C   C10       1.0  0.4987649019466647  0.5119227732729996  0.723244092218131  1.0000
  C   C11       1.0  0.6262567596632567  0.37995035401903005  0.2546871135346152  1.0000
  C   C12       1.0  0.3737466026367714  0.6200394788768904  0.7453219917943982  1.0000
  C   C13       1.0  0.12700231965548173  0.26844879006412725  0.17705507634638445  1.0000
  C   C14       1.0  0.8729811207608338  0.7315539389347377  0.8229485646922683  1.0000
  C   C15       1.0  0.28389673622109524  0.18339707768216573  0.1453416229241427  1.0000
  C   C16       1.0  0.7160882734777019  0.8166047224553026  0.8546589477647258  1.0000
  C   C17       1.0  0.4107996201252818  0.22430460757610854  0.0582859400067477  1.0000
  C   C18       1.0  0.5891850709720147  0.7757001874709458  0.9417112504724442  1.0000
  C   C19       1.0  0.3860484264602421  0.35095922857012607  0.0038612011040654965  1.0000
  C   C20       1.0  0.613940534891434  0.6490561159834911  0.9961460327025262  1.0000
  C   C21       1.0  0.23421042143098708  0.43710727183479037  0.037334299383061896  1.0000
  C   C22       1.0  0.7657699122052012  0.5629090949698677  0.9626726343317454  1.0000
  C   C23       1.0  0.10469211229390407  0.3961035906391358  0.12334488725979749  1.0000
  C   C24       1.0  0.895286092652903  0.6038951966692848  0.8766618462598997  1.0000
  C   C25       1.0  0.8368738419783812  0.09195310132977141  0.2329450175903743  1.0000
  C   C26       1.0  0.16314222209131668  0.9080377380074297  0.767059285447587  1.0000
  C   C27       1.0  0.8568375230930986  0.07471687061740082  0.12785733770741806  1.0000
  C   C28       1.0  0.14315243593394208  0.9252919217746579  0.8721336837593723  1.0000
  C   C29       1.0  0.7792473424379126  0.9688915752456425  0.09964979813881313  1.0000
  C   C30       1.0  0.22073804669770425  0.031120240262509896  0.9003373591190493  1.0000
  C   C31       1.0  0.6807742321113964  0.8847545714418816  0.17716739233839715  1.0000
  C   C32       1.0  0.3192419009086791  0.11524929208921009  0.8228193479260495  1.0000
  C   C33       1.0  0.6599658484170167  0.9106666060408981  0.27990378179540437  1.0000
  C   C34       1.0  0.3400444079006491  0.08932639273414371  0.7200907002415277  1.0000
  Br  Br1       1.0  0.37455371926150605  0.18583276638163682  0.44823329458551336  1.0000
  Br  Br2       1.0  0.6254489544108284  0.8141524229657832  0.5517625675273903  1.0000
  Br  Br3       1.0  0.8308161830599021  0.13929221244085  0.5911007099918493  1.0000
  Br  Br4       1.0  0.16918958792668093  0.8607027740440358  0.40889308559361837  1.0000
  N   N1        1.0  0.7374799485661897  0.0110033895395318  0.3077818770465511  1.0000
  N   N2        1.0  0.2625129549397869  0.9889914867738909  0.6922212344009181  1.0000
