data_image0
_chemical_formula_structural       Dy2Cu2H32C44S4N4O22
_chemical_formula_sum              "Dy2 Cu2 H32 C44 S4 N4 O22"
_cell_length_a       9.36344913924318
_cell_length_b       11.322294832957798
_cell_length_c       12.345
_cell_angle_alpha    99.29464089045376
_cell_angle_beta     100.37366738957938
_cell_angle_gamma    113.7549743393878

_space_group_name_H-M_alt    "P 1"
_space_group_IT_number       1

loop_
  _space_group_symop_operation_xyz
  'x, y, z'

loop_
  _atom_site_type_symbol
  _atom_site_label
  _atom_site_symmetry_multiplicity
  _atom_site_fract_x
  _atom_site_fract_y
  _atom_site_fract_z
  _atom_site_occupancy
  Dy  Dy1       1.0  0.30527255249238994  0.4644409901340296  0.0961060264185107  1.0000
  Dy  Dy2       1.0  0.6947227474318254  0.5355550628260772  0.90389193693224  1.0000
  Cu  Cu1       1.0  0.2550283773637716  0.9762180781191176  0.5961078810804993  1.0000
  Cu  Cu2       1.0  0.7449680013663241  0.0237799734940012  0.4038921457630381  1.0000
  H   H1        1.0  0.7355164551098808  0.545388435627423  0.4142412518001778  1.0000
  H   H2        1.0  0.26448317388508263  0.45461161463870076  0.5857514145739061  1.0000
  H   H3        1.0  0.9006058155584853  0.6726806470797017  0.2989359135762585  1.0000
  H   H4        1.0  0.0993954662633669  0.3273124079008909  0.7010543222268525  1.0000
  H   H5        1.0  0.28970985674636296  0.5819298085800853  0.4369970837214581  1.0000
  H   H6        1.0  0.7102908510544808  0.41807224033904333  0.5630016963681683  1.0000
  H   H7        1.0  0.4479678793146676  0.2500414846164531  0.22952870855249335  1.0000
  H   H8        1.0  0.5520339142156628  0.7499605643026754  0.7704758901351951  1.0000
  H   H9        1.0  0.49978206153289756  0.10824404895568311  0.3528400875458715  1.0000
  H   H10       1.0  0.5002148704473655  0.8917510046779213  0.6471571406308884  1.0000
  H   H11       1.0  0.9409232643728129  0.1876725181626853  0.2805035153632076  1.0000
  H   H12       1.0  0.05907906856045732  0.8123305300829529  0.7194988748926648  1.0000
  H   H13       1.0  0.9077272134736205  0.3327487440837515  0.15939358984445562  1.0000
  H   H14       1.0  0.09227294107705564  0.6672563028148915  0.8406120391346974  1.0000
  H   H15       1.0  0.5750641341567544  0.1771086376867643  0.8633593769950992  1.0000
  H   H16       1.0  0.42493929835323735  0.8228904132528568  0.13664014117835424  1.0000
  H   H17       1.0  0.7658614313572656  0.0804527788738127  0.9091334441962148  1.0000
  H   H18       1.0  0.23414038294391296  0.9195432740862941  0.09086540887173564  1.0000
  H   H19       1.0  0.1578213199492779  0.073275615920636  0.9967130178433764  1.0000
  H   H20       1.0  0.8421783298165265  0.9267184383864661  0.0032836234455899944  1.0000
  H   H21       1.0  0.41009308098968933  0.2576243741303443  0.6274580661983507  1.0000
  H   H22       1.0  0.5899065549288878  0.7423736774827745  0.37254726577109665  1.0000
  H   H23       1.0  0.4343440881262737  0.40849169714325484  0.5000094305925346  1.0000
  H   H24       1.0  0.5656615089190922  0.5915093524493714  0.5000012098499766  1.0000
  H   H25       1.0  0.0875167562842094  0.0656897284272304  0.22658996336057413  1.0000
  H   H26       1.0  0.9124871740870403  0.9343223137569366  0.7734115472195742  1.0000
  H   H27       1.0  0.08081869377061682  0.9257700775339758  0.36249432393423586  1.0000
  H   H28       1.0  0.919179282397458  0.0742369680176722  0.6375056332781243  1.0000
  H   H29       1.0  0.9742268108976475  0.3173061516143107  0.9288518323958997  1.0000
  H   H30       1.0  0.025771206812116428  0.6826889020192937  0.07114392397795653  1.0000
  H   H31       1.0  0.9397768364474004  0.4070366777531405  0.022587285072951633  1.0000
  H   H32       1.0  0.060216852191615496  0.5929543785744471  0.9774072879211602  1.0000
  C   C1        1.0  0.8579112790071761  0.5558893585335838  0.4216010337878729  1.0000
  C   C2        1.0  0.14208617852879965  0.44411069173254  0.5783921460583629  1.0000
  C   C3        1.0  0.948279572951904  0.6256913155256072  0.35645975263366847  1.0000
  C   C4        1.0  0.051717359028359076  0.3743037381079901  0.6435350454094363  1.0000
  C   C5        1.0  0.1046721199234213  0.6343045106653307  0.36301684325579237  1.0000
  C   C6        1.0  0.8953286086482635  0.3656915422947762  0.6369794313922982  1.0000
  C   C7        1.0  0.17012852587969007  0.5761806832014074  0.4346881894587612  1.0000
  C   C8        1.0  0.8298743533801413  0.4238213657177212  0.5653068369804971  1.0000
  C   C9        1.0  0.9200432771184665  0.49460366201036987  0.4965435695902086  1.0000
  C   C10       1.0  0.0799547198204493  0.5053973875822564  0.5034514520469743  1.0000
  C   C11       1.0  0.5601850433995068  0.24111949758693643  0.24228919207821062  1.0000
  C   C12       1.0  0.439815118074776  0.7588835506587017  0.7577145216943678  1.0000
  C   C13       1.0  0.5876317164456636  0.1616750391558668  0.30970821710490537  1.0000
  C   C14       1.0  0.4123684519522328  0.8383260104367666  0.6902927714165374  1.0000
  C   C15       1.0  0.8347146267972789  0.20612508206278332  0.2693257823401041  1.0000
  C   C16       1.0  0.1652882455389388  0.7938789655093572  0.7306784497067086  1.0000
  C   C17       1.0  0.8149493708306251  0.2876411443370657  0.20153734039749346  1.0000
  C   C18       1.0  0.18505295517903866  0.7123639025615773  0.798468585154062  1.0000
  C   C19       1.0  0.501640607493897  0.1205317676513502  0.9130510164459198  1.0000
  C   C20       1.0  0.49836445014853575  0.8794682826147736  0.08694968176012453  1.0000
  C   C21       1.0  0.5495993009472427  0.0367352422944762  0.9675916072399461  1.0000
  C   C22       1.0  0.45040629609812305  0.96326580729815  0.032410122712491336  1.0000
  C   C23       1.0  0.692448145787651  0.0240537889561523  0.9592805354879916  1.0000
  C   C24       1.0  0.30755474731940774  0.9759442626569667  0.04071957102818407  1.0000
  C   C25       1.0  0.2640740875908563  0.0593220199424564  0.9877078089962624  1.0000
  C   C26       1.0  0.7359277267103222  0.9406740330176504  0.012292664160788995  1.0000
  C   C27       1.0  0.3631195220601739  0.1314773908518774  0.9240670322908431  1.0000
  C   C28       1.0  0.6368839104498178  0.8685216600877368  0.07593248588261764  1.0000
  C   C29       1.0  0.34127587105493956  0.21919427408474232  0.5383308420772651  1.0000
  C   C30       1.0  0.6587237510164099  0.7808077748343933  0.4616758901716836  1.0000
  C   C31       1.0  0.3529169581427496  0.3025940668194451  0.46624004091252413  1.0000
  C   C32       1.0  0.647086453596401  0.6974109800791979  0.533768463058891  1.0000
  C   C33       1.0  0.2611278335174489  0.24929099041180078  0.35247371569149527  1.0000
  C   C34       1.0  0.7388761107010282  0.7507170544663566  0.6475369251883336  1.0000
  C   C35       1.0  0.1604724732782117  0.1117267018228247  0.31465912919516376  1.0000
  C   C36       1.0  0.8395265886193498  0.8882803437288302  0.6853458365707114  1.0000
  C   C37       1.0  0.1561735607912453  0.0330487268204749  0.3904667359100316  1.0000
  C   C38       1.0  0.8438238759738894  0.9669573194046777  0.6095354297341586  1.0000
  C   C39       1.0  0.674240456324867  0.3056629985138528  0.1864821842795763  1.0000
  C   C40       1.0  0.32576078395530317  0.6943420483847973  0.8135235929857745  1.0000
  C   C41       1.0  0.640154694635612  0.3863186406680157  0.10889637431115062  1.0000
  C   C42       1.0  0.35984223042103736  0.6136784116185936  0.8911019590276441  1.0000
  C   C43       1.0  0.2741972879221493  0.3351721108564405  0.270610201211575  1.0000
  C   C44       1.0  0.7258072026228888  0.6648349346952145  0.729395505985295  1.0000
  S   S1        1.0  0.3058343027757928  0.23536437624923684  0.8518653692413666  1.0000
  S   S2        1.0  0.6941631686074174  0.7646316767108702  0.14813451077089473  1.0000
  S   S3        1.0  0.21683738251997647  0.7155857312111281  0.27216172397709937  1.0000
  S   S4        1.0  0.7831617070720469  0.2844133197284933  0.7278315307396923  1.0000
  N   N1        1.0  0.24563253246617478  0.085776191161699  0.5005512982391097  1.0000
  N   N2        1.0  0.7543659900284467  0.9142298550634465  0.49945182573582525  1.0000
  N   N3        1.0  0.7230291208407209  0.14290468942743223  0.32249571620342016  1.0000
  N   N4        1.0  0.27696942934836244  0.8570933621856797  0.6775062273016135  1.0000
  O   O1        1.0  0.18178006862341078  0.2793617242497533  0.16863455489551885  1.0000
  O   O2        1.0  0.8182260747485086  0.7206383260163705  0.8313695317749393  1.0000
  O   O3        1.0  0.37844880674554565  0.45715789857140277  0.3012352527567402  1.0000
  O   O4        1.0  0.6215545911463778  0.5428511456332572  0.6987714113159599  1.0000
  O   O5        1.0  0.22055690974943326  0.6040608933421511  0.19161396805377964  1.0000
  O   O6        1.0  0.7794378438482354  0.3959361589444583  0.8083735381334307  1.0000
  O   O7        1.0  0.23476451769796108  0.2982350046081166  0.9264083569673504  1.0000
  O   O8        1.0  0.7652340463383496  0.7017590496989854  0.07359380634729007  1.0000
  O   O9        1.0  0.12165957298785199  0.7723284894462381  0.21041769427181836  1.0000
  O   O10       1.0  0.8783340810330884  0.227672560146388  0.7895759241760061  1.0000
  O   O11       1.0  0.37672534389440665  0.814261228889066  0.34298026955479344  1.0000
  O   O12       1.0  0.6232764565595376  0.1857388213770577  0.6570102632580302  1.0000
  O   O13       1.0  0.5177073181744163  0.4085396648154571  0.10823885207736345  1.0000
  O   O14       1.0  0.482289606882233  0.5914573874711522  0.8917562410832147  1.0000
  O   O15       1.0  0.45660709616625883  0.3337050995482684  0.8354169390871679  1.0000
  O   O16       1.0  0.5433887431608966  0.6662919527383409  0.1645812459654294  1.0000
  O   O17       1.0  0.1888717890938949  0.1490555440607935  0.7438422140541621  1.0000
  O   O18       1.0  0.8111246034834351  0.8509385102463014  0.25615965268808344  1.0000
  O   O19       1.0  0.7345372212856989  0.4254782490616904  0.04608665349403651  1.0000
  O   O20       1.0  0.26545809248575125  0.5745138065923996  0.9539082894881121  1.0000
  O   O21       1.0  0.01745451078166128  0.3722491228153544  0.009494860964601103  1.0000
  O   O22       1.0  0.9825397172602947  0.6277429328387356  0.9904999337313503  1.0000
