data_image0
_chemical_formula_structural       Sm4Zn4H36C48N16O36
_chemical_formula_sum              "Sm4 Zn4 H36 C48 N16 O36"
_cell_length_a       11.455546871
_cell_length_b       12.801613579281813
_cell_length_c       13.35
_cell_angle_alpha    116.07719968534468
_cell_angle_beta     90.0
_cell_angle_gamma    90.0

_space_group_name_H-M_alt    "P 1"
_space_group_IT_number       1

loop_
  _space_group_symop_operation_xyz
  'x, y, z'

loop_
  _atom_site_type_symbol
  _atom_site_label
  _atom_site_symmetry_multiplicity
  _atom_site_fract_x
  _atom_site_fract_y
  _atom_site_fract_z
  _atom_site_occupancy
  Sm  Sm1       1.0  0.7085423412257795  0.3883334711235946  0.6812479916650318  1.0000
  Sm  Sm2       1.0  0.2085435140637202  0.6116663312844253  0.8187561198016055  1.0000
  Sm  Sm3       1.0  0.2914622966147888  0.6116567647712046  0.31874909102440796  1.0000
  Sm  Sm4       1.0  0.7914593778977377  0.38833955890473243  0.1812468124973705  1.0000
  Zn  Zn1       1.0  0.44777696409985873  0.0675674131870778  0.8440311526593832  1.0000
  Zn  Zn2       1.0  0.9477792830201395  0.9324323892209418  0.655972209743581  1.0000
  Zn  Zn3       1.0  0.5522241819824885  0.9324358679530177  0.15596768360603616  1.0000
  Zn  Zn4       1.0  0.0522236089413113  0.0675630647719814  0.3440308178219453  1.0000
  H   H1        1.0  0.48997224342114976  0.2538978698974859  0.02263623232620662  1.0000
  H   H2        1.0  0.9899745623414304  0.746104541559589  0.4773667317282887  1.0000
  H   H3        1.0  0.5100236650238585  0.7461028021935547  0.9773659985423749  1.0000
  H   H4        1.0  0.0100248378617991  0.253891782116348  0.5226329171118422  1.0000
  H   H5        1.0  0.4939266596101035  0.1445117486954146  0.04934674577465608  1.0000
  H   H6        1.0  0.9939246138326041  0.8554897930786396  0.450652855432196  1.0000
  H   H7        1.0  0.5060753594117955  0.8554897930786396  0.9506513573048565  1.0000
  H   H8        1.0  0.0060747863706254  0.1445091396463525  0.5493508894414774  1.0000
  H   H9        1.0  0.3392016150566164  0.3396938391830204  0.3686785141640172  1.0000
  H   H10       1.0  0.8392135363120161  0.6603068329080202  0.13132296764089094  1.0000
  H   H11       1.0  0.6607942933883848  0.6603137903721787  0.6313191588115075  1.0000
  H   H12       1.0  0.160792847407663  0.3396894907679169  0.8686819246449317  1.0000
  H   H13       1.0  0.7293261591160202  0.9329689836442583  0.9094980230654955  1.0000
  H   H14       1.0  0.2293290778330785  0.0670308187637616  0.5905075865284743  1.0000
  H   H15       1.0  0.2706697493289809  0.0670316884467823  0.09050945124877069  1.0000
  H   H16       1.0  0.7706677035514886  0.9329663745951962  0.40949242890460624  1.0000
  H   H17       1.0  0.7824951615965503  0.8258135993883967  0.7801900459475561  1.0000
  H   H18       1.0  0.2824963344344908  0.1741879423856645  0.7198170458960006  1.0000
  H   H19       1.0  0.2174990009693474  0.17419055143471948  0.2198158984838585  1.0000
  H   H20       1.0  0.7174978281314068  0.8258083812902726  0.28018260294413005  1.0000
  H   H21       1.0  0.6281542104477325  0.8426402264586699  0.8099375681051344  1.0000
  H   H22       1.0  0.128155383285673  0.1573639243644465  0.6900668781989411  1.0000
  H   H23       1.0  0.3718416979972758  0.1573604456323707  0.1900639136997739  1.0000
  H   H24       1.0  0.8718396522197763  0.8426410961416906  0.30993793469809117  1.0000
  H   H25       1.0  0.2780050604185575  0.3188979788096304  0.5527911950893055  1.0000
  H   H26       1.0  0.7780073793388453  0.6811096507455687  0.9472147175865898  1.0000
  H   H27       1.0  0.7219899750868919  0.6811026932814102  0.44720729046092333  1.0000
  H   H28       1.0  0.221988529106163  0.3188988484926512  0.05279530700061489  1.0000
  H   H29       1.0  0.3954529671095983  0.28762330772868683  0.6245025278267349  1.0000
  H   H30       1.0  0.8954587777881072  0.7123834521434915  0.8755052654472166  1.0000
  H   H31       1.0  0.6045403225167405  0.712379103728388  0.3754959418457347  1.0000
  H   H32       1.0  0.10453887653601159  0.2876241774117076  0.12449914910133941  1.0000
  H   H33       1.0  0.3468206315019131  0.1804627053747083  0.4926590178177221  1.0000
  H   H34       1.0  0.846827315119981  0.81954405449747  0.007347277328889819  1.0000
  H   H35       1.0  0.6531787687013164  0.819541445448415  0.5073356906586355  1.0000
  H   H36       1.0  0.1531738309623663  0.1804600963256462  0.9926631614845434  1.0000
  C   C1        1.0  0.6388616870423718  0.1138249833359666  0.7352954084588461  1.0000
  C   C2        1.0  0.1388637328198641  0.8861765584380875  0.76470344368434  1.0000
  C   C3        1.0  0.361136840221306  0.8861739493890254  0.26470009671446354  1.0000
  C   C4        1.0  0.8611356673833654  0.11382585301898729  0.2353002694338215  1.0000
  C   C5        1.0  0.7522862153195219  0.0858551077308931  0.6935158992973811  1.0000
  C   C6        1.0  0.2522838963992413  0.9141429553110854  0.8064844827286564  1.0000
  C   C7        1.0  0.2477184225210465  0.9141403462620232  0.30648563014079855  1.0000
  C   C8        1.0  0.7477216143808859  0.0858620651950517  0.1935195811047024  1.0000
  C   C9        1.0  0.7042326386375067  0.973015277664558  0.7721890157945596  1.0000
  C   C10       1.0  0.20423381147544717  0.026984524743454596  0.727812848481065  1.0000
  C   C11       1.0  0.295765888626164  0.0269827853774203  0.227813613422498  1.0000
  C   C12       1.0  0.7957638428486717  0.9730161473475787  0.2721871351965035  1.0000
  C   C13       1.0  0.5496507561712178  0.2006428301699614  0.7413497104280111  1.0000
  C   C14       1.0  0.0496519290091584  0.7993578419210792  0.7586510223132308  1.0000
  C   C15       1.0  0.4503434063946727  0.7993561025550378  0.25864279849061234  1.0000
  C   C16       1.0  0.9503439794358499  0.20064891795109926  0.2413552728333812  1.0000
  C   C17       1.0  0.8325582451366174  0.1282199766824235  0.6334666258504598  1.0000
  C   C18       1.0  0.332554180337219  0.8717772166765343  0.8665326405189545  1.0000
  C   C19       1.0  0.1674490115226206  0.8717763469935207  0.36653302298966395  1.0000
  C   C20       1.0  0.6674487116242389  0.1282260644635613  0.1334661957464718  1.0000
  C   C21       1.0  0.7114745451945835  0.8877872113910641  0.8194048457486717  1.0000
  C   C22       1.0  0.2114757180325242  0.1122160697490315  0.680599983026113  1.0000
  C   C23       1.0  0.2885204903108658  0.1122160697490315  0.1806014811534595  1.0000
  C   C24       1.0  0.7885175715938075  0.8877854720250227  0.31940036724440557  1.0000
  C   C25       1.0  0.6075528369247039  0.37269396137556743  0.43302334080229343  1.0000
  C   C26       1.0  0.1075592473999833  0.6273032319833902  0.06697218024876864  1.0000
  C   C27       1.0  0.3924448173994151  0.6273093197645281  0.5669732482721201  1.0000
  C   C28       1.0  0.8924445175010263  0.3726896129604711  0.9330245040921952  1.0000
  C   C29       1.0  0.5184545152562876  0.376003105266534  0.36340399478953606  1.0000
  C   C30       1.0  0.0184574339733388  0.623984521579203  0.13658449748433554  1.0000
  C   C31       1.0  0.48154313906783125  0.6240045242886652  0.6365966744406676  1.0000
  C   C32       1.0  0.9815445850485602  0.376000496217479  0.8634051422016784  1.0000
  C   C33       1.0  0.4484622216513614  0.3172125331169369  0.48712493269744067  1.0000
  C   C34       1.0  0.9484689052694293  0.6827846602420209  0.012873584608307561  1.0000
  C   C35       1.0  0.5515363056123093  0.6827916177061795  0.5128735210972692  1.0000
  C   C36       1.0  0.0515357325711392  0.31721166343391616  0.9871283114228362  1.0000
  C   C37       1.0  0.7319475966028718  0.4098946525545486  0.4443043544884446  1.0000
  C   C38       1.0  0.23194615062214297  0.5901025408044092  0.05569641000830928  1.0000
  C   C39       1.0  0.2680509306608059  0.5901094982685677  0.5556896049242397  1.0000
  C   C40       1.0  0.7680576142788665  0.4098946525545486  0.9443095979341365  1.0000
  C   C41       1.0  0.505355184278045  0.4212414069160246  0.2790850455923107  1.0000
  C   C42       1.0  0.005354611236875  0.5787514380278296  0.22090040279359616  1.0000
  C   C43       1.0  0.4946477076834057  0.5787627439070917  0.7209111610113865  1.0000
  C   C44       1.0  0.9946543913014734  0.4212361888179075  0.7790865913529287  1.0000
  C   C45       1.0  0.36210143843074855  0.2742023593645939  0.5429336548452852  1.0000
  C   C46       1.0  0.8621046302905953  0.7258026611415431  0.9570726561790864  1.0000
  C   C47       1.0  0.6378962158933703  0.725800052092481  0.45706406576351816  1.0000
  C   C48       1.0  0.1378956428521931  0.2742006199985525  0.042933670723037706  1.0000
  N   N1        1.0  0.6106343135575969  0.04133429457287009  0.7830429056607073  1.0000
  N   N2        1.0  0.1106389781537658  0.9586646381521291  0.7169548467036081  1.0000
  N   N3        1.0  0.3893642137060738  0.9586628987860877  0.21695411351770136  1.0000
  N   N4        1.0  0.8893612949890226  0.041336903621932194  0.2830477507579232  1.0000
  N   N5        1.0  0.7912254300967091  0.9972976972649903  0.7175265303738032  1.0000
  N   N6        1.0  0.2912266029346497  0.0027029748260503  0.7824779476857842  1.0000
  N   N7        1.0  0.2087757159856309  0.0026960173618917  0.28247426587847  1.0000
  N   N8        1.0  0.7087745431476904  0.9972994366310246  0.21752202011402486  1.0000
  N   N9        1.0  0.5625545486889081  0.3375787700784656  0.509551754102894  1.0000
  N   N10       1.0  0.0625627050432911  0.66241581423143  0.9904441652966369  1.0000
  N   N11       1.0  0.4374431056352108  0.6624253807446507  0.4904459506281427  1.0000
  N   N12       1.0  0.9374419327972703  0.3375770307124241  0.00955551529900588  1.0000
  N   N13       1.0  0.4202942080564043  0.3409453130487492  0.4003775770079939  1.0000
  N   N14       1.0  0.9202991457953615  0.6590466622120914  0.09961499542166045  1.0000
  N   N15       1.0  0.5797017003885969  0.6590605771404084  0.5996201118452831  1.0000
  N   N16       1.0  0.0797020002869857  0.3409453130487492  0.9003828204536858  1.0000
  O   O1        1.0  0.4552545643370678  0.2017586334845731  0.7922035697896065  1.0000
  O   O2        1.0  0.9552612479551357  0.7982489960706189  0.7077970994405973  1.0000
  O   O3        1.0  0.5447378523497122  0.7982489960706189  0.2077948522495844  1.0000
  O   O4        1.0  0.0447364063689832  0.2017516760204145  0.2922088767463293  1.0000
  O   O5        1.0  0.5685874339608361  0.2681641501569842  0.6963771639978091  1.0000
  O   O6        1.0  0.068586860919666  0.7318426097151941  0.8036231386394377  1.0000
  O   O7        1.0  0.4314137121215039  0.7318356522510356  0.3036164605774374  1.0000
  O   O8        1.0  0.931414285162674  0.2681658895230186  0.19638688594776715  1.0000
  O   O9        1.0  0.8043945962394402  0.2094561978942835  0.6082168233676057  1.0000
  O   O10       1.0  0.3043975149564915  0.7905427348307157  0.8917891686970805  1.0000
  O   O11       1.0  0.1956039310242375  0.7905331683174948  0.3917828889835562  1.0000
  O   O12       1.0  0.695607122884077  0.2094596766263592  0.10820780284804239  1.0000
  O   O13       1.0  0.9329235976551047  0.0781062320230106  0.6079461852743151  1.0000
  O   O14       1.0  0.43291604109748494  0.9218953097510507  0.8920534159325443  1.0000
  O   O15       1.0  0.0670871507623545  0.9218892219699127  0.3920530969728588  1.0000
  O   O16       1.0  0.5670877238035246  0.0781062320230106  0.1079461852743151  1.0000
  O   O17       1.0  0.7839276554080428  0.42073786044746697  0.5326982564356726  1.0000
  O   O18       1.0  0.2839192259108714  0.5792610722775322  0.9673017431196556  1.0000
  O   O19       1.0  0.2160726177347385  0.5792619419605529  0.4672938700122344  1.0000
  O   O20       1.0  0.7160827931110275  0.4207430785455841  0.032706448502771907  1.0000
  O   O21       1.0  0.779395353232978  0.43053918808247  0.36937732459108463  1.0000
  O   O22       1.0  0.2794017637082575  0.5694536568613912  0.13062310506823138  1.0000
  O   O23       1.0  0.2206031740306926  0.569465832423667  0.6306177504782298  1.0000
  O   O24       1.0  0.7206107305883123  0.4305409274485044  0.8693788068406718  1.0000
  O   O25       1.0  0.5928027772459572  0.44104756801269923  0.23288102457990337  1.0000
  O   O26       1.0  0.0928144253585685  0.5589426678820999  0.267109316536505  1.0000
  O   O27       1.0  0.4071974958968312  0.5589513647122998  0.7671159787207457  1.0000
  O   O28       1.0  0.9071928313006693  0.44104321959759557  0.7328799406787923  1.0000
  O   O29       1.0  0.3992223201126635  0.4399569855056598  0.2603224406087818  1.0000
  O   O30       1.0  0.8992316225493937  0.5600393381702773  0.23967196478565714  1.0000
  O   O31       1.0  0.6007762071510072  0.5600436865853737  0.7396737977504344  1.0000
  O   O32       1.0  0.1007799988076172  0.43995263709056326  0.7603228548350103  1.0000
  O   O33       1.0  0.44792449088483005  0.1825977771887182  0.0092017001535254  1.0000
  O   O34       1.0  0.9479241909864482  0.817403764585336  0.4908023954353454  1.0000
  O   O35       1.0  0.5520696716810605  0.8174020252193017  0.9908001641220923  1.0000
  O   O36       1.0  0.052070844519001  0.1825942984566353  0.5092009828453783  1.0000
