data_image0
_chemical_formula_structural       Zn8H68C100S4N32O12
_chemical_formula_sum              "Zn8 H68 C100 S4 N32 O12"
_cell_length_a       14.988456972514328
_cell_length_b       15.056345181796285
_cell_length_c       24.152682110819352
_cell_angle_alpha    89.99764296572488
_cell_angle_beta     89.99963045107182
_cell_angle_gamma    102.15902815237234

_space_group_name_H-M_alt    "P 1"
_space_group_IT_number       1

loop_
  _space_group_symop_operation_xyz
  'x, y, z'

loop_
  _atom_site_type_symbol
  _atom_site_label
  _atom_site_symmetry_multiplicity
  _atom_site_fract_x
  _atom_site_fract_y
  _atom_site_fract_z
  _atom_site_occupancy
  Zn  Zn1       1.0  0.5374676757054715  0.4451134494410526  0.5567607219146282  1.0000
  Zn  Zn2       1.0  0.3944362952432527  0.58147431358546  0.561477281863077  1.0000
  Zn  Zn3       1.0  0.10560293663231589  0.9185659449053036  0.0615165214985538  1.0000
  Zn  Zn4       1.0  0.962536274515969  0.054882638573325  0.056782803054559815  1.0000
  Zn  Zn5       1.0  0.3844003575309287  0.5713732798648865  0.42169132283179084  1.0000
  Zn  Zn6       1.0  0.5318325957301652  0.4421728501537103  0.421057016530888  1.0000
  Zn  Zn7       1.0  0.9681807218200121  0.05786802157457771  0.9210763979290422  1.0000
  Zn  Zn8       1.0  0.11557635261431191  0.9286092291403919  0.9217243346665569  1.0000
  H   H1        1.0  0.41734217654486366  0.26874907710003265  0.6122616424350369  1.0000
  H   H2        1.0  0.666934890230415  0.1036303569220536  0.35689032997813547  1.0000
  H   H3        1.0  0.8328112323956701  0.3963920613885534  0.8570341365613957  1.0000
  H   H4        1.0  0.9709996581068053  0.5783105091834743  0.8513705872237625  1.0000
  H   H5        1.0  0.2507247606626493  0.13439519191441465  0.3283523649978619  1.0000
  H   H6        1.0  0.6357531705830722  0.8117810727756166  0.2922220273261686  1.0000
  H   H7        1.0  0.8641064892699788  0.688216599790934  0.7923374293568415  1.0000
  H   H8        1.0  0.24933691473324154  0.36560298494445936  0.8283582283052624  1.0000
  H   H9        1.0  0.7307732700787284  0.6011132877336041  0.7433532892234851  1.0000
  H   H10       1.0  0.2932812628946452  0.42600761639365464  0.7350053258655649  1.0000
  H   H11       1.0  0.20675921129159036  0.07400431219654992  0.23499639668632707  1.0000
  H   H12       1.0  0.5009140041842883  0.7217471984159547  0.6611004249738883  1.0000
  H   H13       1.0  0.7691131167228634  0.8988764300252401  0.2432510007976774  1.0000
  H   H14       1.0  0.3023933734488864  0.4059322462102203  0.26194004902548335  1.0000
  H   H15       1.0  0.6793910848135097  0.5676776163821631  0.21432740555964364  1.0000
  H   H16       1.0  0.8206254095340809  0.9322783285014256  0.7143019564652918  1.0000
  H   H17       1.0  0.19760493307346386  0.09407855224142031  0.7619285691282657  1.0000
  H   H18       1.0  0.882162231693428  0.6610886772447985  0.4000135361663625  1.0000
  H   H19       1.0  0.04738766443691837  0.6719740057893446  0.40323132702432213  1.0000
  H   H20       1.0  0.45261519820841295  0.8280239356419089  0.9032364667210685  1.0000
  H   H21       1.0  0.617848607029117  0.8389149805563821  0.9000213678087405  1.0000
  H   H22       1.0  0.03368974578967246  0.6389640700180338  0.5805367411199925  1.0000
  H   H23       1.0  0.9991470947927752  0.7782896733761505  0.1611697336350346  1.0000
  H   H24       1.0  0.8691955079394588  0.6294253365851361  0.5774584593225782  1.0000
  H   H25       1.0  0.6307900916653537  0.870554397159161  0.0774642404587595  1.0000
  H   H26       1.0  0.4662957504660453  0.8609997454887478  0.0805443448402912  1.0000
  H   H27       1.0  0.2314231926438239  0.43460402676059573  0.36035645862038723  1.0000
  H   H28       1.0  0.6375161493071387  0.5026040258506796  0.3084583214520862  1.0000
  H   H29       1.0  0.8624871570961117  0.997414387159985  0.8084639996568299  1.0000
  H   H30       1.0  0.26854506952994234  0.0653478160257706  0.8603238428155181  1.0000
  H   H31       1.0  0.19228414264088659  0.6419403206366213  0.5820889437081078  1.0000
  H   H32       1.0  0.7170022887605398  0.5960874101601733  0.5751571923546948  1.0000
  H   H33       1.0  0.7829874541157976  0.9038783898987081  0.0751627061330922  1.0000
  H   H34       1.0  0.08265451004930209  0.2312685410213079  0.11226713551531732  1.0000
  H   H35       1.0  0.3077592973723284  0.8581168067772041  0.0821060807120162  1.0000
  H   H36       1.0  0.18457267419137924  0.6212015917352004  0.4034755297076202  1.0000
  H   H37       1.0  0.7205318931298879  0.5885808365070561  0.3961067573502035  1.0000
  H   H38       1.0  0.7794568852235243  0.9115075158151601  0.8961145207416479  1.0000
  H   H39       1.0  0.3153867657034509  0.878733686991069  0.903484135852267  1.0000
  H   H40       1.0  0.4155464961633014  0.2542795356341473  0.3916577552899271  1.0000
  H   H41       1.0  0.4619510599603771  0.6964611998921629  0.30764494350512456  1.0000
  H   H42       1.0  0.03794322908062503  0.803457175670552  0.8077293748444561  1.0000
  H   H43       1.0  0.08452459544573541  0.24574794358355942  0.8916839085089876  1.0000
  H   H44       1.0  0.2349445713991329  0.4548617319545158  0.6304119178601439  1.0000
  H   H45       1.0  0.6499998612312653  0.9347280585470732  0.35557202577360414  1.0000
  H   H46       1.0  0.6756301060766817  0.5276251169236091  0.6592896711909262  1.0000
  H   H47       1.0  0.8243300252374083  0.9723200380667478  0.15924384398605443  1.0000
  H   H48       1.0  0.2651004129714565  0.045196847313242514  0.13040392660983  1.0000
  H   H49       1.0  0.5787195072630026  0.08385940855007594  0.5738230280113968  1.0000
  H   H50       1.0  0.550818506566763  0.9215577693653997  0.5711429456764137  1.0000
  H   H51       1.0  0.9494807304495725  0.578456149015395  0.0712171721614254  1.0000
  H   H52       1.0  0.9215760057940302  0.4161603232896739  0.07389185540456822  1.0000
  H   H53       1.0  0.6845281925990249  0.8780083704011761  0.5614494658554321  1.0000
  H   H54       1.0  0.2210191052808668  0.2162892933371482  0.5885454016936864  1.0000
  H   H55       1.0  0.2789920715453604  0.2837573725738238  0.0885513765615045  1.0000
  H   H56       1.0  0.5455372473105627  0.08939528967423631  0.35438787127674237  1.0000
  H   H57       1.0  0.8157221075477993  0.6216600633518539  0.061545519317057505  1.0000
  H   H58       1.0  0.5976895171802993  0.24805368672612355  0.39759207262765284  1.0000
  H   H59       1.0  0.5266407445033963  0.7590643541214207  0.39445119762835645  1.0000
  H   H60       1.0  0.973304908845101  0.7409552325448276  0.894546008936203  1.0000
  H   H61       1.0  0.9023942591548247  0.2520420750995883  0.8976422016181829  1.0000
  H   H62       1.0  0.5794537705970199  0.2390332790814541  0.5763790425843568  1.0000
  H   H63       1.0  0.5214978941617544  0.7716485814256587  0.5734419586656827  1.0000
  H   H64       1.0  0.9785745658862837  0.7283890305297761  0.0735292421218929  1.0000
  H   H65       1.0  0.9204808886412293  0.26092676696877254  0.0764346559755182  1.0000
  H   H66       1.0  0.954208348513248  0.41066396255170184  0.8544307436578293  1.0000
  H   H67       1.0  0.8496738482044963  0.5652694966367876  0.8557365020612481  1.0000
  H   H68       1.0  0.5286637949842968  0.9217322735764814  0.3513359968992233  1.0000
  C   C1        1.0  0.38075250140866496  0.3235091215352242  0.6092047752965968  1.0000
  C   C2        1.0  0.7616574715901835  0.6113556761898522  0.4860354179865567  1.0000
  C   C3        1.0  0.19282808921050076  0.1611738358782873  0.14168983361622622  1.0000
  C   C4        1.0  0.7383305931679872  0.8886737029378511  0.9860412483565497  1.0000
  C   C5        1.0  0.35200278399168633  0.859506440134851  0.9926337033329419  1.0000
  C   C6        1.0  0.5926682935832942  0.20195315811432832  0.48662458918492757  1.0000
  C   C7        1.0  0.5399700661115147  0.8084081346763056  0.4830042603753456  1.0000
  C   C8        1.0  0.9600642414011135  0.6916169042065408  0.9831008122654125  1.0000
  C   C9        1.0  0.9073589958337394  0.2980633466325883  0.9866801789011819  1.0000
  C   C10       1.0  0.5968969443305595  0.055934656471073714  0.4365258929700744  1.0000
  C   C11       1.0  0.5855993152698673  0.9615505534684062  0.4351958947889115  1.0000
  C   C12       1.0  0.9143164127254266  0.5384826401566303  0.9352932964383811  1.0000
  C   C13       1.0  0.532942022043585  0.6645305896991689  0.6546486699484007  1.0000
  C   C14       1.0  0.9030319446120245  0.4440977628587532  0.9366140163161134  1.0000
  C   C15       1.0  0.5937833412656274  0.10564348644762593  0.48521389626178296  1.0000
  C   C16       1.0  0.5678540358908961  0.9070953705524902  0.4825218211632105  1.0000
  C   C17       1.0  0.9321985548419178  0.5929256846715065  0.9826197973585381  1.0000
  C   C18       1.0  0.9062573677393787  0.39437565249465223  0.9852886984629665  1.0000
  C   C19       1.0  0.5820216673454012  0.05179635041798752  0.5336133719473111  1.0000
  C   C20       1.0  0.5684238236904164  0.9574748583671283  0.5321989219150112  1.0000
  C   C21       1.0  0.9317617122506192  0.5425379469321072  0.0322853733670101  1.0000
  C   C22       1.0  0.9181567803202101  0.4482149924444416  0.0336897387769284  1.0000
  C   C23       1.0  0.5907929867313441  0.9582098725151555  0.3724049530077025  1.0000
  C   C24       1.0  0.9670948550928455  0.8354842358704173  0.1546920761314254  1.0000
  C   C25       1.0  0.6022351145458772  0.06485894850030861  0.3738453489344522  1.0000
  C   C26       1.0  0.8975402789276503  0.43517197591742024  0.8739411951335043  1.0000
  C   C27       1.0  0.908942340813013  0.5418140105190261  0.872504397348493  1.0000
  C   C28       1.0  0.2526443433579643  0.1813940631773292  0.29377467498861176  1.0000
  C   C29       1.0  0.6732633333651705  0.776586780494391  0.2639078102578267  1.0000
  C   C30       1.0  0.8266303487625705  0.7233995572902218  0.7639970688972255  1.0000
  C   C31       1.0  0.2474058615152828  0.3186074087163747  0.7937792096596965  1.0000
  C   C32       1.0  0.7508977684959034  0.6741320403468906  0.7362305289795331  1.0000
  C   C33       1.0  0.271490738494684  0.35279658414977894  0.740924917813338  1.0000
  C   C34       1.0  0.22854142784213846  0.14721410383084793  0.24092103802611578  1.0000
  C   C35       1.0  0.1192564046450428  0.17651893209473712  0.1092103957305213  1.0000
  C   C36       1.0  0.7490187766494073  0.8258485232718372  0.2361571204424564  1.0000
  C   C37       1.0  0.6957150313528969  0.7143774375292298  0.7007141818036687  1.0000
  C   C38       1.0  0.27317379169202377  0.2960726806482157  0.6946839397288259  1.0000
  C   C39       1.0  0.2268418654855608  0.20395009265420333  0.19468657210768472  1.0000
  C   C40       1.0  0.8042671963728765  0.7855880644649107  0.20069211672186074  1.0000
  C   C41       1.0  0.2838690495145996  0.4005586728331849  0.3753474879320819  1.0000
  C   C42       1.0  0.584214630968724  0.5406566933052448  0.3145858135466497  1.0000
  C   C43       1.0  0.915769767941697  0.9593439213451664  0.8146067807437661  1.0000
  C   C44       1.0  0.21612362984238587  0.09940836659237826  0.8753327940213326  1.0000
  C   C45       1.0  0.7252334377966604  0.8098606361839131  0.6939749110493594  1.0000
  C   C46       1.0  0.305647063838741  0.3195220775029384  0.3562527560891766  1.0000
  C   C47       1.0  0.24569694554229926  0.20181215253479934  0.7043756525597402  1.0000
  C   C48       1.0  0.25430230481043736  0.29820897201258834  0.2043806981016161  1.0000
  C   C49       1.0  0.774795722930122  0.6900910780250556  0.1939823634602575  1.0000
  C   C50       1.0  0.2782255696527471  0.332894508730739  0.2570157205952626  1.0000
  C   C51       1.0  0.6989874029845636  0.6404813431730361  0.2218274572020249  1.0000
  C   C52       1.0  0.8010096155139477  0.859483683413039  0.7218391581654944  1.0000
  C   C53       1.0  0.22178394039388394  0.16711587730076627  0.7570109263766585  1.0000
  C   C54       1.0  0.2763609573311143  0.2754209281887654  0.3030837722225215  1.0000
  C   C55       1.0  0.6475836256993547  0.6817944574494705  0.2582252445076136  1.0000
  C   C56       1.0  0.8523573560723393  0.8181842103044661  0.7582800723829877  1.0000
  C   C57       1.0  0.5773267974223657  0.6248144622869134  0.2919914809372841  1.0000
  C   C58       1.0  0.22367171983718484  0.2245796906834983  0.8030846083407681  1.0000
  C   C59       1.0  0.9147889175519665  0.6561867070662828  0.4399588913667074  1.0000
  C   C60       1.0  0.0086165218230434  0.6619522647350565  0.4417855395140577  1.0000
  C   C61       1.0  0.49138192935171093  0.8380404206446317  0.9417904608468247  1.0000
  C   C62       1.0  0.5852100903638942  0.843811412536873  0.9399636207285411  1.0000
  C   C63       1.0  0.053497568301637065  0.6515939399638245  0.49182377394624416  1.0000
  C   C64       1.0  0.8611755941568333  0.6398895188509358  0.48816559855742975  1.0000
  C   C65       1.0  0.6388166605863786  0.8601138583576289  0.9881714644834362  1.0000
  C   C66       1.0  0.4464972938642972  0.8483863828492916  0.9918297247867544  1.0000
  C   C67       1.0  0.001242027513633557  0.6445728777384617  0.5406236710249814  1.0000
  C   C68       1.0  0.9226255697700976  0.875163047894148  0.7920375996439973  1.0000
  C   C69       1.0  0.9076602186401743  0.6391517327945736  0.5388210313737289  1.0000
  C   C70       1.0  0.5923288562545962  0.8608347089399332  0.0388266066042462  1.0000
  C   C71       1.0  0.4987465826303533  0.855401217096251  0.04063108364017861  1.0000
  C   C72       1.0  0.20462292835965454  0.6337949686341703  0.5382586511969194  1.0000
  C   C73       1.0  0.7031508134123071  0.5860998122139878  0.5313610045852499  1.0000
  C   C74       1.0  0.79683627744582  0.9139038859363923  0.0313686212551758  1.0000
  C   C75       1.0  0.2953998401852971  0.8662253082768532  0.038274473914278004  1.0000
  C   C76       1.0  0.5919156583217459  0.26082222465820604  0.4415622192694215  1.0000
  C   C77       1.0  0.5186058065239791  0.7471765246405015  0.438615835021281  1.0000
  C   C78       1.0  0.9813605067137418  0.752850875471161  0.9387073796418264  1.0000
  C   C79       1.0  0.19437618240689858  0.18046911619342154  0.8562524690834435  1.0000
  C   C80       1.0  0.908143862230851  0.23922780284459588  0.9416080451520372  1.0000
  C   C81       1.0  0.20118617054356489  0.6243726567185776  0.4473044945576278  1.0000
  C   C82       1.0  0.7049855017270658  0.5831400164402468  0.4400308016173824  1.0000
  C   C83       1.0  0.794997494344166  0.9169234419890844  0.9400399334725051  1.0000
  C   C84       1.0  0.2987944065517071  0.8755890784700785  0.9473170704344868  1.0000
  C   C85       1.0  0.5826061175223317  0.25629714159649103  0.532667730575092  1.0000
  C   C86       1.0  0.5159782513514131  0.7534119776946826  0.5300217703662612  1.0000
  C   C87       1.0  0.9840825417025769  0.7466212943319661  0.030108143470378896  1.0000
  C   C88       1.0  0.9173785694864023  0.2436930346712175  0.0327188240470235  1.0000
  C   C89       1.0  0.37662305482587743  0.30754386053065746  0.3914867258410197  1.0000
  C   C90       1.0  0.14799357029922086  0.6404744128136601  0.492625414167172  1.0000
  C   C91       1.0  0.49617759525987276  0.6407731655476143  0.3151274292012616  1.0000
  C   C92       1.0  0.00375421973637902  0.8591766318917421  0.8151872582839914  1.0000
  C   C93       1.0  0.12341859672563518  0.19245940253283325  0.8914972141525511  1.0000
  C   C94       1.0  0.28787446639127273  0.4188988987236188  0.6189110860925595  1.0000
  C   C95       1.0  0.6214547768277326  0.5650093734548636  0.6546813080489287  1.0000
  C   C96       1.0  0.8785315606529451  0.9349605656674316  0.1546689615797234  1.0000
  C   C97       1.0  0.21216144199869544  0.08115146626342101  0.11890814068981113  1.0000
  C   C98       1.0  0.30719399988383606  0.33886684561958463  0.6416899648543222  1.0000
  C   C99       1.0  0.6195955183937015  0.6537589595323043  0.6725283659234621  1.0000
  C   C100      1.0  0.8804067695911826  0.8462196425959689  0.1725293250086679  1.0000
  S   S1        1.0  0.6745847156474413  0.879791817229318  0.6498119375081117  1.0000
  S   S2        1.0  0.2374106591713669  0.1197193754893036  0.6503305150438408  1.0000
  S   S3        1.0  0.2625735644246845  0.38031222613875587  0.15034094509134383  1.0000
  S   S4        1.0  0.825560728711025  0.6201081369829922  0.14991414223160862  1.0000
  N   N1        1.0  0.40413354117135475  0.3906117703374863  0.5715595800960003  1.0000
  N   N2        1.0  0.619608084639239  0.5439923156485167  0.5136906046239887  1.0000
  N   N3        1.0  0.8803750610913211  0.9560315863170319  0.0137021587632802  1.0000
  N   N4        1.0  0.21548606815555615  0.884473547704161  0.021366388377657607  1.0000
  N   N5        1.0  0.5818454120804689  0.3428068609989054  0.45932576563184563  1.0000
  N   N6        1.0  0.48289485661468484  0.66315296159204  0.4582119556120645  1.0000
  N   N7        1.0  0.01706913584821022  0.8368837259086137  0.9582887521533368  1.0000
  N   N8        1.0  0.9182035263986704  0.1572356972752047  0.9593622934484999  1.0000
  N   N9        1.0  0.28226143126490644  0.6098344057499858  0.4645466537867762  1.0000
  N   N10       1.0  0.6207342245138108  0.5424456194582988  0.4574157081383703  1.0000
  N   N11       1.0  0.8792471933608679  0.9576139233280473  0.9574283907412566  1.0000
  N   N12       1.0  0.48919388645092  0.5903042390470364  0.6271451815376352  1.0000
  N   N13       1.0  0.21772938715691478  0.8901467905584044  0.9645675604875948  1.0000
  N   N14       1.0  0.5761522708106029  0.34010228626878114  0.5161435333472042  1.0000
  N   N15       1.0  0.48202352561504813  0.6673832103992298  0.514367990994586  1.0000
  N   N16       1.0  0.01799132720827856  0.8326552287576449  0.014444139846503404  1.0000
  N   N17       1.0  0.9238494561956188  0.1599017347861462  0.016181682470318  1.0000
  N   N18       1.0  0.39813292712057086  0.37855931783634833  0.4271811737229926  1.0000
  N   N19       1.0  0.45894305478581277  0.5723649967701122  0.3494939850041376  1.0000
  N   N20       1.0  0.041003611072674986  0.9275937237980475  0.8495418485788592  1.0000
  N   N21       1.0  0.1018931847441422  0.12143482523672591  0.927185314885925  1.0000
  N   N22       1.0  0.34635783828463224  0.4489953101576206  0.5772922757944698  1.0000
  N   N23       1.0  0.010849664181876032  0.909722670892549  0.12719759539059794  1.0000
  N   N24       1.0  0.5450135655917662  0.5280481473221174  0.6267556343876919  1.0000
  N   N25       1.0  0.9549965831022365  0.9719484313715727  0.12677267704972914  1.0000
  N   N26       1.0  0.1536646016788623  0.05104172710070291  0.0772997555264112  1.0000
  N   N27       1.0  0.09587413981413559  0.10941080737102032  0.0715711984836247  1.0000
  N   N28       1.0  0.33959163825084454  0.4353732910791949  0.41732638944402106  1.0000
  N   N29       1.0  0.5144716644530689  0.5101081562433624  0.34938805172221526  1.0000
  N   N30       1.0  0.9855077955128946  0.9898806024242435  0.8494137891418418  1.0000
  N   N31       1.0  0.16040531664675228  0.06459800942445075  0.9173147540576281  1.0000
  N   N32       1.0  0.2845345231272915  0.6155467234479276  0.521343164006403  1.0000
  O   O1        1.0  0.5765590141981888  0.861099980066733  0.6569820468281549  1.0000
  O   O2        1.0  0.9235873269701571  0.6389043948055217  0.1570857100760037  1.0000
  O   O3        1.0  0.7773138611944929  0.5268704968219852  0.1542943218046915  1.0000
  O   O4        1.0  0.800334314213451  0.6604603895895452  0.0915451085649153  1.0000
  O   O5        1.0  0.7229135614783714  0.9730186790618875  0.6540879391522624  1.0000
  O   O6        1.0  0.6997828653335957  0.8392308958781811  0.5914982804743829  1.0000
  O   O7        1.0  0.32787978395803913  0.11931101495740394  0.6300366663451982  1.0000
  O   O8        1.0  0.17771470555392446  0.03703467011209941  0.6676628093841402  1.0000
  O   O9        1.0  0.18141624543656573  0.16053281306656694  0.6031570746322785  1.0000
  O   O10       1.0  0.17210342035605916  0.38072005567898515  0.130051723327675  1.0000
  O   O11       1.0  0.3222634430402493  0.4630009273841297  0.16767436596775548  1.0000
  O   O12       1.0  0.31858082135685345  0.33951790679405763  0.10316709946502559  1.0000
