data_image0
_chemical_formula_structural       Cu4H20C26I4N8
_chemical_formula_sum              "Cu4 H20 C26 I4 N8"
_cell_length_a       4.0361432260171854
_cell_length_b       8.685876804928629
_cell_length_c       21.87481108020289
_cell_angle_alpha    90.3039108648305
_cell_angle_beta     90.0001222366535
_cell_angle_gamma    89.9997091350834

_space_group_name_H-M_alt    "P 1"
_space_group_IT_number       1

loop_
  _space_group_symop_operation_xyz
  'x, y, z'

loop_
  _atom_site_type_symbol
  _atom_site_label
  _atom_site_symmetry_multiplicity
  _atom_site_fract_x
  _atom_site_fract_y
  _atom_site_fract_z
  _atom_site_occupancy
  Cu  Cu1       1.0  0.21676786230217723  0.40579232235402435  0.8413542494131506  1.0000
  Cu  Cu2       1.0  0.7167758642299447  0.5942083598350862  0.1586475679586314  1.0000
  Cu  Cu3       1.0  0.627678160322276  0.027048723337927103  0.540366338068317  1.0000
  Cu  Cu4       1.0  0.1276905214667039  0.9729464175839766  0.4596354111318989  1.0000
  H   H1        1.0  0.7270393805923238  0.7871606794189319  0.6778820590499279  1.0000
  H   H2        1.0  0.2270462334378394  0.2128342604357201  0.322116995535481  1.0000
  H   H3        1.0  0.5513515444521033  0.9337460008658598  0.7841780960891569  1.0000
  H   H4        1.0  0.05134911602070961  0.0662505016926715  0.2158217926242614  1.0000
  H   H5        1.0  0.2203128564770438  0.9796816995192331  0.8650844638349255  1.0000
  H   H6        1.0  0.7203193201750507  0.0203167623752591  0.1349109454888122  1.0000
  H   H7        1.0  0.9525914914031972  0.9957329597260269  0.9668825846275411  1.0000
  H   H8        1.0  0.4525881244021478  0.0042810397264859  0.0331143786344796  1.0000
  H   H9        1.0  0.8016475459335695  0.7491680464962444  0.0219770625318532  1.0000
  H   H10       1.0  0.301632476190683  0.25084741695737733  0.9780234896015757  1.0000
  H   H11       1.0  0.9156058628411686  0.498073667494907  0.968415336159076  1.0000
  H   H12       1.0  0.4156046237493598  0.5019368765675836  0.0315879939411943  1.0000
  H   H13       1.0  0.24088015683725666  0.28838231372155576  0.7367904449184763  1.0000
  H   H14       1.0  0.7409126007681834  0.7116206322464151  0.263210022767332  1.0000
  H   H15       1.0  0.3163663897284934  0.07543148914250249  0.6618749653102398  1.0000
  H   H16       1.0  0.8164071349004941  0.9245678205997265  0.3381255239471059  1.0000
  H   H17       1.0  0.8371858397204905  0.35542637608406114  0.5430482909974687  1.0000
  H   H18       1.0  0.3372165347242487  0.6445636795324177  0.4569517112068056  1.0000
  H   H19       1.0  0.7864434360465467  0.5804191797722638  0.6121311458419285  1.0000
  H   H20       1.0  0.2864610536279529  0.41957331399280673  0.38786792752509314  1.0000
  C   C1        1.0  0.48363255018702495  0.584238789088964  0.7241248100772567  1.0000
  C   C2        1.0  0.9836409969687453  0.4157601101665236  0.27587621734072343  1.0000
  C   C3        1.0  0.5970468993625248  0.7386168484766813  0.7167463840245389  1.0000
  C   C4        1.0  0.09705289621193461  0.2613806755172945  0.283254903210036  1.0000
  C   C5        1.0  0.5096092882462742  0.8155927468944456  0.7694463921874757  1.0000
  C   C6        1.0  0.0096057323238625  0.18440156040015415  0.23055300917212662  1.0000
  C   C7        1.0  0.2129829262850365  0.729862485526084  0.864590741206598  1.0000
  C   C8        1.0  0.7129768275587978  0.270134803860998  0.13540740231639603  1.0000
  C   C9        1.0  0.1558262140123716  0.875313961631207  0.889754406802716  1.0000
  C   C10       1.0  0.6558288746243763  0.12469152485412845  0.1102437440397921  1.0000
  C   C11       1.0  0.006272759750707701  0.8832493726552997  0.9469308158561559  1.0000
  C   C12       1.0  0.5062675719487617  0.11675647509034798  0.0530672625238893  1.0000
  C   C13       1.0  0.9175495007459276  0.7473792484669488  0.9769477089892505  1.0000
  C   C14       1.0  0.4175409274207453  0.2526336259405326  0.023053346424596603  1.0000
  C   C15       1.0  0.9836652123540971  0.6079520295675067  0.9480295523798931  1.0000
  C   C16       1.0  0.4836628422561944  0.3920526131042267  0.051972414310569114  1.0000
  C   C17       1.0  0.5121057799344656  0.4546835598210777  0.6818133153958784  1.0000
  C   C18       1.0  0.0121313616989909  0.5453153400872495  0.3181865643122634  1.0000
  C   C19       1.0  0.3786995523246617  0.3088068803661415  0.6947286892383531  1.0000
  C   C20       1.0  0.8787226707792187  0.6911934301219275  0.3052718352174324  1.0000
  C   C21       1.0  0.4205741399225645  0.18926256878126682  0.6532401355298703  1.0000
  C   C22       1.0  0.9206087381299852  0.810733054843041  0.3467590178338257  1.0000
  C   C23       1.0  0.7089275046436825  0.3452553502234821  0.5867665182727322  1.0000
  C   C24       1.0  0.2089601868306374  0.654736172983938  0.413232969664854  1.0000
  C   C25       1.0  0.6782938030918331  0.4708679612843697  0.625777604173166  1.0000
  C   C26       1.0  0.17831509170672183  0.5291282411020504  0.3742218889252626  1.0000
  I   I1        1.0  0.7184903953429966  0.22919757883499167  0.8534643168935575  1.0000
  I   I2        1.0  0.21849473532117966  0.7708031186657465  0.1465361299342973  1.0000
  I   I3        1.0  0.6256725965039253  0.15958420140244556  0.43275705254218627  1.0000
  I   I4        1.0  0.12566253169680414  0.8404109379016944  0.5672451528067555  1.0000
  N   N1        1.0  0.33414610337506184  0.5692054117874079  0.7789664106570698  1.0000
  N   N2        1.0  0.8341563884024128  0.4307903946783682  0.22103452932875461  1.0000
  N   N3        1.0  0.3522840741729922  0.710544470460036  0.8062146810569361  1.0000
  N   N4        1.0  0.8522881909387936  0.2894524629605825  0.19378490133934886  1.0000
  N   N5        1.0  0.1330609194238903  0.5979267434090049  0.8930573568285284  1.0000
  N   N6        1.0  0.6330606017298593  0.40207875913408503  0.106943525738437  1.0000
  N   N7        1.0  0.5840343254334072  0.20487933972205497  0.5997195051485917  1.0000
  N   N8        1.0  0.0840604465187482  0.7951136364686493  0.40027992727657147  1.0000
