data_image0
_chemical_formula_structural       Mn3H32C24N2O14
_chemical_formula_sum              "Mn3 H32 C24 N2 O14"
_cell_length_a       8.854486235847336
_cell_length_b       9.121792691862698
_cell_length_c       9.320800893321612
_cell_angle_alpha    92.56098476430937
_cell_angle_beta     96.97633263820646
_cell_angle_gamma    114.86806204946946

_space_group_name_H-M_alt    "P 1"
_space_group_IT_number       1

loop_
  _space_group_symop_operation_xyz
  'x, y, z'

loop_
  _atom_site_type_symbol
  _atom_site_label
  _atom_site_symmetry_multiplicity
  _atom_site_fract_x
  _atom_site_fract_y
  _atom_site_fract_z
  _atom_site_occupancy
  Mn  Mn1       1.0  0.9999993625611696  0.4999997523531903  0.4999948839302846  1.0000
  Mn  Mn2       1.0  0.12106463628001045  0.6417620054851979  0.8666383513940019  1.0000
  Mn  Mn3       1.0  0.8789326837744936  0.3582388074139757  0.13335651255888337  1.0000
  H   H1        1.0  0.8244021056806333  0.8905244423966394  0.5147431699352936  1.0000
  H   H2        1.0  0.1755975372033021  0.1094739147116215  0.4852572081422011  1.0000
  H   H3        1.0  0.584561951720886  0.6590326627537948  0.5860941670623134  1.0000
  H   H4        1.0  0.41543937045782536  0.3409669090042796  0.41390646128768077  1.0000
  H   H5        1.0  0.6459606595905784  0.7432256800444323  0.7701164718829077  1.0000
  H   H6        1.0  0.3540401221149735  0.2567726812770487  0.2298829641159301  1.0000
  H   H7        1.0  0.5269935662221313  0.8879954007693626  0.5157305269380713  1.0000
  H   H8        1.0  0.4730088947782036  0.1120041752019318  0.484269159333266  1.0000
  H   H9        1.0  0.5483069481789615  0.10465787962005632  0.7024423978012351  1.0000
  H   H10       1.0  0.4516955102835567  0.8953416868397638  0.29755943348268227  1.0000
  H   H11       1.0  0.6268817278170431  0.017718995362592693  0.839272842474962  1.0000
  H   H12       1.0  0.3731190513506845  0.9822793564474066  0.16072873853645575  1.0000
  H   H13       1.0  0.7999315083947138  0.1578637396082527  0.5777358301722657  1.0000
  H   H14       1.0  0.20006927077301387  0.8421346122017469  0.4222657508391521  1.0000
  H   H15       1.0  0.0353917462277948  0.10783134672933412  0.6937579019721267  1.0000
  H   H16       1.0  0.9646090342088413  0.8921670098364061  0.3062426065330044  1.0000
  H   H17       1.0  0.92402840774146  0.021078782588489303  0.8373668747068803  1.0000
  H   H18       1.0  0.07597237396409173  0.9789195787329916  0.16263256129195713  1.0000
  H   H19       1.0  0.20435869478183125  0.3282341533229244  0.0342065403264797  1.0000
  H   H20       1.0  0.7956414332377904  0.6717678403933576  0.9657962118705753  1.0000
  H   H21       1.0  0.39144380667033124  0.46466990066812747  0.7131316093280304  1.0000
  H   H22       1.0  0.6085557255386576  0.5353333087830023  0.2868711322862652  1.0000
  H   H23       1.0  0.3811651832146126  0.26899073158429593  0.6634878575129761  1.0000
  H   H24       1.0  0.6188343515321933  0.7310124873783224  0.3365127390887324  1.0000
  H   H25       1.0  0.5598003808987144  0.4137945606982427  0.7835179546806614  1.0000
  H   H26       1.0  0.4401980690950325  0.5862062231239732  0.21648347473760046  1.0000
  H   H27       1.0  0.45290527123713525  0.1671079477560085  0.96706051615881  1.0000
  H   H28       1.0  0.5470954538620276  0.8328928349811733  0.03294117411471832  1.0000
  H   H29       1.0  0.28159686786152355  0.05915913806904881  0.8238560069034406  1.0000
  H   H30       1.0  0.71840212260539  0.9408428561897537  0.17614661486597777  1.0000
  H   H31       1.0  0.240341547660968  0.10987331365829078  0.9968912455776716  1.0000
  H   H32       1.0  0.7596597191802772  0.8901286842712182  0.0031105645407265843  1.0000
  C   C1        1.0  0.9215334813405889  0.7679988656070832  0.661694113396102  1.0000
  C   C2        1.0  0.0784661628122549  0.2319994962569183  0.33830519217509897  1.0000
  C   C3        1.0  0.8258456529150138  0.8713251477068553  0.6306443529241648  1.0000
  C   C4        1.0  0.1741545329799052  0.1286744293494735  0.36935507249190636  1.0000
  C   C5        1.0  0.6439022796027132  0.7740625467089899  0.6573142831983745  1.0000
  C   C6        1.0  0.3560979062921986  0.2259370303473389  0.3426851422177037  1.0000
  C   C7        1.0  0.5381419116317545  0.8703300498075849  0.6320375226126416  1.0000
  C   C8        1.0  0.46185827172533334  0.12966951773726274  0.3679640478160096  1.0000
  C   C9        1.0  0.3603234442039636  0.7658661503497513  0.6616290051158414  1.0000
  C   C10       1.0  0.6396767404220398  0.2341334219508369  0.33837149280652307  1.0000
  C   C11       1.0  0.6229084538820331  0.0351761004601059  0.723372164996654  1.0000
  C   C12       1.0  0.3770928695655939  0.9648234760537091  0.2766273908470537  1.0000
  C   C13       1.0  0.8024025027743065  0.1326849566991513  0.691870096308314  1.0000
  C   C14       1.0  0.19759828020016101  0.8673134093780775  0.3081282671842303  1.0000
  C   C15       1.0  0.9090868030834613  0.037365367014729096  0.7210679281297415  1.0000
  C   C16       1.0  0.09091343561110676  0.9626317743586837  0.2789324605305126  1.0000
  C   C17       1.0  0.8868817410370439  0.29384141110206496  0.7856991209792098  1.0000
  C   C18       1.0  0.11312072377003092  0.7061581791364588  0.2142973477732468  1.0000
  C   C19       1.0  0.27324143880154855  0.39060334610455544  0.9474421412231703  1.0000
  C   C20       1.0  0.7267596658340166  0.6094059446065003  0.052559996681551986  1.0000
  C   C21       1.0  0.4227565504901846  0.36784684600615947  0.7515819790530074  1.0000
  C   C22       1.0  0.5772441218093293  0.6321563724139381  0.24841874797633778  1.0000
  C   C23       1.0  0.3272043748096324  0.15186418588504583  0.9176438559602289  1.0000
  C   C24       1.0  0.6727929363624909  0.848136593723943  0.08235851553668987  1.0000
  N   N1        1.0  0.3348868028997956  0.30533820618975943  0.8731082911502669  1.0000
  N   N2        1.0  0.6651133829951235  0.6946613708665764  0.12689113426580428  1.0000
  O   O1        1.0  0.9560902943820155  0.7053830532466351  0.5532848480007431  1.0000
  O   O2        1.0  0.04390880549092907  0.29461408391355076  0.44671648273817505  1.0000
  O   O3        1.0  0.956205557930481  0.7483048364360485  0.7945423298793414  1.0000
  O   O4        1.0  0.04379403088488939  0.25169595159939456  0.20545815746026358  1.0000
  O   O5        1.0  0.2703129622343212  0.639790320775738  0.5737488987185486  1.0000
  O   O6        1.0  0.7296849460173506  0.3602092478541437  0.4262524108548433  1.0000
  O   O7        1.0  0.31564044188387186  0.8094323315592716  0.7753385802703647  1.0000
  O   O8        1.0  0.6843619625100814  0.19056966582772358  0.22466336027566308  1.0000
  O   O9        1.0  0.8854724318263224  0.29330733602682807  0.9212129249848217  1.0000
  O   O10       1.0  0.11453051684753042  0.7066958860639829  0.07878699039348898  1.0000
  O   O11       1.0  0.9622809969049229  0.42521437740587226  0.7270023849120477  1.0000
  O   O12       1.0  0.03772152197070962  0.574782781905469  0.2729939745783128  1.0000
  O   O13       1.0  0.2900055102708663  0.5307438983306768  0.922071866241829  1.0000
  O   O14       1.0  0.7099902850810623  0.4692483786026927  0.07792885468997922  1.0000
