data_image0
_chemical_formula_structural       Cd2H20C20S4O16
_chemical_formula_sum              "Cd2 H20 C20 S4 O16"
_cell_length_a       5.858469850083391
_cell_length_b       10.164546331385779
_cell_length_c       12.118019145203355
_cell_angle_alpha    109.61780018552278
_cell_angle_beta     103.9846457667326
_cell_angle_gamma    90.00853930637538

_space_group_name_H-M_alt    "P 1"
_space_group_IT_number       1

loop_
  _space_group_symop_operation_xyz
  'x, y, z'

loop_
  _atom_site_type_symbol
  _atom_site_label
  _atom_site_symmetry_multiplicity
  _atom_site_fract_x
  _atom_site_fract_y
  _atom_site_fract_z
  _atom_site_occupancy
  Cd  Cd1       1.0  6.401550358195409e-06  0.5000003422845579  0.9999992208438542  1.0000
  Cd  Cd2       1.0  0.999997268304142  0.9999992288726671  0.9999994350759067  1.0000
  H   H1        1.0  0.008930354611315684  0.24498215284820893  0.3102919022487001  1.0000
  H   H2        1.0  0.6987759171344124  0.2550032029466678  0.6897679172989015  1.0000
  H   H3        1.0  0.9910502150687962  0.7550222446507107  0.689701141952945  1.0000
  H   H4        1.0  0.30124285187687144  0.7449992270187166  0.3102383209589448  1.0000
  H   H5        1.0  0.6809699791550159  0.5224629319341574  0.3130841204752385  1.0000
  H   H6        1.0  0.367967694381754  0.9776868243168765  0.6868596705991976  1.0000
  H   H7        1.0  0.3189873630476256  0.47752674556311814  0.6869003914696706  1.0000
  H   H8        1.0  0.6320646807028041  0.022322868383042798  0.3131403211877668  1.0000
  H   H9        1.0  0.011036573567871204  0.30850636040204904  0.5276933612883425  1.0000
  H   H10       1.0  0.483207018958403  0.1912263916689767  0.4723130406372391  1.0000
  H   H11       1.0  0.9889238473020256  0.6914916694617759  0.472289697498276  1.0000
  H   H12       1.0  0.5168188442778356  0.8087875252088846  0.5276914458454697  1.0000
  H   H13       1.0  0.6717504266641824  0.37172268476588494  0.09406939537242204  1.0000
  H   H14       1.0  0.5778241505404935  0.128331794939939  0.9058810097000034  1.0000
  H   H15       1.0  0.3282844875085686  0.6282692420639931  0.9059317951786596  1.0000
  H   H16       1.0  0.4221724952539391  0.8716643570153907  0.09412493053771699  1.0000
  H   H17       1.0  0.5518816644601046  0.3786817937383446  0.9655724144526445  1.0000
  H   H18       1.0  0.586198447658674  0.12117660551379573  0.034291934415051614  1.0000
  H   H19       1.0  0.44812242579585154  0.6213175351090071  0.034437783304511395  1.0000
  H   H20       1.0  0.4138022820506534  0.8788111488659709  0.965710542779604  1.0000
  C   C1        1.0  0.3192851985176687  0.3814365657444085  0.3485040871864484  1.0000
  C   C2        1.0  0.9708094057820915  0.11857314284563357  0.6514983412572876  1.0000
  C   C3        1.0  0.6807009487848106  0.6185710524240946  0.651497950703444  1.0000
  C   C4        1.0  0.029192031799254874  0.8814302691358263  0.34850110242755505  1.0000
  C   C5        1.0  0.14614165245394156  0.32044871784048456  0.3801740374080111  1.0000
  C   C6        1.0  0.7658671597393792  0.17945337190924704  0.619849093814608  1.0000
  C   C7        1.0  0.8538194968803834  0.6795671890107117  0.6198198055898985  1.0000
  C   C8        1.0  0.23414786102012639  0.8205606548090003  0.380167305594057  1.0000
  C   C9        1.0  0.5005468829809131  0.48232438225694113  0.4372598141622959  1.0000
  C   C10       1.0  0.06330947509263747  0.0177081126208805  0.5627100375276514  1.0000
  C   C11       1.0  0.49944244118287157  0.5176663122907  0.5627214492001045  1.0000
  C   C12       1.0  0.9367165385086479  0.982295351263339  0.43729489257200527  1.0000
  C   C13       1.0  0.679185809663032  0.5482019199752911  0.40747720262451276  1.0000
  C   C14       1.0  0.2718821102247303  0.9519842844273255  0.5924690651785482  1.0000
  C   C15       1.0  0.32076966303595356  0.4517855742726268  0.5924974025637582  1.0000
  C   C16       1.0  0.7281578630408629  0.04802963372748079  0.4075354913536202  1.0000
  C   C17       1.0  0.14851290455879954  0.35641213138155337  0.5033963704068753  1.0000
  C   C18       1.0  0.644934526165997  0.14334983942651286  0.49663286527074757  1.0000
  C   C19       1.0  0.8514296623072185  0.6435848750676029  0.49658918180736583  1.0000
  C   C20       1.0  0.3551022283635063  0.8566672890482322  0.5033796096633266  1.0000
  S   S1        1.0  0.30324683199204816  0.33396102734312894  0.19114472724741197  1.0000
  S   S2        1.0  0.11241062854949038  0.1661425383683337  0.8088560689215429  1.0000
  S   S3        1.0  0.6967413325146339  0.666036094054185  0.8088530180906021  1.0000
  S   S4        1.0  0.8876006960002626  0.8338567147050212  0.1911459118168678  1.0000
  O   O1        1.0  0.2629816046742306  0.4650219852358432  0.16434274549177985  1.0000
  O   O2        1.0  0.0991904102834766  0.035107046147750495  0.8357291624634299  1.0000
  O   O3        1.0  0.7370251721376277  0.5349802926975826  0.8356471336869262  1.0000
  O   O4        1.0  0.9008122639956182  0.964894362472897  0.16427978427930853  1.0000
  O   O5        1.0  0.5287094865025281  0.27964566981771094  0.1706291504042312  1.0000
  O   O6        1.0  0.3583479209348894  0.22055640337643473  0.8292734653461338  1.0000
  O   O7        1.0  0.47129325613375533  0.7203442066814388  0.8293766319122824  1.0000
  O   O8        1.0  0.6416612575608198  0.7794418984003499  0.17073872076575472  1.0000
  O   O9        1.0  0.09942117919545981  0.2290202206431715  0.1287144648376994  1.0000
  O   O10       1.0  0.9709172180332711  0.27097993723591424  0.8713131897854395  1.0000
  O   O11       1.0  0.9005750924155292  0.7709705203904276  0.8712717847755086  1.0000
  O   O12       1.0  0.02909676682280346  0.729014115369253  0.12869181096039028  1.0000
  O   O13       1.0  0.6772923821441238  0.4249605324075958  0.03991850472600331  1.0000
  O   O14       1.0  0.637465737031043  0.0750472723697015  0.9599856061909052  1.0000
  O   O15       1.0  0.32272059410984605  0.5750387685831768  0.9600886422957657  1.0000
  O   O16       1.0  0.36253352291768687  0.9249425847070968  0.04001809560237745  1.0000
