data_image0
_chemical_formula_structural       Zn2H40C48N2O12F6
_chemical_formula_sum              "Zn2 H40 C48 N2 O12 F6"
_cell_length_a       13.231226151817127
_cell_length_b       14.007922970772663
_cell_length_c       15.306768619892264
_cell_angle_alpha    90.44816621408502
_cell_angle_beta     92.16724192830078
_cell_angle_gamma    97.85678802439473

_space_group_name_H-M_alt    "P 1"
_space_group_IT_number       1

loop_
  _space_group_symop_operation_xyz
  'x, y, z'

loop_
  _atom_site_type_symbol
  _atom_site_label
  _atom_site_symmetry_multiplicity
  _atom_site_fract_x
  _atom_site_fract_y
  _atom_site_fract_z
  _atom_site_occupancy
  Zn  Zn1       1.0  0.5025335076785282  0.39974729536873344  0.5015398408847106  1.0000
  Zn  Zn2       1.0  0.5189594428112656  0.6019221328930728  0.49997655258281537  1.0000
  H   H1        1.0  0.3706176215147962  0.7259491825395231  0.4368620048156728  1.0000
  H   H2        1.0  0.5474724617623251  0.2582113333073508  0.6290438131566275  1.0000
  H   H3        1.0  0.35191778342799307  0.9022675625764053  0.4317368433456679  1.0000
  H   H4        1.0  0.5417619026097142  0.07932436251817168  0.6445787584555164  1.0000
  H   H5        1.0  0.03634285191872517  0.6775524659983815  0.582892038265328  1.0000
  H   H6        1.0  0.9861141357283643  0.32814354741167767  0.3977455993675251  1.0000
  H   H7        1.0  0.36787677098459437  0.37018659834767226  0.9323831944977672  1.0000
  H   H8        1.0  0.42081429007455284  0.6393923364480614  0.0644341534494117  1.0000
  H   H9        1.0  0.3861047213442674  0.3672376707300131  0.7705368694935972  1.0000
  H   H10       1.0  0.4464654393740943  0.64350313760643  0.22697752487805192  1.0000
  H   H11       1.0  0.627662411797651  0.9556781136073698  0.5976102728035928  1.0000
  H   H12       1.0  0.43257673520341916  0.05073415951478209  0.3734625101719544  1.0000
  H   H13       1.0  0.2678146307145681  0.5316606532942671  0.6598526349589238  1.0000
  H   H14       1.0  0.15160960826645453  0.5722046689392997  0.6907535846268262  1.0000
  H   H15       1.0  0.3630495282385979  0.6920128605401387  0.6804609847997156  1.0000
  H   H16       1.0  0.2490687353393142  0.7440739857827197  0.692558623885219  1.0000
  H   H17       1.0  0.21609910252242767  0.654855535513704  0.8327866546532408  1.0000
  H   H18       1.0  0.3393305113982166  0.7238145289782453  0.8391544058312734  1.0000
  H   H19       1.0  0.3267029991465904  0.5977895733850361  0.8204247390926938  1.0000
  H   H20       1.0  0.760811359604034  0.2998168015542292  0.5571237323608857  1.0000
  H   H21       1.0  0.8905311171337971  0.2857448511688787  0.5368604639704415  1.0000
  H   H22       1.0  0.7004368634082212  0.19223680107260321  0.43112237234766576  1.0000
  H   H23       1.0  0.8272392893043798  0.18774770639846855  0.40075826965214395  1.0000
  H   H24       1.0  0.8655026122919622  0.10383406146039678  0.5400212509537283  1.0000
  H   H25       1.0  0.7580757547384634  0.03827870744613189  0.48362054349365013  1.0000
  H   H26       1.0  0.7409796536609503  0.11197510755432209  0.5756358572027692  1.0000
  H   H27       1.0  0.7360284239293263  0.670974295986831  0.7059493925512685  1.0000
  H   H28       1.0  0.6883540040894331  0.5467397534247452  0.7122670283395396  1.0000
  H   H29       1.0  0.8014856236536191  0.6678169724822424  0.863010496869535  1.0000
  H   H30       1.0  0.7578994583440991  0.5429752679335067  0.8662376261181138  1.0000
  H   H31       1.0  0.8763888530717664  0.5140135037461135  0.7440339915655585  1.0000
  H   H32       1.0  0.9448352700604445  0.5698212553747412  0.8369498183830615  1.0000
  H   H33       1.0  0.9212965133108284  0.6391328637872888  0.7436257144947052  1.0000
  H   H34       1.0  0.6781640286128267  0.31604715789603693  0.30742486244192696  1.0000
  H   H35       1.0  0.6853978865979612  0.4415405636099193  0.2906640889351025  1.0000
  H   H36       1.0  0.728708434781197  0.29496895321494065  0.15131633130007324  1.0000
  H   H37       1.0  0.7411084258115181  0.42094614822773474  0.1378630923526103  1.0000
  H   H38       1.0  0.880453475649105  0.443027556869545  0.25863053843077927  1.0000
  H   H39       1.0  0.9128193644399261  0.3696716653189113  0.1717206253179953  1.0000
  H   H40       1.0  0.8680854727143769  0.31637371316080015  0.2704046722969978  1.0000
  C   C1        1.0  0.4991670665454179  0.49167468502905354  0.6714867106473648  1.0000
  C   C2        1.0  0.5148671281624786  0.516852046135739  0.33185079531304507  1.0000
  C   C3        1.0  0.4934444260344791  0.4964376726886641  0.7690500910228267  1.0000
  C   C4        1.0  0.5043038824496477  0.5083759736307556  0.23402379915614802  1.0000
  C   C5        1.0  0.5498200554446625  0.5713683988660633  0.8195998622974586  1.0000
  C   C6        1.0  0.5290808613965937  0.428661050575009  0.18617549953176393  1.0000
  C   C7        1.0  0.536516285685039  0.5721436888140373  0.9100208472268889  1.0000
  C   C8        1.0  0.5116030084807832  0.4273052904669398  0.0950624575693979  1.0000
  C   C9        1.0  0.47269741215581007  0.5009946548693165  0.9526116701570402  1.0000
  C   C10       1.0  0.4742018235408949  0.5017923745067776  0.0493077031958222  1.0000
  C   C11       1.0  0.5677129991674619  0.9089024680069288  0.5615265305834783  1.0000
  C   C12       1.0  0.4570032347932624  0.09216895389118922  0.4328045887151006  1.0000
  C   C13       1.0  0.5705442133412575  0.8102661119147853  0.5584186996475893  1.0000
  C   C14       1.0  0.4624005203912133  0.1920615574520284  0.43229864202238133  1.0000
  C   C15       1.0  0.4255476020590265  0.7809200416661994  0.46980749440832176  1.0000
  C   C16       1.0  0.523444759334133  0.2082886653358571  0.574827178552347  1.0000
  C   C17       1.0  0.41618481802823476  0.8782815496675339  0.46774471621100133  1.0000
  C   C18       1.0  0.5201093633108016  0.1094955129494153  0.5824323224797328  1.0000
  C   C19       1.0  0.48928641097722186  0.9444323187831428  0.5134677703851622  1.0000
  C   C20       1.0  0.4874816558636327  0.0494236222178799  0.5098520666372295  1.0000
  C   C21       1.0  0.7090190628468844  0.514858147563217  0.5128599513475223  1.0000
  C   C22       1.0  0.31178652324196315  0.47929206764347043  0.485917619527335  1.0000
  C   C23       1.0  0.1977134422078279  0.4748398859768129  0.4809961208723834  1.0000
  C   C24       1.0  0.8236100840130973  0.5227516495577618  0.5125582276145124  1.0000
  C   C25       1.0  0.9916342593988077  0.6141284687679587  0.5525444631750817  1.0000
  C   C26       1.0  0.030418975308712997  0.3882165382592717  0.4333593830164375  1.0000
  C   C27       1.0  0.8872029036933428  0.6058760096633407  0.5465944863280114  1.0000
  C   C28       1.0  0.13496857102578017  0.3984883101824011  0.4357676778564752  1.0000
  C   C29       1.0  0.8726763167133882  0.4493161672995782  0.47856114934084815  1.0000
  C   C30       1.0  0.1491857275212851  0.5445245380356383  0.5217840048564923  1.0000
  C   C31       1.0  0.9812286091906799  0.4585619819568691  0.4753371848770485  1.0000
  C   C32       1.0  0.040831032790094896  0.5400466405555591  0.5169657149275438  1.0000
  C   C33       1.0  0.4178365826307128  0.4268607379265886  0.9007755909786114  1.0000
  C   C34       1.0  0.4499729155309495  0.5801061738375284  0.09841165001595441  1.0000
  C   C35       1.0  0.42836121418050516  0.42488524396960514  0.8107842251163504  1.0000
  C   C36       1.0  0.46469804899383854  0.5827413299824755  0.18867340301385133  1.0000
  C   C37       1.0  0.22495037341764154  0.5939462947608618  0.6592351627366783  1.0000
  C   C38       1.0  0.28602994064374343  0.6797170491883479  0.7065110831769061  1.0000
  C   C39       1.0  0.2923356190725599  0.6630972096230323  0.8051278557671679  1.0000
  C   C40       1.0  0.8139351264792082  0.28677044083687525  0.5059419785508794  1.0000
  C   C41       1.0  0.7791220334274627  0.19261145028787047  0.4573498850805962  1.0000
  C   C42       1.0  0.7861642521906091  0.10680972659575622  0.5173092536706321  1.0000
  C   C43       1.0  0.7082460145407907  0.6138143090103938  0.7510195845759784  1.0000
  C   C44       1.0  0.7881703109252455  0.6015138731130917  0.8227764510526328  1.0000
  C   C45       1.0  0.8880687892341044  0.5799237626123029  0.7848281417971279  1.0000
  C   C46       1.0  0.6723775257068497  0.3708034879593426  0.2572543735163464  1.0000
  C   C47       1.0  0.7488486161489334  0.3643122863573184  0.1862634969339112  1.0000
  C   C48       1.0  0.858563721340694  0.37396967974358114  0.2236804980369627  1.0000
  N   N1        1.0  0.5036996809625052  0.7474021739120786  0.5138028697851098  1.0000
  N   N2        1.0  0.49556439547995973  0.24962960763181744  0.499738761635804  1.0000
  O   O1        1.0  0.4929425167587311  0.4080231672785714  0.6368525472686315  1.0000
  O   O2        1.0  0.5184721761187633  0.6009498187632116  0.36492620901427847  1.0000
  O   O3        1.0  0.5074939483612012  0.5710167763059316  0.6307569281073597  1.0000
  O   O4        1.0  0.517274503698836  0.43954632056064474  0.3749022046255917  1.0000
  O   O5        1.0  0.6593870636576113  0.4322683378937313  0.5260370011721065  1.0000
  O   O6        1.0  0.3632569754961565  0.5622575662024616  0.48094096249808876  1.0000
  O   O7        1.0  0.6711897691486968  0.592342421472722  0.4996430307258066  1.0000
  O   O8        1.0  0.3472650546843496  0.4000347998097027  0.4952133389867157  1.0000
  O   O9        1.0  0.2034917944923365  0.6194499453340184  0.5693261033100327  1.0000
  O   O10       1.0  0.8183326634137628  0.36562359912097264  0.4449032804342536  1.0000
  O   O11       1.0  0.6169966507549915  0.6433428314394972  0.7863429203683339  1.0000
  O   O12       1.0  0.5683850646042785  0.351984666322693  0.22164564477895965  1.0000
  F   F1        1.0  0.1803492457486797  0.3324879006119018  0.39125255667716635  1.0000
  F   F2        1.0  0.8431713565413549  0.6802077390706458  0.5795367421987692  1.0000
  F   F3        1.0  0.5938764084336157  0.6431645667444743  0.958363846165959  1.0000
  F   F4        1.0  0.5388731585707164  0.3515768844340527  0.049335772188030105  1.0000
  F   F5        1.0  0.646462433224194  0.7744076743019193  0.6017552799726575  1.0000
  F   F6        1.0  0.433855056404198  0.2346845154834583  0.3594303345591001  1.0000
