data_image0
_chemical_formula_structural       Zn2H24C26S3N2O17
_chemical_formula_sum              "Zn2 H24 C26 S3 N2 O17"
_cell_length_a       9.911268623403299
_cell_length_b       10.61243125005964
_cell_length_c       11.218800180661985
_cell_angle_alpha    85.02170156808623
_cell_angle_beta     88.80370264469622
_cell_angle_gamma    88.93463999089933

_space_group_name_H-M_alt    "P 1"
_space_group_IT_number       1

loop_
  _space_group_symop_operation_xyz
  'x, y, z'

loop_
  _atom_site_type_symbol
  _atom_site_label
  _atom_site_symmetry_multiplicity
  _atom_site_fract_x
  _atom_site_fract_y
  _atom_site_fract_z
  _atom_site_occupancy
  Zn  Zn1       1.0  0.34316184979120834  0.5017314984013622  0.511843371575374  1.0000
  Zn  Zn2       1.0  0.6452107019685088  0.4971864621980301  0.49048042264217173  1.0000
  H   H1        1.0  0.28124778442629156  0.12487155501381861  0.4105309714064447  1.0000
  H   H2        1.0  0.6507488172388421  0.8805852859235941  0.6144199189960986  1.0000
  H   H3        1.0  0.6535069676731453  0.1244189487707317  0.3319750716624554  1.0000
  H   H4        1.0  0.6846828552615776  0.9073899105240031  0.3878319046904934  1.0000
  H   H5        1.0  0.711474355303082  0.5210777953568739  0.8348732893219903  1.0000
  H   H6        1.0  0.7522761412796798  0.5541042572549274  0.046821905730411104  1.0000
  H   H7        1.0  0.2707309693010416  0.36278509913263696  0.1750061904978111  1.0000
  H   H8        1.0  0.22089059098527747  0.524272405217019  0.1397427520637748  1.0000
  H   H9        1.0  0.8534365312687058  0.6642566600997384  0.3753802071289698  1.0000
  H   H10       1.0  0.3053038767132393  0.09892074817845038  0.5666010541525281  1.0000
  H   H11       1.0  0.13151930049264143  0.21448918338910514  0.5503626950828604  1.0000
  H   H12       1.0  0.15195218779992814  0.2921773857233063  0.6842316958363952  1.0000
  H   H13       1.0  0.8802048995576116  0.2113559821900424  0.58836335760693  1.0000
  H   H14       1.0  0.9009016328352859  0.30059801703740163  0.7159227989068171  1.0000
  H   H15       1.0  0.282029333722285  0.88500325074871  0.5387289210460295  1.0000
  H   H16       1.0  0.30751066879935257  0.909567358267765  0.3833772433930562  1.0000
  H   H17       1.0  0.49085786583609087  0.10170779997020672  0.27522592675655494  1.0000
  H   H18       1.0  0.548463362111491  0.8862448806010548  0.29283735592416354  1.0000
  H   H19       1.0  0.6785739397426127  0.0969557749033356  0.558551879049439  1.0000
  H   H20       1.0  0.5379984997770962  0.11997044198490411  0.6544223317673854  1.0000
  H   H21       1.0  0.48525653872940216  0.904825756465492  0.6722202800378624  1.0000
  H   H22       1.0  0.4113461747620876  0.16309001595678296  0.005426017990359396  1.0000
  H   H23       1.0  0.029457604239752303  0.5813016301788565  0.0736419417499832  1.0000
  H   H24       1.0  0.38193035609467074  0.5988620494040403  0.267321590708235  1.0000
  C   C1        1.0  0.4842915521000393  0.46418769851011626  0.7294203119643043  1.0000
  C   C2        1.0  0.4924406183021049  0.8802483017517418  0.4821107589388376  1.0000
  C   C3        1.0  0.5779965210937165  0.9321478914933934  0.372311741151627  1.0000
  C   C4        1.0  0.5534787584840899  0.9287043687812184  0.5952708012315285  1.0000
  C   C5        1.0  0.4010192231219706  0.4581811826912843  0.9484399695954977  1.0000
  C   C6        1.0  0.5022974235508073  0.47408687929462445  0.860412817935739  1.0000
  C   C7        1.0  0.6293593415564162  0.5088132388415331  0.9006868755267661  1.0000
  C   C8        1.0  0.6521936899219298  0.528421119311993  0.019792509401831596  1.0000
  C   C9        1.0  0.5474889886910647  0.5156697292699662  0.1065895747393242  1.0000
  C   C10       1.0  0.42300868044453915  0.47882673733190717  0.06740579151590251  1.0000
  C   C11       1.0  0.28139278364719905  0.44530566257970616  0.10982580387878468  1.0000
  C   C12       1.0  0.4928611185682428  0.2703410516390291  0.45981974625714633  1.0000
  C   C13       1.0  0.25569693233080676  0.41900699853898266  0.9756427003582644  1.0000
  C   C14       1.0  0.9321538318871206  0.4116694372504384  0.5435869293906634  1.0000
  C   C15       1.0  0.9158697978803192  0.5913410189482348  0.42227905475743915  1.0000
  C   C16       1.0  0.05630225302201812  0.5918071995333279  0.405234203406863  1.0000
  C   C17       1.0  0.07206707249383021  0.4136273114340625  0.529202955179791  1.0000
  C   C18       1.0  0.0924663928784568  0.2897035586480002  0.6034043433259555  1.0000
  C   C19       1.0  0.9332994414571871  0.2898666623130808  0.6231803612943523  1.0000
  C   C20       1.0  0.5721952340228357  0.5323701871378078  0.23327293220348366  1.0000
  C   C21       1.0  0.4966980773885084  0.7366122399474692  0.4926762249931187  1.0000
  C   C22       1.0  0.3460358204232037  0.0763268920863425  0.4789588156117404  1.0000
  C   C23       1.0  0.3474095425978945  0.9323601403777887  0.4693208970047351  1.0000
  C   C24       1.0  0.5569214197488463  0.07727244274879298  0.3518054467434766  1.0000
  C   C25       1.0  0.5718929028527031  0.07345562325918563  0.5748590671959732  1.0000
  C   C26       1.0  0.4900911256582178  0.12688349201209798  0.4647701729135107  1.0000
  S   S1        1.0  0.2225967862525948  0.25262379456142275  0.9594879872251808  1.0000
  S   S2        1.0  0.12279097420584148  0.525289628528668  0.9070175074487922  1.0000
  S   S3        1.0  0.11161388172711643  0.706225057172972  0.2843445271362057  1.0000
  N   N1        1.0  0.8510451596580781  0.5010313282947935  0.493200197298627  1.0000
  N   N2        1.0  0.13933502854066407  0.5042497911494976  0.4637421615620739  1.0000
  O   O1        1.0  0.36396375023541344  0.46555611214469655  0.6915035961451466  1.0000
  O   O2        1.0  0.5924242286274294  0.4591260477388061  0.666766305956898  1.0000
  O   O3        1.0  0.3800335747119022  0.3301496772336563  0.4654827090835241  1.0000
  O   O4        1.0  0.6080912677072663  0.32186059437397324  0.4531215585492987  1.0000
  O   O5        1.0  0.4649354509489144  0.5538699511215341  0.3034086859857581  1.0000
  O   O6        1.0  0.6846047833013601  0.5205348618828154  0.2784929882901608  1.0000
  O   O7        1.0  0.3849856732493464  0.6798718279334538  0.5107906658769963  1.0000
  O   O8        1.0  0.6118222009552953  0.6822149368867017  0.48300917114512737  1.0000
  O   O9        1.0  0.09213649917391112  0.22376058179336414  0.010359703980228094  1.0000
  O   O10       1.0  0.2641539018277754  0.22097778292830844  0.8417645837904146  1.0000
  O   O11       1.0  0.3312244417653147  0.1853920610542303  0.0522155100819504  1.0000
  O   O12       1.0  0.183162679685914  0.6478253505552445  0.8908665446140277  1.0000
  O   O13       1.0  0.06419439990217063  0.4686431979347105  0.8088761362856544  1.0000
  O   O14       1.0  0.010814284579382206  0.5220012608993941  0.008945471770829288  1.0000
  O   O15       1.0  0.034127342069219004  0.6645530578203278  0.18423988837579228  1.0000
  O   O16       1.0  0.070139906801721  0.8282624385340541  0.32095550971293824  1.0000
  O   O17       1.0  0.2576939177056091  0.6878163190901178  0.2673742047460692  1.0000
