data_image0
_chemical_formula_structural       Zn16H16C96S24O76F16
_chemical_formula_sum              "Zn16 H16 C96 S24 O76 F16"
_cell_length_a       19.608627113025552
_cell_length_b       19.684900640764727
_cell_length_c       33.233653206178346
_cell_angle_alpha    79.29273994154119
_cell_angle_beta     79.53027079913412
_cell_angle_gamma    64.08867472283697

_space_group_name_H-M_alt    "P 1"
_space_group_IT_number       1

loop_
  _space_group_symop_operation_xyz
  'x, y, z'

loop_
  _atom_site_type_symbol
  _atom_site_label
  _atom_site_symmetry_multiplicity
  _atom_site_fract_x
  _atom_site_fract_y
  _atom_site_fract_z
  _atom_site_occupancy
  Zn  Zn1       1.0  0.05561923508700771  0.39816546609429077  0.4798300780641398  1.0000
  Zn  Zn2       1.0  0.986339294269449  0.4797721964844824  0.5611855488737305  1.0000
  Zn  Zn3       1.0  0.056992703462249494  0.5618158035939659  0.4820599049761681  1.0000
  Zn  Zn4       1.0  0.9029589326423634  0.5569110394911406  0.4783794690775949  1.0000
  Zn  Zn5       1.0  0.6916733162999051  0.34895870223081715  0.27301000470339426  1.0000
  Zn  Zn6       1.0  0.6864257762672139  0.19150480669525644  0.2673296784529029  1.0000
  Zn  Zn7       1.0  0.7706765518043497  0.26536670795800177  0.19058192189187645  1.0000
  Zn  Zn8       1.0  0.8487118674061449  0.19500417503125803  0.27029109258619133  1.0000
  Zn  Zn9       1.0  0.2695275234118029  0.7644376640577092  0.6888633235029147  1.0000
  Zn  Zn10      1.0  0.35238682054986725  0.6956532142548468  0.7699363501693524  1.0000
  Zn  Zn11      1.0  0.191558768841567  0.8465532061102505  0.7717330031517733  1.0000
  Zn  Zn12      1.0  0.18900993952292566  0.69221407434938  0.76806689867837  1.0000
  Zn  Zn13      1.0  0.5571354917096727  0.06470465623399238  0.9826860190519965  1.0000
  Zn  Zn14      1.0  0.4007308365582389  0.05743927828378049  0.9763454616555548  1.0000
  Zn  Zn15      1.0  0.5560212652475729  0.9013320533514388  0.980381779428704  1.0000
  Zn  Zn16      1.0  0.48331573277733497  0.9805242389741408  0.05937583689474481  1.0000
  H   H1        1.0  0.7489907552250087  0.45055686555511454  0.3492298341749843  1.0000
  H   H2        1.0  0.0010708943539370001  0.30068696931176214  0.40019354995127526  1.0000
  H   H3        1.0  0.20042925522349014  0.7006059072931874  0.6005682473136602  1.0000
  H   H4        1.0  0.04933282295631611  0.549319020907646  0.6498723182501179  1.0000
  H   H5        1.0  0.6497297189436039  0.14884625086032346  0.0493229387403176  1.0000
  H   H6        1.0  0.6012441356485569  0.09957763331237138  0.20083667986579454  1.0000
  H   H7        1.0  0.30032380189919655  0.9997991491273481  0.9006314623494374  1.0000
  H   H8        1.0  0.44972117952330853  0.7493090267752008  0.8495302284927746  1.0000
  H   H9        1.0  0.8438448223183672  0.572972205607627  0.3993754668194142  1.0000
  H   H10       1.0  0.9649399279063575  0.23608835406909626  0.29159171888575486  1.0000
  H   H11       1.0  0.0693036711893598  0.6866418004660774  0.5139926419433252  1.0000
  H   H12       1.0  0.06285419669588069  0.6801302356612808  0.7364567933454252  1.0000
  H   H13       1.0  0.7944875428961494  0.17776111601042294  0.12185076423595828  1.0000
  H   H14       1.0  0.5716614848101642  0.955693664571314  0.12857675298878485  1.0000
  H   H15       1.0  0.17777474790590733  0.9053420733482795  0.8501230516792047  1.0000
  H   H16       1.0  0.51443302307257  0.785689187484856  0.9582547157879304  1.0000
  C   C1        1.0  0.06231085725139  0.31358361423047393  0.5628163904204297  1.0000
  C   C2        1.0  0.0644021231324032  0.573441330143261  0.5689657096915963  1.0000
  C   C3        1.0  0.18134412549878934  0.4398586536953814  0.4397138054507508  1.0000
  C   C4        1.0  0.9370935713796769  0.6863247509116873  0.4378261275663887  1.0000
  C   C5        1.0  0.9341881881837393  0.4335709130918915  0.4284870742553721  1.0000
  C   C6        1.0  0.8194708244528144  0.5598033050965513  0.5606027070874615  1.0000
  C   C7        1.0  0.5635628260266755  0.31173680618124444  0.31227646666820863  1.0000
  C   C8        1.0  0.6863957055006084  0.1759151810970821  0.18112803938249294  1.0000
  C   C9        1.0  0.6903150870458391  0.43067143832518434  0.188909780662712  1.0000
  C   C10       1.0  0.9372711903232728  0.18746884436310293  0.1886859258622237  1.0000
  C   C11       1.0  0.820614745141306  0.3224390765706744  0.3162065917897152  1.0000
  C   C12       1.0  0.8104946244753748  0.06869380215990613  0.3104413748214512  1.0000
  C   C13       1.0  0.4362101646856686  0.6890577832864223  0.6869359006702851  1.0000
  C   C14       1.0  0.316370165552101  0.8167142475010962  0.8210450539681842  1.0000
  C   C15       1.0  0.18853812322801394  0.9306874918696976  0.6894636369108155  1.0000
  C   C16       1.0  0.0634680114365267  0.8102978275317055  0.8125361433541939  1.0000
  C   C17       1.0  0.1763760116964619  0.685498122138334  0.6813980713345416  1.0000
  C   C18       1.0  0.3125007982836934  0.5689626498563384  0.8101359751683787  1.0000
  C   C19       1.0  0.4358039320662002  0.18703514761006088  0.9378376418992715  1.0000
  C   C20       1.0  0.429338738550655  0.9281945383396816  0.9334128707829306  1.0000
  C   C21       1.0  0.6806540609474823  0.9417065787731783  0.9394051134706415  1.0000
  C   C22       1.0  0.562382332644546  0.8141816361398855  0.06247203858546865  1.0000
  C   C23       1.0  0.5729582216136819  0.06421836125796432  0.06901868230374926  1.0000
  C   C24       1.0  0.3180604247935079  0.06060942212106818  0.05992424142874598  1.0000
  C   C25       1.0  0.9005890012069602  0.4064697942330397  0.4010534930695611  1.0000
  C   C26       1.0  0.8512766504258025  0.3466053352877622  0.3465622263163936  1.0000
  C   C27       1.0  0.8281428419324114  0.4478968254132524  0.3869226189020125  1.0000
  C   C28       1.0  0.9223605290395227  0.3037978523709698  0.3620617709183874  1.0000
  C   C29       1.0  0.8049248990252167  0.41787337914199457  0.35999459274479045  1.0000
  C   C30       1.0  0.9459616595316689  0.3342194955197044  0.3885962752317126  1.0000
  C   C31       1.0  0.0974226589005909  0.6010068336698566  0.5964421143175969  1.0000
  C   C32       1.0  0.14891639087290542  0.6523283120637728  0.653996802885402  1.0000
  C   C33       1.0  0.14183662053830656  0.6429295900040941  0.5828108443758566  1.0000
  C   C34       1.0  0.107004937615315  0.6079179306993582  0.6676408340441566  1.0000
  C   C35       1.0  0.1664147929545123  0.6680860645155918  0.6114758919666696  1.0000
  C   C36       1.0  0.08179899198900391  0.5833897207970864  0.6389658190116589  1.0000
  C   C37       1.0  0.3019494680072655  0.45406640785662944  0.4017294139687664  1.0000
  C   C38       1.0  0.44324836390915584  0.2977104248776854  0.3506630949391223  1.0000
  C   C39       1.0  0.2558750804348406  0.41519219947960556  0.4149781481447121  1.0000
  C   C40       1.0  0.48918841719986267  0.3366414253896438  0.33717912063157474  1.0000
  C   C41       1.0  0.37473266817582385  0.340060247558405  0.3741201186551918  1.0000
  C   C42       1.0  0.3703600332299928  0.41174044081162725  0.3781441139204843  1.0000
  C   C43       1.0  0.7279382557757118  0.5765085491369176  0.6276676166003624  1.0000
  C   C44       1.0  0.527532388776656  0.6715841834008669  0.6195729422800014  1.0000
  C   C45       1.0  0.7447198834282176  0.5842932148435266  0.5850706726417485  1.0000
  C   C46       1.0  0.5107399052174628  0.6636201150465837  0.6621675615384177  1.0000
  C   C47       1.0  0.6066087645459464  0.6395673726517898  0.6065994241819083  1.0000
  C   C48       1.0  0.6489079925821103  0.607737811682682  0.6405624426830839  1.0000
  C   C49       1.0  0.07884300555850393  0.22207716427262625  0.6301847245138388  1.0000
  C   C50       1.0  0.1729985208665781  0.02239327554141109  0.6223418363877611  1.0000
  C   C51       1.0  0.0873216658643088  0.23908828471301993  0.5876062434475597  1.0000
  C   C52       1.0  0.1646311596193328  0.005355393642552973  0.6649299956075649  1.0000
  C   C53       1.0  0.1423634816156749  0.1012638098217167  0.6093572948128665  1.0000
  C   C54       1.0  0.1103535946572052  0.1431672392924455  0.643232104306108  1.0000
  C   C55       1.0  0.8445304902148577  0.8029328529032966  0.3956680736048737  1.0000
  C   C56       1.0  0.9035069879599718  0.9520481545269133  0.35253159633982273  1.0000
  C   C57       1.0  0.9124839050053096  0.7607155314099643  0.41295755036910703  1.0000
  C   C58       1.0  0.8355831611996649  0.9941028022329376  0.3351545368768639  1.0000
  C   C59       1.0  0.907461963610004  0.8820352374799327  0.37454349706629836  1.0000
  C   C60       1.0  0.8407852916902245  0.8726237898461304  0.3734041014187426  1.0000
  C   C61       1.0  0.6561806614050453  0.15118044739148215  0.1507876824325294  1.0000
  C   C62       1.0  0.5979457116524785  0.09411170322769628  0.09937234052885194  1.0000
  C   C63       1.0  0.668290083381244  0.1660087701606016  0.1075054120680434  1.0000
  C   C64       1.0  0.5833046848873309  0.08179597749879974  0.14265188308159077  1.0000
  C   C65       1.0  0.6397047420512081  0.13718521662962496  0.08266967908384258  1.0000
  C   C66       1.0  0.6127289512805021  0.10977731861404286  0.1674921660451929  1.0000
  C   C67       1.0  0.674034570283034  0.5224280249328854  0.12146260677955918  1.0000
  C   C68       1.0  0.578549571103764  0.722167997425082  0.12963680430940627  1.0000
  C   C69       1.0  0.6654691361258926  0.5051797767429065  0.1640299277652844  1.0000
  C   C70       1.0  0.5874762882878245  0.7395236027191315  0.08707742714590691  1.0000
  C   C71       1.0  0.6102009681029729  0.643217512490949  0.1425113644535543  1.0000
  C   C72       1.0  0.6427821275219046  0.6014722239373639  0.10860036797605234  1.0000
  C   C73       1.0  0.08398777898446501  0.1259383874225719  0.17665882309002254  1.0000
  C   C74       1.0  0.17151796284318266  0.12300873763033592  0.072348152911843  1.0000
  C   C75       1.0  0.0115699400907658  0.163094512374542  0.16378984617873016  1.0000
  C   C76       1.0  0.24398025901267323  0.08606292573282562  0.08514001364547849  1.0000
  C   C77       1.0  0.11281018601246733  0.13818812191635033  0.10548164789450708  1.0000
  C   C78       1.0  0.1428776812822292  0.11145441147446891  0.14355262517210574  1.0000
  C   C79       1.0  0.34377457620617957  0.849717441995665  0.8486194618663703  1.0000
  C   C80       1.0  0.4046806310143226  0.8977810706976753  0.9031702592183702  1.0000
  C   C81       1.0  0.30236607963202294  0.9216368577434649  0.8628429257347606  1.0000
  C   C82       1.0  0.4472814686744897  0.8270696068405528  0.8877370544649421  1.0000
  C   C83       1.0  0.332942001940701  0.9442649798655367  0.8897883961010463  1.0000
  C   C84       1.0  0.4164061849643943  0.8041116793371399  0.8611043829758954  1.0000
  C   C85       1.0  0.40460365797907377  0.4516141568174205  0.852104160044611  1.0000
  C   C86       1.0  0.34348122386691665  0.3042935114614664  0.8957458724600115  1.0000
  C   C87       1.0  0.33679801626157513  0.49429793051178456  0.8347376870634233  1.0000
  C   C88       1.0  0.41142141518877656  0.26145071434557815  0.9129680393475113  1.0000
  C   C89       1.0  0.34050228661310206  0.3736181529156964  0.8732607269153049  1.0000
  C   C90       1.0  0.4077854516567996  0.38204995524326074  0.8742541414652221  1.0000
  C   C91       1.0  0.9411916195433108  0.7983182879086071  0.8494179091565924  1.0000
  C   C92       1.0  0.802671959913077  0.9535707004729163  0.9021910303730252  1.0000
  C   C93       1.0  0.9888723106245224  0.8356518217362353  0.8371850117607805  1.0000
  C   C94       1.0  0.7549010228924758  0.9163677237544621  0.9143388025975127  1.0000
  C   C95       1.0  0.8706091525042013  0.9111648333227649  0.8783495025262408  1.0000
  C   C96       1.0  0.872872929005581  0.8409756210662775  0.8729699410125844  1.0000
  S   S1        1.0  0.2962742939819946  0.3252967005014114  0.39848204663685743  1.0000
  S   S2        1.0  0.4485047403761797  0.4267582424301183  0.3533996986911702  1.0000
  S   S3        1.0  0.6627486793410923  0.6302056883351457  0.5599295287265773  1.0000
  S   S4        1.0  0.59276287524321  0.6162172239214245  0.6872138878718274  1.0000
  S   S5        1.0  0.1345251861454528  0.15757110436852165  0.5626700361343282  1.0000
  S   S6        1.0  0.1188585215964792  0.08686125620243962  0.6899444164116629  1.0000
  S   S7        1.0  0.9734504823787945  0.8065713413342407  0.40201362816236497  1.0000
  S   S8        1.0  0.7750955407824095  0.9477656102828932  0.34563570872018085  1.0000
  S   S9        1.0  0.618437533144622  0.5865831874899924  0.1891126517915396  1.0000
  S   S10       1.0  0.6352806703855124  0.6581166227718992  0.06201197277320604  1.0000
  S   S11       1.0  0.014694290207153  0.1809569639559356  0.1102756828085489  1.0000
  S   S12       1.0  0.2410614582424699  0.06966280937459154  0.1386613982548184  1.0000
  S   S13       1.0  0.27541731556460997  0.448973954578328  0.8452732204365532  1.0000
  S   S14       1.0  0.4733299516886261  0.30620550561678084  0.901754071693162  1.0000
  S   S15       1.0  0.9500867684756641  0.9247140674405826  0.8545983569851643  1.0000
  S   S16       1.0  0.7928829712870639  0.8279756930286339  0.8962535814125587  1.0000
  S   S17       1.0  0.7574325801328288  0.5368511917002505  0.40371987276231636  1.0000
  S   S18       1.0  0.9849202374690975  0.2069554880831888  0.353160609180378  1.0000
  S   S19       1.0  0.1761778665354186  0.6624561197134327  0.5296852933943867  1.0000
  S   S20       1.0  0.0873710863566046  0.5736792839818605  0.720793098941705  1.0000
  S   S21       1.0  0.7133495824632946  0.2268153672827679  0.08039786880011947  1.0000
  S   S22       1.0  0.5226806576523729  0.03648375235330547  0.16979134733494308  1.0000
  S   S23       1.0  0.2126576376656146  0.9922928263972328  0.846227349998145  1.0000
  S   S24       1.0  0.5441349085396469  0.7638051746491498  0.8971755958881642  1.0000
  O   O1        1.0  0.0010670309403479998  0.49784910898122786  0.5005610729657304  1.0000
  O   O2        1.0  0.08044276750586482  0.3129065316949777  0.5237659316165306  1.0000
  O   O3        1.0  0.047135770640331  0.5184047449254335  0.5844868641983962  1.0000
  O   O4        1.0  0.155627373808997  0.5040247524235825  0.4533787591222661  1.0000
  O   O5        1.0  0.0250033858031102  0.3719323114267752  0.5819614002247064  1.0000
  O   O6        1.0  0.14911999277403962  0.39391197217781126  0.44519477566028337  1.0000
  O   O7        1.0  0.0535183865254254  0.6076902758326455  0.5322301425823139  1.0000
  O   O8        1.0  0.004956500910410001  0.6582166456007174  0.44812345442914386  1.0000
  O   O9        1.0  0.9089148733521812  0.5054425805361827  0.4299001062869578  1.0000
  O   O10       1.0  0.8897176644663034  0.6559059021282888  0.44718234322761663  1.0000
  O   O11       1.0  0.9876198956233256  0.3829616083147725  0.4479805047816113  1.0000
  O   O12       1.0  0.8780295215164742  0.531304963424105  0.5801705963714809  1.0000
  O   O13       1.0  0.8185300769861995  0.5700677937699229  0.5213748453148382  1.0000
  O   O14       1.0  0.747885471307562  0.25087786410011853  0.25062678434638025  1.0000
  O   O15       1.0  0.5924687522705696  0.36060894079890454  0.3028986577153531  1.0000
  O   O16       1.0  0.6524363045212026  0.17875913581589492  0.21745185561083957  1.0000
  O   O17       1.0  0.7210396578944511  0.3721197845641625  0.16962124079608287  1.0000
  O   O18       1.0  0.5927938329598063  0.2444015489313643  0.30221799229366997  1.0000
  O   O19       1.0  0.6784784255521359  0.43195972398797966  0.2280728793138707  1.0000
  O   O20       1.0  0.7452543271544984  0.1905600543116391  0.16930202466914315  1.0000
  O   O21       1.0  0.8789380229330632  0.2244721322743644  0.16870603942859216  1.0000
  O   O22       1.0  0.8677420505227859  0.2727034451641898  0.2927362856231639  1.0000
  O   O23       1.0  0.9363821562351762  0.17012025792912042  0.227685564836662  1.0000
  O   O24       1.0  0.7490981793019459  0.3548168441512375  0.3148791661885823  1.0000
  O   O25       1.0  0.7465156208740992  0.09218118015931515  0.2960016291686784  1.0000
  O   O26       1.0  0.8539842887534091  0.10318205640572133  0.3056134179112461  1.0000
  O   O27       1.0  0.2517347792673377  0.7494192005302979  0.7494677675759573  1.0000
  O   O28       1.0  0.3774137995766012  0.7265135055406801  0.667799949829174  1.0000
  O   O29       1.0  0.3670849404205399  0.7641707489336724  0.8013344778675915  1.0000
  O   O30       1.0  0.1771791930509607  0.9313093567324344  0.7287031662945578  1.0000
  O   O31       1.0  0.4373375507395778  0.6710360461752246  0.7260240287089912  1.0000
  O   O32       1.0  0.21767186398587773  0.8725423796885184  0.669916269452166  1.0000
  O   O33       1.0  0.2442071758177491  0.8414825102969203  0.8197837706189686  1.0000
  O   O34       1.0  0.0930808169318951  0.8586595380931639  0.8035364984574398  1.0000
  O   O35       1.0  0.1421513914575314  0.6961071341913866  0.718056017660217  1.0000
  O   O36       1.0  0.0927010011620766  0.7431812526658206  0.8021387829260647  1.0000
  O   O37       1.0  0.23123345584507154  0.7032116297074468  0.6658709964944902  1.0000
  O   O38       1.0  0.3568084656223647  0.6026151475050342  0.8049042738850358  1.0000
  O   O39       1.0  0.24781929540976932  0.5934125442590242  0.7963279193125317  1.0000
  O   O40       1.0  0.49912442665388573  0.0018864259598813566  0.9993046478996562  1.0000
  O   O41       1.0  0.5036142111869851  0.15908681712053135  0.9481996064645485  1.0000
  O   O42       1.0  0.3968819096959351  0.999447468321918  0.9344802222290695  1.0000
  O   O43       1.0  0.647419465053794  0.8966823117589157  0.9445291763066948  1.0000
  O   O44       1.0  0.38831080371006277  0.1568004035058834  0.9469412297316919  1.0000
  O   O45       1.0  0.6562676206904571  0.004955124734678264  0.9538899334157804  1.0000
  O   O46       1.0  0.4794961686314706  0.8811853836376786  0.9570026533864889  1.0000
  O   O47       1.0  0.5818869093555605  0.8140338331322499  0.023465338480022524  1.0000
  O   O48       1.0  0.5584255220725114  0.005455209764384876  0.08091138872735827  1.0000
  O   O49       1.0  0.5235035264717711  0.8725782656347363  0.08147824243614817  1.0000
  O   O50       1.0  0.5698669379690743  0.09828627657977049  0.03264877274038717  1.0000
  O   O51       1.0  0.3178543137141645  0.06904715607908679  0.020927667595671582  1.0000
  O   O52       1.0  0.3765321952391005  0.03153126246194657  0.07995522774770339  1.0000
  O   O53       1.0  0.7966582414616425  0.5933042882184053  0.385064068943862  1.0000
  O   O54       1.0  0.6922370666646602  0.5608348728290269  0.38211984991475123  1.0000
  O   O55       1.0  0.7503319981608244  0.5275909540829317  0.44806377416239224  1.0000
  O   O56       1.0  0.0127220011414977  0.21644652214336446  0.305256037819113  1.0000
  O   O57       1.0  0.050923444000325405  0.1834839260335883  0.37400545777825295  1.0000
  O   O58       1.0  0.9388951598247958  0.16452414370941415  0.3612961085585126  1.0000
  O   O59       1.0  0.0990349217011754  0.718313459522335  0.5106655077846654  1.0000
  O   O60       1.0  0.21829527860037956  0.7068702678668686  0.5283492364911523  1.0000
  O   O61       1.0  0.2101211896074275  0.5916606457121176  0.5122172625826521  1.0000
  O   O62       1.0  0.031233109047157405  0.6504452963287124  0.7394879398609006  1.0000
  O   O63       1.0  0.042965657346641706  0.5315865466436662  0.7220160951891186  1.0000
  O   O64       1.0  0.15833147594191396  0.5398128901306195  0.7386203773916263  1.0000
  O   O65       1.0  0.7988607452042373  0.1800218508101921  0.09106768097495177  1.0000
  O   O66       1.0  0.7158836105579311  0.2267498831049934  0.03704799937809609  1.0000
  O   O67       1.0  0.677791899705845  0.2967177430703811  0.09878331534376629  1.0000
  O   O68       1.0  0.569827290798166  0.9513980278000957  0.15931647415081324  1.0000
  O   O69       1.0  0.5230942606649478  0.03379173761189948  0.21312273111144714  1.0000
  O   O70       1.0  0.452273996361889  0.07169620132028595  0.151397878938063  1.0000
  O   O71       1.0  0.15661491089800714  0.9523294589267691  0.8644602543646441  1.0000
  O   O72       1.0  0.1883974450911907  0.0565629056304147  0.8682104587405346  1.0000
  O   O73       1.0  0.22144731217210284  0.0005494333370065863  0.801865831306074  1.0000
  O   O74       1.0  0.5341249844755183  0.7373628122692394  0.9452722022151505  1.0000
  O   O75       1.0  0.5667996121088167  0.6976389988432032  0.8770307175679263  1.0000
  O   O76       1.0  0.5878420893644005  0.8086305833369065  0.8887033151759524  1.0000
  F   F1        1.0  0.28445534731058336  0.5243884000347236  0.409641141347187  1.0000
  F   F2        1.0  0.4605597053986798  0.2274024363506584  0.3425912132038817  1.0000
  F   F3        1.0  0.7801762133538119  0.5428939832692095  0.6544160791274293  1.0000
  F   F4        1.0  0.4752591369148362  0.7057354134287551  0.5928906129391293  1.0000
  F   F5        1.0  0.0446719014338157  0.2739581917521577  0.6567785720974655  1.0000
  F   F6        1.0  0.20665324788704711  0.9705320838357991  0.5956869696113853  1.0000
  F   F7        1.0  0.7877885742562755  0.7809017066073591  0.3991396568264064  1.0000
  F   F8        1.0  0.9602459920471632  0.97390980482119  0.3490070246581141  1.0000
  F   F9        1.0  0.7084750079160216  0.4708263981232361  0.09479840989696695  1.0000
  F   F10       1.0  0.5441262846576082  0.7738760022934129  0.15632649328300363  1.0000
  F   F11       1.0  0.09791049547544618  0.10564337478229652  0.21612020344483795  1.0000
  F   F12       1.0  0.15718262543816056  0.1430268795068983  0.03291886987669559  1.0000
  F   F13       1.0  0.46202857799687536  0.4727705449853802  0.8485167509161753  1.0000
  F   F14       1.0  0.28597148956271917  0.2832656060590324  0.8995685624158012  1.0000
  F   F15       1.0  0.9569380587783486  0.7292640480106983  0.8400634012650982  1.0000
  F   F16       1.0  0.7872198578573305  0.022576811448253346  0.9115785302976249  1.0000
