data_image0
_chemical_formula_structural       U4H12C28N4O24
_chemical_formula_sum              "U4 H12 C28 N4 O24"
_cell_length_a       5.582223857071428
_cell_length_b       8.43340122901874
_cell_length_c       19.745999316291687
_cell_angle_alpha    90.00023577766447
_cell_angle_beta     89.99942291663766
_cell_angle_gamma    90.00005060903992

_space_group_name_H-M_alt    "P 1"
_space_group_IT_number       1

loop_
  _space_group_symop_operation_xyz
  'x, y, z'

loop_
  _atom_site_type_symbol
  _atom_site_label
  _atom_site_symmetry_multiplicity
  _atom_site_fract_x
  _atom_site_fract_y
  _atom_site_fract_z
  _atom_site_occupancy
  U   U1        1.0  0.45320797559809717  0.24426873315083247  0.1261309421622698  1.0000
  U   U2        1.0  0.04679149275942509  0.7557253985106486  0.6261304695140026  1.0000
  U   U3        1.0  0.5467902561562851  0.7442686931118273  0.3738705466335617  1.0000
  U   U4        1.0  0.9532122405943819  0.25573048541429  0.8738710740932092  1.0000
  H   H1        1.0  0.08271615242090039  0.8072116305149564  0.23064579484731246  1.0000
  H   H2        1.0  0.4172993002620871  0.1927953638005775  0.7306437816597722  1.0000
  H   H3        1.0  0.917291120152292  0.30720976250776744  0.2693547919108212  1.0000
  H   H4        1.0  0.5827115149267639  0.6927931540161365  0.769356638249981  1.0000
  H   H5        1.0  0.8791820473409896  0.9052334888900689  0.12442424244026279  1.0000
  H   H6        1.0  0.6208382876773155  0.09476921968882118  0.624422394913438  1.0000
  H   H7        1.0  0.12083072996206566  0.4052321756033095  0.3755749976284122  1.0000
  H   H8        1.0  0.37917239702505146  0.5947690978406115  0.8755768395144018  1.0000
  H   H9        1.0  0.9047650173028926  0.7363248623844997  0.018834060705046302  1.0000
  H   H10       1.0  0.5952411631274542  0.2636697162320871  0.518831064231385  1.0000
  H   H11       1.0  0.09524036950853088  0.2363292925375404  0.48116589480055444  1.0000
  H   H12       1.0  0.4047589980452955  0.7636729962986523  0.9811679612104882  1.0000
  C   C1        1.0  0.3323295521371462  0.5213804594336864  0.2413420379335562  1.0000
  C   C2        1.0  0.16766581429178723  0.478615965886661  0.7413407328920912  1.0000
  C   C3        1.0  0.667661217274876  0.021380713814131997  0.2586590583748674  1.0000
  C   C4        1.0  0.8323328416391431  0.9786220998457152  0.7586591774988136  1.0000
  C   C5        1.0  0.211871504763593  0.5967032460114864  0.1816253691054968  1.0000
  C   C6        1.0  0.28813494482322705  0.403293790816008  0.6816230817569107  1.0000
  C   C7        1.0  0.7881301133514496  0.0967041452322661  0.31837484696538354  1.0000
  C   C8        1.0  0.711867193646732  0.9032980569148987  0.8183756831243301  1.0000
  C   C9        1.0  0.08892056791056999  0.7406498862666383  0.18351567411319542  1.0000
  C   C10       1.0  0.4110893971642894  0.25935428331123234  0.6835143022536985  1.0000
  C   C11       1.0  0.911079450462587  0.24064965359401927  0.3164837825804625  1.0000
  C   C12       1.0  0.5889179238628087  0.7593525303686163  0.8164847155742194  1.0000
  C   C13       1.0  0.9770300729161574  0.7937079333618371  0.12445287145239088  1.0000
  C   C14       1.0  0.5229813040984792  0.2062959612459139  0.6244499798338055  1.0000
  C   C15       1.0  0.02297539030489299  0.2937053766962308  0.3755461722330865  1.0000
  C   C16       1.0  0.47702773770919277  0.7062947107088958  0.8755479316948893  1.0000
  C   C17       1.0  0.9917151657737191  0.7015325089162302  0.06590420054610041  1.0000
  C   C18       1.0  0.5082965044096354  0.2984637080972802  0.5658999937849033  1.0000
  C   C19       1.0  0.008290174706402798  0.20153406395599657  0.43409620012064204  1.0000
  C   C20       1.0  0.4917072859049297  0.7984665864818865  0.9340980800590231  1.0000
  C   C21       1.0  0.11938526924205209  0.5593677964132979  0.068231865360687  1.0000
  C   C22       1.0  0.3806198433666025  0.44062577846849404  0.5682298866693145  1.0000
  C   C23       1.0  0.8806198819797543  0.0593722117763775  0.43176777853015846  1.0000
  C   C24       1.0  0.6193733878017865  0.9406310807900695  0.931768943965821  1.0000
  C   C25       1.0  0.14573234840558763  0.44442695072218197  0.0106615838399051  1.0000
  C   C26       1.0  0.3542676483221995  0.5555684420671128  0.5106593762028098  1.0000
  C   C27       1.0  0.8542715240563368  0.94442701548612  0.48933873812435996  1.0000
  C   C28       1.0  0.6457214874046072  0.0555756449324534  0.9893387763676033  1.0000
  N   N1        1.0  0.22720505277670353  0.5091309561998543  0.12504165632401512  1.0000
  N   N2        1.0  0.27279087160290055  0.4908679080203059  0.625039060461674  1.0000
  N   N3        1.0  0.7727946573382665  0.0091288332778205  0.37495891196694237  1.0000
  N   N4        1.0  0.7272024264634209  0.9908727272347306  0.8749593522158392  1.0000
  O   O1        1.0  0.18509568564422096  0.13966921915574199  0.1506106211070559  1.0000
  O   O2        1.0  0.31489753696578043  0.8603298909470991  0.6506090623077797  1.0000
  O   O3        1.0  0.814893449838493  0.6396667293042738  0.3493911899352611  1.0000
  O   O4        1.0  0.6851027528599685  0.360335771105234  0.8493921590781142  1.0000
  O   O5        1.0  0.714029201185383  0.36106856133854853  0.10566424913688618  1.0000
  O   O6        1.0  0.7859703049197148  0.6389292237951667  0.6056639021861089  1.0000
  O   O7        1.0  0.2859656032412871  0.8610697510395511  0.3943389646403404  1.0000
  O   O8        1.0  0.21402610733341723  0.1389305170632937  0.894337435754295  1.0000
  O   O9        1.0  0.42699978981431025  0.38645267322026905  0.23167450954119323  1.0000
  O   O10       1.0  0.07298875523789408  0.61354247336385  0.7316716861271217  1.0000
  O   O11       1.0  0.5729932570418013  0.8864528193606489  0.2683267232113309  1.0000
  O   O12       1.0  0.9270058318826808  0.11354890150275311  0.7683260620933439  1.0000
  O   O13       1.0  0.3274774778363962  0.592388854331958  0.2979844672756542  1.0000
  O   O14       1.0  0.17251766332328336  0.4076081156750391  0.7979825169350931  1.0000
  O   O15       1.0  0.6725115947181024  0.09238619534118439  0.202016247644174  1.0000
  O   O16       1.0  0.8274880636838656  0.9076137021063176  0.7020167619712652  1.0000
  O   O17       1.0  0.27174274059799325  0.3226066888707209  0.0240432482979074  1.0000
  O   O18       1.0  0.22825677964562618  0.6773876468516421  0.5240436399481396  1.0000
  O   O19       1.0  0.7282591782897325  0.8226089226286176  0.47595635271822095  1.0000
  O   O20       1.0  0.7717307268088047  0.1773947948680075  0.9759577657340159  1.0000
  O   O21       1.0  0.04508005034936959  0.4708265020409144  0.9541435009762367  1.0000
  O   O22       1.0  0.4549256535750529  0.5291707838773619  0.45414143184859773  1.0000
  O   O23       1.0  0.9549239694007026  0.9708271041836197  0.5458569021168813  1.0000
  O   O24       1.0  0.5450651262553448  0.029173663108935006  0.045857146022108  1.0000
