data_image0
_chemical_formula_structural       Zn3H36C52N10O10
_chemical_formula_sum              "Zn3 H36 C52 N10 O10"
_cell_length_a       9.16335669080444
_cell_length_b       11.29202073567116
_cell_length_c       12.541
_cell_angle_alpha    66.52816365095455
_cell_angle_beta     85.91136256008689
_cell_angle_gamma    85.09336007937765

_space_group_name_H-M_alt    "P 1"
_space_group_IT_number       1

loop_
  _space_group_symop_operation_xyz
  'x, y, z'

loop_
  _atom_site_type_symbol
  _atom_site_label
  _atom_site_symmetry_multiplicity
  _atom_site_fract_x
  _atom_site_fract_y
  _atom_site_fract_z
  _atom_site_occupancy
  Zn  Zn1       1.0  0.99999880612873  0.49999911414394665  0.9999999014614218  1.0000
  Zn  Zn2       1.0  0.699449653947255  0.5414096801608252  0.8454867170941399  1.0000
  Zn  Zn3       1.0  0.30055071614290807  0.4585875807713009  0.15451217274029014  1.0000
  H   H1        1.0  0.9560008780887018  0.6892332508525314  0.5326554985358172  1.0000
  H   H2        1.0  0.04399586745939389  0.3107688468584655  0.46734583242889016  1.0000
  H   H3        1.0  0.1281377415473557  0.7326288309197437  0.3586154538292377  1.0000
  H   H4        1.0  0.8718579099130749  0.2673732667912603  0.6413843393646061  1.0000
  H   H5        1.0  0.34533834241167244  0.5817000481902284  0.3695985792899635  1.0000
  H   H6        1.0  0.6546593603124508  0.41830398423231696  0.6303972236539862  1.0000
  H   H7        1.0  0.39740297258046553  0.39459119211935706  0.5547898065015459  1.0000
  H   H8        1.0  0.602595961142953  0.6054109055916399  0.4452066261590987  1.0000
  H   H9        1.0  0.5027306567075629  0.18735843386082962  0.9615359340211356  1.0000
  H   H10       1.0  0.4972703967353668  0.8126446312059415  0.03846243343916459  1.0000
  H   H11       1.0  0.3484801066994336  0.9984640020287259  0.018219352950815497  1.0000
  H   H12       1.0  0.6515210836551335  0.0015371283264969  0.981780498609055  1.0000
  H   H13       1.0  0.12485632992620312  0.0192774658845138  0.9057414631718572  1.0000
  H   H14       1.0  0.8751482796029891  0.9807217297591606  0.09425571456981889  1.0000
  H   H15       1.0  0.0669212108063064  0.2233875997012902  0.7367826446958929  1.0000
  H   H16       1.0  0.9330856553540272  0.7766106285866102  0.26321316763753094  1.0000
  H   H17       1.0  0.1576175458625499  0.228354004250221  0.0404950466017269  1.0000
  H   H18       1.0  0.8423805675964715  0.7716442240376794  0.9595068034101074  1.0000
  H   H19       1.0  0.1550721611016996  0.0016928726062773003  0.1925349400913916  1.0000
  H   H20       1.0  0.844926977989168  0.9983063230373972  0.8074681043338074  1.0000
  H   H21       1.0  0.9777443084951472  0.9560135285537044  0.3663876743956322  1.0000
  H   H22       1.0  0.022254693684089902  0.0439876018015184  0.6336146833145689  1.0000
  H   H23       1.0  0.8188337952540153  0.3566311841519649  0.2105070004051655  1.0000
  H   H24       1.0  0.18116534383685232  0.6433680114917095  0.7894936518662945  1.0000
  H   H25       1.0  0.7439055282781768  0.7932046495512283  0.6515009090461846  1.0000
  H   H26       1.0  0.256095730532202  0.2067955134482204  0.3484992858711848  1.0000
  H   H27       1.0  0.41685567259629863  0.0702600172951691  0.6962099478300486  1.0000
  H   H28       1.0  0.5831424408627229  0.9297382109927312  0.30379190218178564  1.0000
  H   H29       1.0  0.31768184333842  0.887436710307064  0.8710123773991327  1.0000
  H   H30       1.0  0.6823162701206016  0.1125615179808364  0.12899026999728144  1.0000
  H   H31       1.0  0.4362257117983433  0.665954801482556  0.9268185600064812  1.0000
  H   H32       1.0  0.5637767095555192  0.3340443941611184  0.07318192127009839  1.0000
  H   H33       1.0  0.6482615727691795  0.313474540961181  0.3523819155864771  1.0000
  H   H34       1.0  0.3517364037782117  0.6865256220382676  0.6476184503257799  1.0000
  H   H35       1.0  0.7247437046771382  0.5408553853017395  0.04610208076879025  1.0000
  H   H36       1.0  0.2752553659579108  0.45914477769770917  0.9538958359914388  1.0000
  C   C1        1.0  0.9818855265671971  0.5061069985073985  0.7458981097918522  1.0000
  C   C2        1.0  0.0181147066113425  0.493892197136276  0.25410089071215947  1.0000
  C   C3        1.0  0.0836393361211094  0.5220809444202317  0.6424326339689372  1.0000
  C   C4        1.0  0.9163618542334575  0.47792018593499114  0.3575672175909403  1.0000
  C   C5        1.0  0.05475575095070441  0.6267294921614379  0.5366312182873401  1.0000
  C   C6        1.0  0.9452442084045601  0.37327357290533314  0.4633688009404082  1.0000
  C   C7        1.0  0.14980972269150783  0.6498483278285434  0.4398524899196872  1.0000
  C   C8        1.0  0.8501881169442456  0.3501537698824535  0.5601455945084127  1.0000
  C   C9        1.0  0.273213119227826  0.566203976030252  0.4462071106665634  1.0000
  C   C10       1.0  0.7267836263202626  0.4337981216807449  0.553789435990673  1.0000
  C   C11       1.0  0.3022390223313849  0.4613222955472693  0.5502491414017143  1.0000
  C   C12       1.0  0.6977599113920335  0.5386798021637276  0.4497488860280896  1.0000
  C   C13       1.0  0.21021060864262614  0.4391408276261545  0.6498296696357714  1.0000
  C   C14       1.0  0.7897895560800947  0.5608593353732942  0.3501705822798939  1.0000
  C   C15       1.0  0.2464891838266965  0.32241677774543126  0.7563303285566007  1.0000
  C   C16       1.0  0.7535099552641712  0.6775824178982432  0.2436687289457069  1.0000
  C   C17       1.0  0.3697720490302461  0.3113473256119264  0.8217676747870826  1.0000
  C   C18       1.0  0.630228115692475  0.6886528373875223  0.1782301849748508  1.0000
  C   C19       1.0  0.45608884356272483  0.42575842783458745  0.8042244949868405  1.0000
  C   C20       1.0  0.5439123467918423  0.5742427025206354  0.19577376180387773  1.0000
  C   C21       1.0  0.4061972731970159  0.1932157730785491  0.9135976184888364  1.0000
  C   C22       1.0  0.5938039171575512  0.8067853572766738  0.08640223307104122  1.0000
  C   C23       1.0  0.31949838234935873  0.08828572480681632  0.9449720500181015  1.0000
  C   C24       1.0  0.6805049961805311  0.9117154055484065  0.05502768754518439  1.0000
  C   C25       1.0  0.19524145949637273  0.09994719867462722  0.8821121475723928  1.0000
  C   C26       1.0  0.8047631500328196  0.9000519969690473  0.11788662493843557  1.0000
  C   C27       1.0  0.16180075008168873  0.2148187622462032  0.7876334665664758  1.0000
  C   C28       1.0  0.8382052273584293  0.7851765639743746  0.21236263545316095  1.0000
  C   C29       1.0  0.0814515210456719  0.2031224635704874  0.11581390401555322  1.0000
  C   C30       1.0  0.9185475495893771  0.7968776994289614  0.8841879996675671  1.0000
  C   C31       1.0  0.0792117229362646  0.0775074467615866  0.2010326627537324  1.0000
  C   C32       1.0  0.9207873476987843  0.922492716237862  0.7989700383139606  1.0000
  C   C33       1.0  0.9815298305901196  0.0519208865124199  0.2966090750778818  1.0000
  C   C34       1.0  0.018469240044936417  0.9480792764870287  0.7033936259898115  1.0000
  C   C35       1.0  0.8851295659147029  0.1528354409620647  0.30273777627777315  1.0000
  C   C36       1.0  0.11487053035219932  0.8471656893931581  0.6972637270495525  1.0000
  C   C37       1.0  0.8926396465330626  0.2750173121254349  0.2119610541343349  1.0000
  C   C38       1.0  0.10735839847014013  0.7249818835182396  0.7880404525200007  1.0000
  C   C39       1.0  0.7783927421759387  0.1303221700101247  0.39937132788418944  1.0000
  C   C40       1.0  0.22160742254678215  0.8696779929893239  0.6006305188006352  1.0000
  C   C41       1.0  0.648362327666149  0.043530042519933004  0.5538590218001715  1.0000
  C   C42       1.0  0.35163783705657187  0.9564701204795156  0.44614282488465307  1.0000
  C   C43       1.0  0.5883548092788901  0.9455680208950882  0.6598965592259703  1.0000
  C   C44       1.0  0.41164303035687067  0.0544340768159088  0.3401039173558615  1.0000
  C   C45       1.0  0.6500761823077639  0.8183800835960114  0.6984257164345422  1.0000
  C   C46       1.0  0.3499240508707687  0.1816191120476631  0.301574878838629  1.0000
  C   C47       1.0  0.46751204572751  0.9722796159105941  0.7236350201509937  1.0000
  C   C48       1.0  0.5324883243626601  0.0277176450215251  0.2763678566063276  1.0000
  C   C49       1.0  0.41261067161294557  0.8711367654980507  0.8204102978993574  1.0000
  C   C50       1.0  0.5873885359337478  0.1288614627898497  0.179591495114181  1.0000
  C   C51       1.0  0.478707052897228  0.747137232833424  0.8524759730434681  1.0000
  C   C52       1.0  0.5212932487371233  0.2528609954544692  0.14752576297177458  1.0000
  N   N1        1.0  0.9901738581020967  0.2997448604463884  0.12215897970396133  1.0000
  N   N2        1.0  0.009825212532959416  0.7002553025530602  0.8778421265945795  1.0000
  N   N3        1.0  0.7653653643926859  0.0180324790020663  0.4909305795444041  1.0000
  N   N4        1.0  0.23463356933073248  0.9819696187089306  0.5090706374237187  1.0000
  N   N5        1.0  0.6728682259605421  0.21856823323016533  0.4089279040385847  1.0000
  N   N6        1.0  0.32713084467450676  0.7814319297692834  0.5910732022599562  1.0000
  N   N7        1.0  0.5888776893021443  0.1653317428637209  0.506482383455122  1.0000
  N   N8        1.0  0.4111203557010655  0.8346674527799536  0.49351912319921354  1.0000
  N   N9        1.0  0.5967990766006395  0.7221601067225194  0.7924928941378725  1.0000
  N   N10       1.0  0.4032021822097392  0.2778400562769292  0.20750650339491733  1.0000
  O   O1        1.0  0.026439503382008  0.442703598945542  0.8475421213709992  1.0000
  O   O2        1.0  0.9735617554283708  0.5572965640539067  0.15245807354637012  1.0000
  O   O3        1.0  0.8533258284959188  0.5634508814945605  0.7221379884302906  1.0000
  O   O4        1.0  0.14667543031446686  0.4365492815048881  0.2778622064870788  1.0000
  O   O5        1.0  0.3996665147430747  0.538438930575751  0.7540492507731147  1.0000
  O   O6        1.0  0.6003357012433385  0.461563167135246  0.24595020043096133  1.0000
  O   O7        1.0  0.5834305119460057  0.3987372789710761  0.8497641001196926  1.0000
  O   O8        1.0  0.416570541496924  0.601265786095702  0.15023426734060052  1.0000
  O   O9        1.0  0.7759910126287297  0.501751962808278  0.9966051601893184  1.0000
  O   O10       1.0  0.2240092890056218  0.4982462654796223  0.0033949810567648125  1.0000
