data_image0
_chemical_formula_structural       Cd4P4H44C32Cl8
_chemical_formula_sum              "Cd4 P4 H44 C32 Cl8"
_cell_length_a       7.091703059010892
_cell_length_b       12.144583032262876
_cell_length_c       12.803188901539212
_cell_angle_alpha    90.00034076704863
_cell_angle_beta     93.49141678342639
_cell_angle_gamma    90.00065634403747

_space_group_name_H-M_alt    "P 1"
_space_group_IT_number       1

loop_
  _space_group_symop_operation_xyz
  'x, y, z'

loop_
  _atom_site_type_symbol
  _atom_site_label
  _atom_site_symmetry_multiplicity
  _atom_site_fract_x
  _atom_site_fract_y
  _atom_site_fract_z
  _atom_site_occupancy
  Cd  Cd1       1.0  0.2547892230055098  0.023349709300212903  0.05382421949917671  1.0000
  Cd  Cd2       1.0  0.24521109017661763  0.5233491433394875  0.4461723659185425  1.0000
  Cd  Cd3       1.0  0.74521328673859  0.9766508001312886  0.946168746961156  1.0000
  Cd  Cd4       1.0  0.7547900736010078  0.4766505427045401  0.5538299308050156  1.0000
  P   P1        1.0  0.2675951875231135  0.08753205289857387  0.2437366569011346  1.0000
  P   P2        1.0  0.23240358942387468  0.5875326724772733  0.2562594615552669  1.0000
  P   P3        1.0  0.7324129563884156  0.9124701033698271  0.7562541441660072  1.0000
  P   P4        1.0  0.7675947712181354  0.4124703072164023  0.7437458709703221  1.0000
  H   H1        1.0  0.3852071123597298  0.9635812607097872  0.440350697095532  1.0000
  H   H2        1.0  0.11478653606535262  0.46357350973377  0.059647383847867295  1.0000
  H   H3        1.0  0.6147911704304293  0.036424189186256194  0.5596436981198565  1.0000
  H   H4        1.0  0.8852089935033193  0.5364204124114663  0.9403570782559426  1.0000
  H   H5        1.0  0.21928877447816567  0.8187304180311514  0.5369057775639874  1.0000
  H   H6        1.0  0.2806967562918032  0.3187222134536469  0.9630975047761865  1.0000
  H   H7        1.0  0.780702461434892  0.181273385023097  0.463090738466434  1.0000
  H   H8        1.0  0.7192960034754705  0.6812708852942533  0.0369146805386933  1.0000
  H   H9        1.0  0.8971524221533828  0.7590581646817897  0.47531411304876064  1.0000
  H   H10       1.0  0.6028377117249093  0.2590484657946631  0.024689920341181403  1.0000
  H   H11       1.0  0.10284161142401871  0.2409514022564778  0.5246785859711025  1.0000
  H   H12       1.0  0.397153629745155  0.7409421627087197  0.9753214391507895  1.0000
  H   H13       1.0  0.7390755433387922  0.8437722648620608  0.3158361718482752  1.0000
  H   H14       1.0  0.7609022113024436  0.3437629902353335  0.1841734169042795  1.0000
  H   H15       1.0  0.26091709982927114  0.1562422425555212  0.6841596075569498  1.0000
  H   H16       1.0  0.23908350157942948  0.656227638258386  0.8158408892230468  1.0000
  H   H17       1.0  0.9043628220224774  0.98336807712365  0.2159557112843942  1.0000
  H   H18       1.0  0.5956233605384114  0.4833574960967724  0.284049464569236  1.0000
  H   H19       1.0  0.09564391483336009  0.0166431366784963  0.7840358264700599  1.0000
  H   H20       1.0  0.4043651221614653  0.5166356026190401  0.7159571183522004  1.0000
  H   H21       1.0  0.990625728439568  0.2025355125426671  0.23049690336869588  1.0000
  H   H22       1.0  0.5093773645777304  0.702533066647959  0.2695033143585519  1.0000
  H   H23       1.0  0.009388094173630204  0.7974715842320136  0.7694979822115826  1.0000
  H   H24       1.0  0.4906308849572553  0.2974625023686031  0.7305023301908377  1.0000
  H   H25       1.0  0.20158880091870657  0.2805997329247489  0.22209033826045044  1.0000
  H   H26       1.0  0.2984124914077739  0.7806009337156893  0.2779116365990077  1.0000
  H   H27       1.0  0.7984208002201215  0.7194040701931711  0.7779067572860043  1.0000
  H   H28       1.0  0.7015971597365507  0.21939710553793645  0.7220924900623018  1.0000
  H   H29       1.0  0.1354182959588357  0.23265342461564126  0.34693795438636954  1.0000
  H   H30       1.0  0.36458341405147365  0.7326542832403006  0.153059857491094  1.0000
  H   H31       1.0  0.8645926900516158  0.7673479082576264  0.653055279545491  1.0000
  H   H32       1.0  0.6354262482097964  0.2673429326059135  0.8469458316416336  1.0000
  H   H33       1.0  0.5878170142492393  0.03987833541652459  0.3056950350706771  1.0000
  H   H34       1.0  0.9121771355080951  0.5398707173596122  0.1943024194463163  1.0000
  H   H35       1.0  0.4121826978720335  0.9601205271928421  0.6943017484131601  1.0000
  H   H36       1.0  0.0878282552899208  0.46013061551889217  0.8056984485428984  1.0000
  H   H37       1.0  0.4859168019569893  0.1440415590575128  0.386232300877154  1.0000
  H   H38       1.0  0.014078882294136  0.644034045020021  0.11376482025563919  1.0000
  H   H39       1.0  0.5140857300210014  0.8559573035591581  0.6137637905259936  1.0000
  H   H40       1.0  0.9859321704429149  0.3559648176459191  0.8862377885124245  1.0000
  H   H41       1.0  0.56689862192777  0.17874332962849585  0.2615395948728931  1.0000
  H   H42       1.0  0.9330940743233994  0.6787377779239776  0.2384562550629923  1.0000
  H   H43       1.0  0.43311240855877736  0.8212555330275106  0.7384598889471832  1.0000
  H   H44       1.0  0.06690282911623062  0.3212660251573141  0.7615427829910502  1.0000
  C   C1        1.0  0.1555050236056559  0.9849023785826034  0.3224237380228415  1.0000
  C   C2        1.0  0.34449188042577117  0.48490268284064086  0.1775745661194392  1.0000
  C   C3        1.0  0.8445045218819942  0.0150989542733484  0.6775655451458746  1.0000
  C   C4        1.0  0.6555036547138328  0.5150920627194537  0.8224306772239558  1.0000
  C   C5        1.0  0.2431521681267483  0.9381817181047226  0.41310325373713397  1.0000
  C   C6        1.0  0.2568452283602554  0.4381800363824553  0.086897926254963  1.0000
  C   C7        1.0  0.7568560146816381  0.0618163211191671  0.5868930159760524  1.0000
  C   C8        1.0  0.7431376257680282  0.5618147091484643  0.9131116033070157  1.0000
  C   C9        1.0  0.15002434684409138  0.8572137914319384  0.4679199601563582  1.0000
  C   C10       1.0  0.3499728122132026  0.35720168668370184  0.0320784117334441  1.0000
  C   C11       1.0  0.8499809272135224  0.14279495210581666  0.5320645018791978  1.0000
  C   C12       1.0  0.6500072442507303  0.6427872949631848  0.9679349348390929  1.0000
  C   C13       1.0  0.9687412327157218  0.823327256524756  0.4334105071498869  1.0000
  C   C14       1.0  0.531247350033482  0.32332310375415574  0.0665907161267114  1.0000
  C   C15       1.0  0.0312542023547522  0.17667325287728622  0.5665806739456727  1.0000
  C   C16       1.0  0.46874118829264694  0.6766699949864974  0.9334236791646973  1.0000
  C   C17       1.0  0.8802361103705393  0.8703674009534124  0.3436302576868897  1.0000
  C   C18       1.0  0.6197534101613654  0.37036111721525333  0.1563696987872802  1.0000
  C   C19       1.0  0.11976352952795108  0.1296405191598282  0.6563563697444437  1.0000
  C   C20       1.0  0.38023226381534414  0.6296328049105923  0.8436391386914223  1.0000
  C   C21       1.0  0.9734784342960197  0.9498820014588245  0.2876393196077629  1.0000
  C   C22       1.0  0.5265141141715688  0.4498828537430199  0.2123627437425739  1.0000
  C   C23       1.0  0.026526917530389903  0.0501160377527867  0.7123560797121158  1.0000
  C   C24       1.0  0.47347722185214286  0.550119302531172  0.7876478345486292  1.0000
  C   C25       1.0  0.1357108410674925  0.2130567710778664  0.2634805586364806  1.0000
  C   C26       1.0  0.36428341003966125  0.7130540372991874  0.23651690716104673  1.0000
  C   C27       1.0  0.8642958957302085  0.7869486788376321  0.7365109790998545  1.0000
  C   C28       1.0  0.6357234323898026  0.2869456487768502  0.7634894740601226  1.0000
  C   C29       1.0  0.49979247596150606  0.11399503552325287  0.306183241729336  1.0000
  C   C30       1.0  0.00019978234902850002  0.613991226812537  0.1938143826336187  1.0000
  C   C31       1.0  0.5002157013008599  0.8860046505229134  0.6938122467520315  1.0000
  C   C32       1.0  0.9997999743480009  0.38601504652810087  0.8061886507694851  1.0000
  Cl  Cl1       1.0  0.41374211052526283  0.0913181858024714  0.8968855511431286  1.0000
  Cl  Cl2       1.0  0.0862642337597777  0.5913185014240198  0.6031131980101279  1.0000
  Cl  Cl3       1.0  0.5862603936645171  0.9086831470389212  0.10310663408279909  1.0000
  Cl  Cl4       1.0  0.9137369466642083  0.4086770675655699  0.39689144241148006  1.0000
  Cl  Cl5       1.0  0.06607880467016261  0.8541216176453189  0.9969544253507364  1.0000
  Cl  Cl6       1.0  0.433917306844215  0.35412224628180416  0.5030462665732855  1.0000
  Cl  Cl7       1.0  0.9339195170002413  0.1458780683814567  0.0030454385055236157  1.0000
  Cl  Cl8       1.0  0.5660866433977744  0.6458757929298711  0.49695065064243243  1.0000
