data_image0
_chemical_formula_structural       Al4H24C68N8Cl12O36
_chemical_formula_sum              "Al4 H24 C68 N8 Cl12 O36"
_cell_length_a       6.708398811626502
_cell_length_b       22.055520083924712
_cell_length_c       26.460992373893326
_cell_angle_alpha    104.57708223734004
_cell_angle_beta     91.17736033793986
_cell_angle_gamma    88.70376551162785

_space_group_name_H-M_alt    "P 1"
_space_group_IT_number       1

loop_
  _space_group_symop_operation_xyz
  'x, y, z'

loop_
  _atom_site_type_symbol
  _atom_site_label
  _atom_site_symmetry_multiplicity
  _atom_site_fract_x
  _atom_site_fract_y
  _atom_site_fract_z
  _atom_site_occupancy
  Al  Al1       1.0  0.9581983916198524  0.5006519076333334  0.49991095982539946  1.0000
  Al  Al2       1.0  0.5137861751787938  0.9985379100305566  0.998166242210317  1.0000
  Al  Al3       1.0  0.45754259887621634  0.4991619911427848  0.49870949524533614  1.0000
  Al  Al4       1.0  0.014283403333997987  0.9998602789327294  0.0010091313663310045  1.0000
  H   H1        1.0  0.003341020358831805  0.6731273424700533  0.7436954485891505  1.0000
  H   H2        1.0  0.5166021229440715  0.8178455215418838  0.7572044324289492  1.0000
  H   H3        1.0  0.41212206867630397  0.2855981135789918  0.274141574811452  1.0000
  H   H4        1.0  0.010912579562116796  0.17371092329023702  0.2437209682212682  1.0000
  H   H5        1.0  0.9885770990777445  0.5949652374640808  0.6590855399219038  1.0000
  H   H6        1.0  0.5261549019447925  0.8966789243021155  0.8416405369627001  1.0000
  H   H7        1.0  0.4059437456844606  0.37046219265511127  0.3561581818394686  1.0000
  H   H8        1.0  0.0203712927109763  0.09768191031616173  0.15733606756045052  1.0000
  H   H9        1.0  0.45853206889600523  0.770856072197532  0.6832096505794639  1.0000
  H   H10       1.0  0.9571182194600142  0.7520237891938637  0.8002524486397603  1.0000
  H   H11       1.0  0.050253714723169196  0.26754867227765544  0.2938477545851015  1.0000
  H   H12       1.0  0.46111500146739803  0.25185716435427713  0.1968839937769644  1.0000
  H   H13       1.0  0.39251126787687696  0.6050954883146601  0.2813966056890038  1.0000
  H   H14       1.0  0.2750169724992162  0.9084431148236192  0.22953719281927223  1.0000
  H   H15       1.0  0.671606910040552  0.40316073830372556  0.7277588377712263  1.0000
  H   H16       1.0  0.748647257443757  0.08788640607541255  0.7687848675554533  1.0000
  H   H17       1.0  0.4862163685630847  0.7489716246339385  0.3171738293431758  1.0000
  H   H18       1.0  0.9792862247428643  0.7457572157287161  0.17780277597881883  1.0000
  H   H19       1.0  0.0345876552710749  0.24659245506402533  0.6893682969098974  1.0000
  H   H20       1.0  0.45684463272567644  0.24556510898982967  0.8031637175419988  1.0000
  H   H21       1.0  0.698392658162497  0.5774064374021394  0.49248644030417665  1.0000
  H   H22       1.0  0.7688598852269733  0.9174731762506811  0.9735050084789734  1.0000
  H   H23       1.0  0.21164724730317627  0.41682030447051927  0.478590038715268  1.0000
  H   H24       1.0  0.26198689002072933  0.0820485328292833  0.0084622661404268  1.0000
  C   C1        1.0  0.725766719519875  0.43773242886400976  0.561223526439285  1.0000
  C   C2        1.0  0.7625485072278053  0.06648466247230547  0.9404558997081905  1.0000
  C   C3        1.0  0.1916744457807127  0.56299434048956  0.4373044790899172  1.0000
  C   C4        1.0  0.2714385619910971  0.9331020935704119  0.058880161185164995  1.0000
  C   C5        1.0  0.702625662520873  0.4146675700895202  0.4221990290001897  1.0000
  C   C6        1.0  0.7539913043831347  0.0799930782959706  0.07922105188536219  1.0000
  C   C7        1.0  0.21701028564864092  0.5847725155938123  0.5755245592362571  1.0000
  C   C8        1.0  0.2653995782699354  0.9176056058912183  0.9196163146123553  1.0000
  C   C9        1.0  0.0991100170867156  0.6787107743853582  0.7124971182288461  1.0000
  C   C10       1.0  0.3945892997523188  0.8201707876964622  0.7841803579829546  1.0000
  C   C11       1.0  0.5502599650691096  0.29892618577113694  0.2960830131238623  1.0000
  C   C12       1.0  0.8928083896424112  0.17523427141225062  0.21513366712623141  1.0000
  C   C13       1.0  0.09095238943900341  0.6339191779029321  0.6649597807507419  1.0000
  C   C14       1.0  0.40236879465187764  0.8646459154991178  0.8317599866680891  1.0000
  C   C15       1.0  0.5434929563541145  0.34582423064200196  0.34211462065881887  1.0000
  C   C16       1.0  0.8985541467354634  0.1319148733717483  0.16675077102357957  1.0000
  C   C17       1.0  0.2170222702396245  0.6369355269235301  0.6242674881519363  1.0000
  C   C18       1.0  0.2540623406389598  0.8689677803211782  0.8689825780750907  1.0000
  C   C19       1.0  0.7147806252958446  0.36507914415285814  0.3720231299056919  1.0000
  C   C20       1.0  0.7475844707145924  0.13026822151042694  0.1291844693518414  1.0000
  C   C21       1.0  0.3489234369793762  0.686899364251147  0.6331147448281128  1.0000
  C   C22       1.0  0.0972159175097929  0.8268359170881895  0.8555830785432832  1.0000
  C   C23       1.0  0.8934826951245612  0.33547591139908667  0.35254634920783456  1.0000
  C   C24       1.0  0.5897242956399111  0.17385258336188514  0.14249495090164999  1.0000
  C   C25       1.0  0.35560680262491223  0.7326224431191548  0.6799491542512682  1.0000
  C   C26       1.0  0.08482914999630252  0.7827752754146645  0.8079681706451112  1.0000
  C   C27       1.0  0.9050740360234356  0.28781959462430257  0.30703179774148026  1.0000
  C   C28       1.0  0.5841995482939666  0.2180022680688722  0.19016813094142293  1.0000
  C   C29       1.0  0.22964078143712638  0.7295302833328351  0.7209416184344021  1.0000
  C   C30       1.0  0.23616431257133996  0.7779983375905887  0.7710919160250638  1.0000
  C   C31       1.0  0.7306398200453116  0.2684788286509558  0.2775179481792307  1.0000
  C   C32       1.0  0.7369003015985383  0.21989157780351581  0.22757196175399486  1.0000
  C   C33       1.0  0.30426445046768436  0.5839392635998735  0.3527238685228582  1.0000
  C   C34       1.0  0.2826729848917894  0.9219770049729804  0.15184000722872068  1.0000
  C   C35       1.0  0.6943859526802711  0.4213809535734968  0.6520039995919974  1.0000
  C   C36       1.0  0.7548118950242185  0.0760660147497988  0.8471892861804734  1.0000
  C   C37       1.0  0.3026561935005176  0.6199282716972547  0.31630879302961284  1.0000
  C   C38       1.0  0.28011185765053176  0.8857530867405711  0.18794956932549664  1.0000
  C   C39       1.0  0.6961335079505773  0.3828618911873107  0.686319776689025  1.0000
  C   C40       1.0  0.7550646527756585  0.11126701018135082  0.8102548338237484  1.0000
  C   C41       1.0  0.1877784210338261  0.6749654378315102  0.324676037081062  1.0000
  C   C42       1.0  0.2818686451613175  0.820376859286732  0.1708495864144268  1.0000
  C   C43       1.0  0.7296795235530594  0.3182397115268928  0.6679141091203107  1.0000
  C   C44       1.0  0.7634565226192292  0.17655271215220852  0.8264592537888973  1.0000
  C   C45       1.0  0.07662309724364752  0.6947934599324768  0.37047963641180803  1.0000
  C   C46       1.0  0.2905757181849252  0.7915111912228242  0.11713565834356389  1.0000
  C   C47       1.0  0.765552604189132  0.29261186352287893  0.6145495459432765  1.0000
  C   C48       1.0  0.7707553218596531  0.20641811702421364  0.87998890556495  1.0000
  C   C49       1.0  0.0763500821689291  0.6579858231644025  0.4067949782648483  1.0000
  C   C50       1.0  0.2910258751194661  0.8285984923046995  0.08101795239077349  1.0000
  C   C51       1.0  0.7660290527521666  0.3321553223132768  0.5803563341474672  1.0000
  C   C52       1.0  0.7702711572812149  0.1703973548885999  0.9168861975390924  1.0000
  C   C53       1.0  0.19036420728104997  0.6019651972568668  0.3981319185406704  1.0000
  C   C54       1.0  0.28370548911324517  0.8941240143226281  0.0981756339740514  1.0000
  C   C55       1.0  0.728752477326573  0.39660747988243383  0.5988287307942527  1.0000
  C   C56       1.0  0.7602608913452116  0.10492044447128995  0.9006459439036405  1.0000
  C   C57       1.0  0.37219931554902536  0.7483649933489006  0.28715813019078945  1.0000
  C   C58       1.0  0.09263669546628249  0.7469368262604235  0.20798766249028938  1.0000
  C   C59       1.0  0.9055814862278595  0.24605222300119323  0.7134683752119102  1.0000
  C   C60       1.0  0.5853682108510725  0.24596479366394425  0.7788212629449589  1.0000
  C   C61       1.0  0.4019948371355965  0.781703806826414  0.24976070069455147  1.0000
  C   C62       1.0  0.06283382562259732  0.7131300258409468  0.24498240862124018  1.0000
  C   C63       1.0  0.9176082970733147  0.2144760215984292  0.7528522853610865  1.0000
  C   C64       1.0  0.5728256160992018  0.27712532487490904  0.739154050763112  1.0000
  C   C65       1.0  0.2635157497496081  0.7824771052255458  0.20949538387360886  1.0000
  C   C66       1.0  0.200689690876203  0.7130931995879806  0.28580850799604457  1.0000
  C   C67       1.0  0.7594458466523973  0.21332355516129559  0.786502447075648  1.0000
  C   C68       1.0  0.7321681435577929  0.27911891367364927  0.7059887149253469  1.0000
  N   N1        1.0  0.5928688636079257  0.8147717305367838  0.2529502457921565  1.0000
  N   N2        1.0  0.8782460650908277  0.6762323378448087  0.23848140375179835  1.0000
  N   N3        1.0  0.11157165602251949  0.18445403321108253  0.7597447470351852  1.0000
  N   N4        1.0  0.3771972987589507  0.30549040546682  0.7311547717276384  1.0000
  N   N5        1.0  0.48179750687981476  0.6945725553162775  0.5913861241379054  1.0000
  N   N6        1.0  0.9409872790461833  0.8246999778099422  0.8936295161538936  1.0000
  N   N7        1.0  0.08091942461554416  0.3599557753924287  0.37830498122232115  1.0000
  N   N8        1.0  0.4233958581718937  0.1777878336562111  0.10585814573411059  1.0000
  Cl  Cl1       1.0  0.44754812737289734  0.515965294286616  0.3394265978674155  1.0000
  Cl  Cl2       1.0  0.28670389744203817  0.0028182341198431135  0.17409330808666107  1.0000
  Cl  Cl3       1.0  0.6487271519182939  0.5009892671274019  0.6754467581514945  1.0000
  Cl  Cl4       1.0  0.7519767932931886  0.9951395346159161  0.8262668314546742  1.0000
  Cl  Cl5       1.0  0.9424838166600651  0.7639996415923849  0.38129792953329666  1.0000
  Cl  Cl6       1.0  0.30542249677786504  0.7112520979057353  0.09556038346487129  1.0000
  Cl  Cl7       1.0  0.8011959484768738  0.21321894072882944  0.5905340061177639  1.0000
  Cl  Cl8       1.0  0.7881431338662424  0.2865412352726367  0.9000452775280791  1.0000
  Cl  Cl9       1.0  0.9413387081163903  0.6832170713701231  0.46301702964671415  1.0000
  Cl  Cl10      1.0  0.2965423025176932  0.7942786061387468  0.015267689289956402  1.0000
  Cl  Cl11      1.0  0.8114578624022143  0.30216031865970194  0.5149841288317133  1.0000
  Cl  Cl12      1.0  0.7872245284930343  0.20562732264900066  0.9824428328834216  1.0000
  O   O1        1.0  0.5311994001237607  0.4375375249992075  0.4358581882127838  1.0000
  O   O2        1.0  0.9237268891566544  0.06581096739258642  0.0587406309969651  1.0000
  O   O3        1.0  0.0487356190856545  0.5701266918754656  0.5537350863996621  1.0000
  O   O4        1.0  0.43524288237654213  0.9406526490462711  0.9338915028438706  1.0000
  O   O5        1.0  0.8910505271772208  0.460263388743016  0.5536910423441056  1.0000
  O   O6        1.0  0.5954420655561421  0.056013333491527866  0.9577695585541618  1.0000
  O   O7        1.0  0.3597588758766008  0.5546979148084362  0.45763069331029976  1.0000
  O   O8        1.0  0.09872014026946367  0.9532913571442094  0.0504701508376755  1.0000
  O   O9        1.0  0.865133364373726  0.4289865807371954  0.4476301545797909  1.0000
  O   O10       1.0  0.5890404723573112  0.0551406051103953  0.06261447165548618  1.0000
  O   O11       1.0  0.3847452367709678  0.5589476630459131  0.5618409935665554  1.0000
  O   O12       1.0  0.10287083527217789  0.9320461434783243  0.9441103540467566  1.0000
  O   O13       1.0  0.024991886700405495  0.5424471297230938  0.4467733046515718  1.0000
  O   O14       1.0  0.43280897844059746  0.941249195477859  0.03779136871511919  1.0000
  O   O15       1.0  0.5583492824339373  0.4448299855401602  0.5403281182532494  1.0000
  O   O16       1.0  0.9337986483257267  0.048652365294216814  0.9525774769282761  1.0000
  O   O17       1.0  0.7045130647630556  0.5376309785922758  0.5019895143733918  1.0000
  O   O18       1.0  0.7667553395620101  0.9611789523317712  0.9929434546205514  1.0000
  O   O19       1.0  0.20973057498596145  0.46152167626499374  0.4950310644725775  1.0000
  O   O20       1.0  0.2624727998923433  0.03715021106831531  0.0050328480635073005  1.0000
  O   O21       1.0  0.6647302817591552  0.8370806361919136  0.2970820596115686  1.0000
  O   O22       1.0  0.6703009815530337  0.8169011655974144  0.21131072680357477  1.0000
  O   O23       1.0  0.814852981380099  0.6608575139509939  0.2770863173638459  1.0000
  O   O24       1.0  0.7967777206376283  0.6634316394718739  0.19467400423898337  1.0000
  O   O25       1.0  0.21312268203565304  0.1641702557726817  0.7201596429414109  1.0000
  O   O26       1.0  0.1636032927259947  0.18297862966532114  0.8046509269965368  1.0000
  O   O27       1.0  0.324120772182944  0.3036819187564319  0.6856416767296379  1.0000
  O   O28       1.0  0.2753697007312184  0.32748204729866615  0.7703829671822646  1.0000
  O   O29       1.0  0.41455933395604916  0.6812370530828531  0.546099822771268  1.0000
  O   O30       1.0  0.6506535611115395  0.7149671110096207  0.6048694477067328  1.0000
  O   O31       1.0  0.9855576137537055  0.7978649732923699  0.9280821695860053  1.0000
  O   O32       1.0  0.775668178470987  0.84806427647181  0.8874110476867115  1.0000
  O   O33       1.0  0.14084760776915314  0.407356427029562  0.36686750199168466  1.0000
  O   O34       1.0  0.1673982327740475  0.33150059785214137  0.40745305874607135  1.0000
  O   O35       1.0  0.462901479594656  0.1732306544749989  0.0596023268174761  1.0000
  O   O36       1.0  0.2543808133392104  0.18716266717585484  0.1247980141712475  1.0000
