data_image0
_chemical_formula_structural       Cd2H24C20I4N8
_chemical_formula_sum              "Cd2 H24 C20 I4 N8"
_cell_length_a       4.1538812421140445
_cell_length_b       8.33609908006163
_cell_length_c       22.023909521258116
_cell_angle_alpha    90.0004738487012
_cell_angle_beta     89.99967804656853
_cell_angle_gamma    97.12309828606575

_space_group_name_H-M_alt    "P 1"
_space_group_IT_number       1

loop_
  _space_group_symop_operation_xyz
  'x, y, z'

loop_
  _atom_site_type_symbol
  _atom_site_label
  _atom_site_symmetry_multiplicity
  _atom_site_fract_x
  _atom_site_fract_y
  _atom_site_fract_z
  _atom_site_occupancy
  Cd  Cd1       1.0  0.5000004045214155  5.081767440602445e-06  0.5000000058879337  1.0000
  Cd  Cd2       1.0  0.9999986035552053  0.5000159816360537  4.4244678179e-06  1.0000
  H   H1        1.0  0.3464290453684953  0.9809035183107753  0.3535140345745589  1.0000
  H   H2        1.0  0.15351647519238304  0.5190950098175834  0.8535240644358382  1.0000
  H   H3        1.0  0.6535865025136188  0.019099825184817107  0.6464807704331221  1.0000
  H   H4        1.0  0.8463484309446443  0.4808896093813716  0.14648708648344672  1.0000
  H   H5        1.0  0.5973559785055684  0.6207566975259341  0.46784317810010373  1.0000
  H   H6        1.0  0.9026793821373146  0.8792851996292725  0.96784868357728  1.0000
  H   H7        1.0  0.40271317042431315  0.37927382621030153  0.5321579836542014  1.0000
  H   H8        1.0  0.09733256012504649  0.12076029595836961  0.03214975391562551  1.0000
  H   H9        1.0  0.6006461922798038  0.4313735914906118  0.3783637547450454  1.0000
  H   H10       1.0  0.8993975000054916  0.06864348851099321  0.8783641802869012  1.0000
  H   H11       1.0  0.39942222663594856  0.568641250451833  0.6216414934523726  1.0000
  H   H12       1.0  0.10065088138897955  0.9313674909086704  0.12162472204188651  1.0000
  H   H13       1.0  0.229257878873959  0.7027988792228613  0.21822794359819403  1.0000
  H   H14       1.0  0.2707313359492929  0.7971673534502345  0.7182324000910896  1.0000
  H   H15       1.0  0.7707668369427408  0.2971901093797271  0.7817714019021338  1.0000
  H   H16       1.0  0.7292086293532447  0.20277116675315204  0.2817683075235919  1.0000
  H   H17       1.0  0.5596759712814005  0.8584674037449819  0.2238133335268842  1.0000
  H   H18       1.0  0.9403197627038934  0.6415052572659405  0.7238216737672332  1.0000
  H   H19       1.0  0.4403567121851636  0.1415252992910894  0.7761837417157409  1.0000
  H   H20       1.0  0.05962575611690111  0.35843694786041885  0.2761840284226977  1.0000
  H   H21       1.0  0.1699424826124911  0.9003934164003697  0.24531294347329444  1.0000
  H   H22       1.0  0.3300384770585297  0.5995841043252242  0.7453239758755217  1.0000
  H   H23       1.0  0.8300853727988906  0.09959922747272291  0.7546841317714765  1.0000
  H   H24       1.0  0.6699000458543907  0.4003712768116827  0.2546880830666893  1.0000
  C   C1        1.0  0.40093615781085384  0.7522030948405958  0.308487576605458  1.0000
  C   C2        1.0  0.0990601419058592  0.7478011879894382  0.8084911258920471  1.0000
  C   C3        1.0  0.5991110142097824  0.24780184182908738  0.6915117689100256  1.0000
  C   C4        1.0  0.9008839436144312  0.25218199014690873  0.191508673688368  1.0000
  C   C5        1.0  0.4024980526465852  0.856922451658882  0.3585161004879964  1.0000
  C   C6        1.0  0.09746736251209141  0.6430800365129771  0.8585211314977029  1.0000
  C   C7        1.0  0.5975199092306198  0.1430809214403723  0.6414809747785739  1.0000
  C   C8        1.0  0.9024496893970093  0.35691245523533877  0.1414813924221505  1.0000
  C   C9        1.0  0.5390400681750761  0.6577397592567565  0.4220530291463405  1.0000
  C   C10       1.0  0.9609816314199406  0.8422865924581515  0.9220533672671962  1.0000
  C   C11       1.0  0.46099600547560016  0.34228191993178575  0.5779485866611154  1.0000
  C   C12       1.0  0.03900930135812789  0.15773815031348454  0.0779400756302522  1.0000
  C   C13       1.0  0.5408510337799939  0.5543396799914859  0.37235505566533794  1.0000
  C   C14       1.0  0.9591703959082452  0.9456772407727176  0.8723584514774245  1.0000
  C   C15       1.0  0.45921883184239926  0.445670357210922  0.6276461060557708  1.0000
  C   C16       1.0  0.0408306722423717  0.05433798134760082  0.127635445452043  1.0000
  C   C17       1.0  0.332283367516844  0.8061343296002549  0.24575723384672443  1.0000
  C   C18       1.0  0.16770192387584612  0.6938408417747227  0.7457628166216708  1.0000
  C   C19       1.0  0.6677469018896216  0.19385834387650652  0.7542421116569357  1.0000
  C   C20       1.0  0.8322286315237263  0.30611082483554963  0.2542419774863944  1.0000
  I   I1        1.0  0.9717548272425558  0.8043829710613509  0.5637654147309235  1.0000
  I   I2        1.0  0.5282587867472799  0.6956409781177444  0.0637633919974547  1.0000
  I   I3        1.0  0.028275930229170906  0.19562417570977433  0.43623710915967  1.0000
  I   I4        1.0  0.47174591345181227  0.30440442871212536  0.9362336833426922  1.0000
  N   N1        1.0  0.47071171707547416  0.6000365532454169  0.3161566923519317  1.0000
  N   N2        1.0  0.029296670656251016  0.8999571797428773  0.8161567080647528  1.0000
  N   N3        1.0  0.5293299013358919  0.39996469856340167  0.6838440153161969  1.0000
  N   N4        1.0  0.9706831416791598  0.10002402491287654  0.18383673476802193  1.0000
  N   N5        1.0  0.470340777593975  0.8095324926407843  0.4146844947198502  1.0000
  N   N6        1.0  0.029647420186485456  0.6904967095777367  0.914690648859235  1.0000
  N   N7        1.0  0.5296969846017062  0.1904855903825577  0.5853134886651077  1.0000
  N   N8        1.0  0.9702998181265913  0.3095262922410101  0.08531142104355642  1.0000
