data_image0
_chemical_formula_structural       Nd2H48C52Cl6O22
_chemical_formula_sum              "Nd2 H48 C52 Cl6 O22"
_cell_length_a       8.672398223424706
_cell_length_b       10.104524235847009
_cell_length_c       17.8131
_cell_angle_alpha    77.31228910446015
_cell_angle_beta     76.93916582085556
_cell_angle_gamma    71.05463300365568

_space_group_name_H-M_alt    "P 1"
_space_group_IT_number       1

loop_
  _space_group_symop_operation_xyz
  'x, y, z'

loop_
  _atom_site_type_symbol
  _atom_site_label
  _atom_site_symmetry_multiplicity
  _atom_site_fract_x
  _atom_site_fract_y
  _atom_site_fract_z
  _atom_site_occupancy
  Nd  Nd1       1.0  0.253467509518252  0.5038316181919313  0.4927103163575523  1.0000
  Nd  Nd2       1.0  0.7465365276977279  0.4961651935758553  0.5072894682643606  1.0000
  H   H1        1.0  0.4795983053595733  0.48598497863778795  0.21009349248205206  1.0000
  H   H2        1.0  0.5203985195643241  0.5140086537999125  0.7899069203787832  1.0000
  H   H3        1.0  0.3661525361390757  0.3590618824642746  0.23994562135504077  1.0000
  H   H4        1.0  0.6338385903799021  0.6409381086335983  0.7600557490029659  1.0000
  H   H5        1.0  0.03728820231410878  0.7446467962896861  0.11209146629504828  1.0000
  H   H6        1.0  0.9627066954418734  0.2553595534683595  0.887913749381731  1.0000
  H   H7        1.0  0.021656505356098383  0.7320269753983126  0.9765644143882354  1.0000
  H   H8        1.0  0.9783413378131696  0.2679846732432125  0.023439817041996523  1.0000
  H   H9        1.0  0.4144444756731929  0.3377911044066124  0.9848335145597956  1.0000
  H   H10       1.0  0.5855517158486664  0.6622184246815266  0.015168917124185569  1.0000
  H   H11       1.0  0.43371264108289853  0.3511326332276923  0.11800956705162952  1.0000
  H   H12       1.0  0.5662818987915442  0.6488747763070535  0.8819921876553066  1.0000
  H   H13       1.0  0.8642499444357127  0.9118318689062689  0.5690900943559923  1.0000
  H   H14       1.0  0.13575266125413776  0.0881691819683041  0.4309076354631216  1.0000
  H   H15       1.0  0.018282398868535686  0.8762975563023332  0.48454276177618266  1.0000
  H   H16       1.0  0.9817197388791356  0.1237013750188467  0.5154569677550569  1.0000
  H   H17       1.0  0.5581683728360645  0.1692495176196402  0.3896032416965127  1.0000
  H   H18       1.0  0.44183624238272756  0.830752593031626  0.6103941349927027  1.0000
  H   H19       1.0  0.5685804406092245  0.1894181279138678  0.24615843497367254  1.0000
  H   H20       1.0  0.4314207335544893  0.8105871620674847  0.7538389241964509  1.0000
  H   H21       1.0  0.03672260062590736  0.866029379898528  0.23164903019001307  1.0000
  H   H22       1.0  0.9632828404165962  0.1339737905294314  0.7683486849877355  1.0000
  H   H23       1.0  0.03174933568818255  0.8487921119443699  0.37142660499952734  1.0000
  H   H24       1.0  0.9682528020594886  0.1512068193768101  0.6285720017625137  1.0000
  H   H25       1.0  0.49552881088357736  0.9020607277727066  0.4356331614714789  1.0000
  H   H26       1.0  0.5044717852773173  0.0979392633251663  0.564364360092945  1.0000
  H   H27       1.0  0.594359247049809  0.8275446489740048  0.3500525550030815  1.0000
  H   H28       1.0  0.4056409912295607  0.1724564019005683  0.6499454352836835  1.0000
  H   H29       1.0  0.18795467841322017  0.1912356449468504  0.2669948085782039  1.0000
  H   H30       1.0  0.8120385953949665  0.808757987490857  0.7330037494457144  1.0000
  H   H31       1.0  0.14652395159942694  0.2080744368634555  0.13095878140538988  1.0000
  H   H32       1.0  0.8534701480324641  0.7919202553509379  0.8690395537224518  1.0000
  H   H33       1.0  0.4634660230439208  0.7803718686988361  0.12632064295478776  1.0000
  H   H34       1.0  0.5365343529957015  0.2196217637388713  0.8736788178199785  1.0000
  H   H35       1.0  0.503093006882672  0.7633115834528397  0.26131286565468054  1.0000
  H   H36       1.0  0.49690712133605786  0.23668628809164724  0.7386860942372591  1.0000
  H   H37       1.0  0.2955733361590588  0.4086318776249271  0.7053902451612402  1.0000
  H   H38       1.0  0.7044359038200554  0.5913670536962528  0.2946081415824509  1.0000
  H   H39       1.0  0.08352327717798863  0.43590946999333363  0.750037467831916  1.0000
  H   H40       1.0  0.916483237509105  0.5640905211045393  0.24996164810177385  1.0000
  H   H41       1.0  0.013136914110916116  0.6706129158874887  0.660771816922306  1.0000
  H   H42       1.0  0.9868696005761848  0.3293870752103913  0.3392256148575895  1.0000
  H   H43       1.0  0.16404452712330198  0.666902637676138  0.71549840285941  1.0000
  H   H44       1.0  0.8359596201533179  0.333097353421735  0.2844998507727324  1.0000
  H   H45       1.0  0.0225049048325872  0.4132747593284094  0.6415285517701292  1.0000
  H   H46       1.0  0.9775006739701696  0.5867209926626842  0.3584717566648123  1.0000
  H   H47       1.0  0.3585126299746761  0.6224259293146162  0.6107301576307831  1.0000
  H   H48       1.0  0.6414953162385613  0.3775698226764774  0.3892693289519044  1.0000
  C   C1        1.0  0.3248179109470257  0.4914364699600284  0.32355243826814467  1.0000
  C   C2        1.0  0.6751828229741292  0.5085561027009788  0.6764487993226707  1.0000
  C   C3        1.0  0.35881968403011655  0.4707104171239038  0.2390455298530156  1.0000
  C   C4        1.0  0.6411760672491837  0.5292863946438828  0.7609557277902681  1.0000
  C   C5        1.0  0.23371297564521853  0.5484980265819743  0.12458384092736452  1.0000
  C   C6        1.0  0.7662829957553611  0.45150514384599205  0.8754216527361578  1.0000
  C   C7        1.0  0.1188613348873702  0.6554369136062945  0.08393387101158817  1.0000
  C   C8        1.0  0.8811311954581242  0.3445694361517582  0.916073850671232  1.0000
  C   C9        1.0  0.11034846202506539  0.6483342901922882  0.008035059384894806  1.0000
  C   C10       1.0  0.8896417009099551  0.3516720595657645  0.9919723613809807  1.0000
  C   C11       1.0  0.21693570976555773  0.5335604740572961  0.9727838736720571  1.0000
  C   C12       1.0  0.7830621334037104  0.466451174584236  0.027219796373572067  1.0000
  C   C13       1.0  0.3314209485131201  0.4268653356729644  0.012538274030170271  1.0000
  C   C14       1.0  0.6685760688324435  0.5731452531918677  0.9874644961423439  1.0000
  C   C15       1.0  0.34107402388755764  0.4344893692212111  0.08870476564970176  1.0000
  C   C16       1.0  0.6589201581053529  0.5655191000902278  0.9112991419333765  1.0000
  C   C17       1.0  0.845747269120757  0.7528484081370408  0.5129622163458264  1.0000
  C   C18       1.0  0.15425641021369063  0.24714946340743887  0.48703635284464036  1.0000
  C   C19       1.0  0.887247278184347  0.8893868582698587  0.5092325634116931  1.0000
  C   C20       1.0  0.11275485956333138  0.1106120730513211  0.4907654819657523  1.0000
  C   C21       1.0  0.7943572812512514  0.0100392646375482  0.38968565787377674  1.0000
  C   C22       1.0  0.20564722390690093  0.9899596666836318  0.6103126884206134  1.0000
  C   C23       1.0  0.6644786721744111  0.1064969601422519  0.35400234647415363  1.0000
  C   C24       1.0  0.3355259430443808  0.8935051505090215  0.6459961529842602  1.0000
  C   C25       1.0  0.6699048558520744  0.11692834215718051  0.27440839158325037  1.0000
  C   C26       1.0  0.33009430878269097  0.8830758880474788  0.7255904434859629  1.0000
  C   C27       1.0  0.8037114685189337  0.0305713783383794  0.23044217149233498  1.0000
  C   C28       1.0  0.19628604446842243  0.9694307323128939  0.7695571093690249  1.0000
  C   C29       1.0  0.9322555518843955  0.9334926447879256  0.2657738730113124  1.0000
  C   C30       1.0  0.06774834757133158  0.066511585416734  0.7342233183534077  1.0000
  C   C31       1.0  0.9278549795479805  0.9230877571903875  0.34567104127864207  1.0000
  C   C32       1.0  0.0721484519655746  0.0769143534608787  0.654327027029005  1.0000
  C   C33       1.0  0.40188895519536055  0.741609476280054  0.421918679142962  1.0000
  C   C34       1.0  0.5981111730233692  0.2583883952644257  0.5780791579797792  1.0000
  C   C35       1.0  0.47335295417136786  0.8641874880015549  0.38696247225494307  1.0000
  C   C36       1.0  0.5266479998710665  0.1358114433196249  0.6130351419717215  1.0000
  C   C37       1.0  0.348993023365118  0.9778517179362395  0.27276544730832336  1.0000
  C   C38       1.0  0.6510049852640236  0.0221419145014607  0.7272337125494914  1.0000
  C   C39       1.0  0.24862822596016793  0.1021942667580547  0.2352929561213841  1.0000
  C   C40       1.0  0.7513626804375378  0.8977993656796457  0.7647064237547809  1.0000
  C   C41       1.0  0.22523283386903603  0.1112256837580787  0.15949522658850407  1.0000
  C   C42       1.0  0.774760082057611  0.8887690084563217  0.8405043615423579  1.0000
  C   C43       1.0  0.3036381423188744  0.9950730892399662  0.12030059135056347  1.0000
  C   C44       1.0  0.6963554893708377  0.0049194834210411  0.879699182104801  1.0000
  C   C45       1.0  0.40304455782992227  0.8706086750002767  0.15709974272296984  1.0000
  C   C46       1.0  0.5969534507992194  0.1293849574374235  0.8428988557502491  1.0000
  C   C47       1.0  0.4255689921611035  0.8614818780976492  0.23347505917589467  1.0000
  C   C48       1.0  0.5744298422917495  0.1385128141167442  0.7665233164012476  1.0000
  C   C49       1.0  0.1672638669741602  0.4599748791973397  0.6959398186323824  1.0000
  C   C50       1.0  0.8327441892997173  0.5400240521238402  0.30405925972973347  1.0000
  C   C51       1.0  0.14043970272229703  0.6180691873189446  0.6713499379384017  1.0000
  C   C52       1.0  0.8595668119647967  0.3819308037789284  0.3286480552260898  1.0000
  Cl  Cl1       1.0  0.20685133281954649  0.5254680192095833  0.877319497932639  1.0000
  Cl  Cl2       1.0  0.7931445008207801  0.4745425696552489  0.12268340247369024  1.0000
  Cl  Cl3       1.0  0.8089768844404686  0.0463546326661586  0.13087345217029173  1.0000
  Cl  Cl4       1.0  0.19102618919154676  0.9536485377618078  0.8691256462442992  1.0000
  Cl  Cl5       1.0  0.27769303421378305  0.0070019446279233006  0.025109475039904815  1.0000
  Cl  Cl6       1.0  0.7223078097680112  0.9929938073631704  0.974888547407339  1.0000
  O   O1        1.0  0.9646399530879325  0.6367191376083596  0.5123923359431543  1.0000
  O   O2        1.0  0.03536455207022021  0.3632797937128203  0.4876093786588314  1.0000
  O   O3        1.0  0.1776480317742112  0.5390056067193569  0.35796011339161277  1.0000
  O   O4        1.0  0.8223542437337202  0.4609859061649502  0.6420427707814226  1.0000
  O   O5        1.0  0.7796683837373523  0.0081157699350101  0.46845839781661874  1.0000
  O   O6        1.0  0.22033422195249128  0.9918852809395631  0.5315404547717008  1.0000
  O   O7        1.0  0.49432429994702415  0.6296875192329594  0.4579395460808229  1.0000
  O   O8        1.0  0.5056810310348325  0.3703124718649136  0.5420568931636963  1.0000
  O   O9        1.0  0.6984087803298992  0.7528388701467819  0.5179793353446127  1.0000
  O   O10       1.0  0.3015948990045488  0.24715900139770497  0.48202091799964814  1.0000
  O   O11       1.0  0.36391100167623597  0.9819360973211387  0.34700343146669604  1.0000
  O   O12       1.0  0.6360891265424868  0.018061774223348  0.6529938442714424  1.0000
  O   O13       1.0  0.24673528989156773  0.6427810603072714  0.5981927870034695  1.0000
  O   O14       1.0  0.7532720506192376  0.3572199905673017  0.40180610603414374  1.0000
  O   O15       1.0  0.1436811077001892  0.4017030575890033  0.6339384021264961  1.0000
  O   O16       1.0  0.8563233974579632  0.5982958737321766  0.36606162832169514  1.0000
  O   O17       1.0  0.4466790760999118  0.4537518704406907  0.35985361833948554  1.0000
  O   O18       1.0  0.5533244931738964  0.5462428217737028  0.6401459204561489  1.0000
  O   O19       1.0  0.2292820503424693  0.5646511429765226  0.19990564564260888  1.0000
  O   O20       1.0  0.770714168879003  0.43534778834465726  0.8000992261345414  1.0000
  O   O21       1.0  0.2568839133406513  0.7480274839486967  0.4175057719849278  1.0000
  O   O22       1.0  0.7431169306411433  0.2519682680423969  0.5824933732315143  1.0000
