data_image0
_chemical_formula_structural       Cd2H44C56N4O20
_chemical_formula_sum              "Cd2 H44 C56 N4 O20"
_cell_length_a       8.880950891880511
_cell_length_b       11.396964182096188
_cell_length_c       14.818505008595977
_cell_angle_alpha    67.30203182230535
_cell_angle_beta     72.57008485223992
_cell_angle_gamma    67.06816131491803

_space_group_name_H-M_alt    "P 1"
_space_group_IT_number       1

loop_
  _space_group_symop_operation_xyz
  'x, y, z'

loop_
  _atom_site_type_symbol
  _atom_site_label
  _atom_site_symmetry_multiplicity
  _atom_site_fract_x
  _atom_site_fract_y
  _atom_site_fract_z
  _atom_site_occupancy
  Cd  Cd1       1.0  0.08076966683045553  0.25001409242112527  0.7500083897450979  1.0000
  Cd  Cd2       1.0  0.919232970360035  0.7499866034926654  0.249990945950458  1.0000
  H   H1        1.0  0.6306902616719655  0.8703193203191832  0.7525391956733644  1.0000
  H   H2        1.0  0.2535655997340949  0.6298445410425515  0.7475808054593075  1.0000
  H   H3        1.0  0.3693103494941781  0.12968135052339852  0.24746216748342686  1.0000
  H   H4        1.0  0.7464327868356835  0.37015614623590665  0.25241923605894107  1.0000
  H   H5        1.0  0.8035047377971125  0.6191244227557391  0.0276168508054867  1.0000
  H   H6        1.0  0.45030592443843215  0.8808666685720892  0.47239764783446264  1.0000
  H   H7        1.0  0.19649481797058155  0.3808732621355873  0.9723838548954903  1.0000
  H   H8        1.0  0.5496954604973111  0.11913302088186131  0.5276023698030343  1.0000
  H   H9        1.0  0.3436134368169733  0.9454769310737209  0.0269158976660009  1.0000
  H   H10       1.0  0.3156747126476703  0.5546424030676816  0.47326680822093453  1.0000
  H   H11       1.0  0.6563860205225609  0.0545217435633063  0.9730854777338536  1.0000
  H   H12       1.0  0.6843262825554318  0.4453582871819749  0.5267329880223246  1.0000
  H   H13       1.0  0.48363095377785476  0.5880870621770384  0.8288749515600246  1.0000
  H   H14       1.0  0.900481327634786  0.9120096519091873  0.6710982559058539  1.0000
  H   H15       1.0  0.5163694645119535  0.4119126299698479  0.17112485080476608  1.0000
  H   H16       1.0  0.09952305566691415  0.08798903972024869  0.3289017378508916  1.0000
  H   H17       1.0  0.7071149095142815  0.3190569029539319  0.0881606925786401  1.0000
  H   H18       1.0  0.11452125783184634  0.18084587924573728  0.4118250305169441  1.0000
  H   H19       1.0  0.2928825257808686  0.6809387884247897  0.911839810092694  1.0000
  H   H20       1.0  0.8854797373712631  0.819154811003919  0.588174765726315  1.0000
  H   H21       1.0  0.9428142429484719  0.21650374217276894  0.9749147147560748  1.0000
  H   H22       1.0  0.13430133566069447  0.2834125470393545  0.5251115011284072  1.0000
  H   H23       1.0  0.0571855984280346  0.7834949518713403  0.025085093730247397  1.0000
  H   H24       1.0  0.8656966611764434  0.716589141034824  0.4748883189955962  1.0000
  H   H25       1.0  0.8455264508446307  0.5028918395372061  0.656752035054062  1.0000
  H   H26       1.0  0.00496968031506366  0.997240836164863  0.84321749495129  1.0000
  H   H27       1.0  0.15447329210372368  0.4971078442526036  0.34324844313113806  1.0000
  H   H28       1.0  0.9950276411806274  0.0027608435522382  0.15678300099313003  1.0000
  H   H29       1.0  0.6251078872621673  0.5640046281371343  0.6698071404796552  1.0000
  H   H30       1.0  0.8587209118679484  0.9361555732387641  0.8301479060680638  1.0000
  H   H31       1.0  0.3748908890402516  0.4359950583456182  0.33019312243283855  1.0000
  H   H32       1.0  0.1412767936647086  0.06384612588541928  0.16985102296282414  1.0000
  H   H33       1.0  0.731247150337431  0.3933234321299466  0.6773989521532544  1.0000
  H   H34       1.0  0.8017600725815516  0.10684839780551408  0.8225474220066431  1.0000
  H   H35       1.0  0.26875394329382374  0.6066762683740096  0.32260017439112704  1.0000
  H   H36       1.0  0.19823599096371666  0.8931532956545285  0.17745196757194748  1.0000
  H   H37       1.0  0.06778679743381825  0.5075862407162505  0.8329542944968864  1.0000
  H   H38       1.0  0.4080766488846378  0.9926686410813234  0.667045323372335  1.0000
  H   H39       1.0  0.9322132311233491  0.4924144522263418  0.1670452864736661  1.0000
  H   H40       1.0  0.5919229899398886  0.007333052656981901  0.3329540362039723  1.0000
  H   H41       1.0  0.6345152683927394  0.683116683507393  0.17199409640552699  1.0000
  H   H42       1.0  0.48948225016189184  0.8168164264399211  0.32797994213882486  1.0000
  H   H43       1.0  0.36548176749413813  0.3168839870569329  0.8280072967535476  1.0000
  H   H44       1.0  0.5105234895183841  0.18318126170086663  0.672020488284872  1.0000
  C   C1        1.0  0.4746658626452818  0.9215506953067915  0.8841574266077432  1.0000
  C   C2        1.0  0.2803217092612653  0.5785276677516151  0.6159669447581706  1.0000
  C   C3        1.0  0.525334171607554  0.07844897743301973  0.11584394267057978  1.0000
  C   C4        1.0  0.7196780279914138  0.4214730362409896  0.384031745119252  1.0000
  C   C5        1.0  0.6134703061043965  0.8467525879878436  0.8326290998477436  1.0000
  C   C6        1.0  0.29288354678307366  0.653352913485847  0.6674824586787977  1.0000
  C   C7        1.0  0.38653098040319384  0.1532480912118075  0.16737158748863842  1.0000
  C   C8        1.0  0.7071156192519796  0.34664577220119236  0.33251802562794114  1.0000
  C   C9        1.0  0.7301516749065936  0.7379336964788125  0.8850053604262201  1.0000
  C   C10       1.0  0.353150297201097  0.7621429725808113  0.6150458761617941  1.0000
  C   C11       1.0  0.2698473927003135  0.26206597895393463  0.11499579357938933  1.0000
  C   C12       1.0  0.6468514774672798  0.23785571607741926  0.38495436286994794  1.0000
  C   C13       1.0  0.7109474833477377  0.7044846564097399  0.9885118978970554  1.0000
  C   C14       1.0  0.4040518999673637  0.7954834423063133  0.511535515151799  1.0000
  C   C15       1.0  0.2890510073458615  0.2955140209202298  0.011489262230085734  1.0000
  C   C16       1.0  0.5959481285898034  0.20451725063627893  0.48846406581875373  1.0000
  C   C17       1.0  0.5709324721620634  0.7795251177337548  0.04023913039801399  1.0000
  C   C18       1.0  0.3906524596275815  0.7205082603655129  0.4597987036905025  1.0000
  C   C19       1.0  0.4290672707862909  0.22047456605606186  0.9597613477871861  1.0000
  C   C20       1.0  0.6093489253081614  0.2794914290884379  0.5402013139470015  1.0000
  C   C21       1.0  0.452962976036794  0.8874668975052771  0.9873473241284716  1.0000
  C   C22       1.0  0.32765556060606105  0.6126289063863837  0.5127652194197695  1.0000
  C   C23       1.0  0.5470360915701065  0.1125327779274627  0.012653829877145067  1.0000
  C   C24       1.0  0.6723440782184652  0.3873727873519215  0.48723414015653094  1.0000
  C   C25       1.0  0.3478233718333854  0.036461189993133296  0.8298921238779897  1.0000
  C   C26       1.0  0.21412527046827995  0.4635949453829511  0.6701648918259908  1.0000
  C   C27       1.0  0.6521779146742048  0.9635394892065179  0.17010856345839198  1.0000
  C   C28       1.0  0.7858734017103187  0.5364067510482968  0.32983425247761033  1.0000
  C   C29       1.0  0.8710684521853977  0.6584928972052565  0.8264495411320426  1.0000
  C   C30       1.0  0.35577541511607763  0.8417208987473684  0.673588949199271  1.0000
  C   C31       1.0  0.12893186767625056  0.3415077846873302  0.17355093093162577  1.0000
  C   C32       1.0  0.6442270348937527  0.1582777982679389  0.3264106140120618  1.0000
  C   C33       1.0  0.717300459077343  0.44028259641663675  0.8061876767894776  1.0000
  C   C34       1.0  0.963607820502631  0.05982314168107188  0.693786474951381  1.0000
  C   C35       1.0  0.2826987069577029  0.5597160892704025  0.19381280751725438  1.0000
  C   C36       1.0  0.03639249935902446  0.9401775402115149  0.3062139971122876  1.0000
  C   C37       1.0  0.581130953147934  0.5050693778290737  0.8652784525685037  1.0000
  C   C38       1.0  0.9514353059897259  0.9949805107601293  0.6346968701304692  1.0000
  C   C39       1.0  0.4188656042537957  0.4949293048867744  0.13472227701322492  1.0000
  C   C40       1.0  0.04856840197052038  0.0050181725122371  0.3653037994466928  1.0000
  C   C41       1.0  0.5719850448448579  0.4655609680048445  0.9683817762066554  1.0000
  C   C42       1.0  0.005925421713449432  0.03444874246153521  0.5316025618926687  1.0000
  C   C43       1.0  0.4280122863264709  0.534436733322366  0.031617607855778836  1.0000
  C   C44       1.0  0.9940789615882505  0.9655499491678938  0.46839743186407673  1.0000
  C   C45       1.0  0.7045465548462958  0.358561657792592  0.008894580777550268  1.0000
  C   C46       1.0  0.07216155479503764  0.1413434119358001  0.4910819272991561  1.0000
  C   C47       1.0  0.2954504907162202  0.6414350343818355  0.9911057004995386  1.0000
  C   C48       1.0  0.9278424387740289  0.8586562804893417  0.5089178450633514  1.0000
  C   C49       1.0  0.8369887112479828  0.2988957078317824  0.9461757122751638  1.0000
  C   C50       1.0  0.08210025948855568  0.20106009192328142  0.5538145787871613  1.0000
  C   C51       1.0  0.16301094294785667  0.7011009873138434  0.05382432372693565  1.0000
  C   C52       1.0  0.9178987039945244  0.798941593457961  0.44618545660955544  1.0000
  C   C53       1.0  0.7302874667892001  0.47795121179227357  0.6963434496179418  1.0000
  C   C54       1.0  0.9043595535560348  0.02221585569527919  0.8036116011138007  1.0000
  C   C55       1.0  0.26971227615914733  0.5220484719975432  0.3036570285672582  1.0000
  C   C56       1.0  0.09563680129372205  0.9777858267147579  0.19638867955790576  1.0000
  N   N1        1.0  0.844083781730639  0.3385260048168989  0.8472546013198183  1.0000
  N   N2        1.0  0.029756485912492987  0.16153993080695273  0.6527223256427989  1.0000
  N   N3        1.0  0.15591702629180298  0.6614726865342746  0.15274542243921027  1.0000
  N   N4        1.0  0.9702431586077155  0.8384607427285645  0.347278822241286  1.0000
  O   O1        1.0  0.2073989348051911  0.0851724086345058  0.8785298274983263  1.0000
  O   O2        1.0  0.1713332354197587  0.41476240110552004  0.621476118667836  1.0000
  O   O3        1.0  0.7926027357393652  0.9148282899722204  0.12146929292451612  1.0000
  O   O4        1.0  0.8286661121002794  0.5852393036827978  0.37852234981534855  1.0000
  O   O5        1.0  0.381912469631061  0.0844535393635013  0.7340987751269524  1.0000
  O   O6        1.0  0.20008394502551843  0.41566762535401847  0.765983821028378  1.0000
  O   O7        1.0  0.6180914255098535  0.9155471428073482  0.2659016669344398  1.0000
  O   O8        1.0  0.7999143374204393  0.5843350718729353  0.23401510188097072  1.0000
  O   O9        1.0  0.8838029124110351  0.6824177630399717  0.7362343288498538  1.0000
  O   O10       1.0  0.30203459839139407  0.8178693604357508  0.7637722219291236  1.0000
  O   O11       1.0  0.11619662798534598  0.3175849204440411  0.2637657004253313  1.0000
  O   O12       1.0  0.6979693951776725  0.18213033198939135  0.23622755043338375  1.0000
  O   O13       1.0  0.9824141703250434  0.558234566270798  0.8793722533297769  1.0000
  O   O14       1.0  0.41970884582441675  0.9420055939081634  0.6206654191021032  1.0000
  O   O15       1.0  0.017586824878058863  0.44176612397885856  0.12062754291348204  1.0000
  O   O16       1.0  0.5802898263541822  0.05799610252307729  0.3793337252014909  1.0000
  O   O17       1.0  0.5395161219341844  0.7529958109393889  0.14020285247522687  1.0000
  O   O18       1.0  0.43250008906029086  0.7469924643315268  0.35982836935011164  1.0000
  O   O19       1.0  0.4604801498587251  0.2470018626236694  0.859798774321149  1.0000
  O   O20       1.0  0.5675063259614388  0.2530052321663235  0.6401713852531756  1.0000
