data_image0
_chemical_formula_structural       Zn2H40C48N2O20
_chemical_formula_sum              "Zn2 H40 C48 N2 O20"
_cell_length_a       14.674360979122294
_cell_length_b       15.885714904921254
_cell_length_c       17.897630200671752
_cell_angle_alpha    89.65100196077351
_cell_angle_beta     89.91408531700907
_cell_angle_gamma    89.54226567515407

_space_group_name_H-M_alt    "P 1"
_space_group_IT_number       1

loop_
  _space_group_symop_operation_xyz
  'x, y, z'

loop_
  _atom_site_type_symbol
  _atom_site_label
  _atom_site_symmetry_multiplicity
  _atom_site_fract_x
  _atom_site_fract_y
  _atom_site_fract_z
  _atom_site_occupancy
  Zn  Zn1       1.0  0.4061740984100907  0.49781453298421496  0.5003039767093256  1.0000
  Zn  Zn2       1.0  0.5971463653660222  0.5000980326715521  0.49938696228869617  1.0000
  H   H1        1.0  0.31132669120184175  0.40403542574500767  0.8461279357209291  1.0000
  H   H2        1.0  0.6569015799622946  0.8516340640522416  0.5385002580867493  1.0000
  H   H3        1.0  0.35335041828185615  0.8534468968934662  0.5464325963651645  1.0000
  H   H4        1.0  0.6570864074762355  0.14424473338343802  0.5468669073304113  1.0000
  H   H5        1.0  0.7541183295460598  0.3110871422625649  0.33476903756042725  1.0000
  H   H6        1.0  0.8559943180456173  0.2697449131500349  0.29567994412435883  1.0000
  H   H7        1.0  0.7985579120740097  0.21313278132962674  0.36716468907513894  1.0000
  H   H8        1.0  0.9353497463207174  0.2854282724360075  0.4203697409038369  1.0000
  H   H9        1.0  0.8339590954851984  0.3254204471596794  0.4598286093760607  1.0000
  H   H10       1.0  0.8371421730006148  0.44750510019277095  0.3695953724210526  1.0000
  H   H11       1.0  0.9383660221184583  0.4081776347152229  0.3301122522367166  1.0000
  H   H12       1.0  0.682949418629228  0.41172950485528753  0.1483229103752137  1.0000
  H   H13       1.0  0.2554116399266633  0.605817299398808  0.7086652518703431  1.0000
  H   H14       1.0  0.1565355074701174  0.6392957999948123  0.7581016257437838  1.0000
  H   H15       1.0  0.21237077375391072  0.543348391261219  0.7827339508861967  1.0000
  H   H16       1.0  0.07141114232854309  0.5124081800557149  0.7084993246895265  1.0000
  H   H17       1.0  0.1701382975684993  0.4806579560381934  0.6597944902846676  1.0000
  H   H18       1.0  0.166258719133495  0.6176762777145228  0.5872212557261421  1.0000
  H   H19       1.0  0.06562307764443179  0.6468565518803188  0.6340568059749714  1.0000
  H   H20       1.0  0.749629638920844  0.6931754067958239  0.6591434091058801  1.0000
  H   H21       1.0  0.8498649548227775  0.7326094178380771  0.7009742432552812  1.0000
  H   H22       1.0  0.795424604209657  0.7910225637167015  0.6288122198955719  1.0000
  H   H23       1.0  0.3080682896903681  0.5970461229366179  0.1566819948686486  1.0000
  H   H24       1.0  0.9333420407193882  0.7177233194906306  0.5771915084480241  1.0000
  H   H25       1.0  0.8336652044434132  0.677903781370901  0.536185992170374  1.0000
  H   H26       1.0  0.8363293828054735  0.5562341393915702  0.6274526941963783  1.0000
  H   H27       1.0  0.9368621609290172  0.5950955956663078  0.6670791258163078  1.0000
  H   H28       1.0  0.255817117099042  0.3939782503791562  0.2878223380426022  1.0000
  H   H29       1.0  0.15674402218044037  0.36160732929320005  0.23908076376848442  1.0000
  H   H30       1.0  0.2117730610965225  0.45713154412572987  0.2142973916285698  1.0000
  H   H31       1.0  0.071372401170251  0.4893127521993321  0.2896819137710267  1.0000
  H   H32       1.0  0.1702554872645905  0.5195410605318643  0.3379758761663254  1.0000
  H   H33       1.0  0.16722138408892556  0.3823863072293179  0.4100973388521822  1.0000
  H   H34       1.0  0.6787862099186981  0.5964742321087543  0.8496942680702375  1.0000
  H   H35       1.0  0.0667993899888444  0.35419544672274134  0.3634435213263032  1.0000
  H   H36       1.0  0.36418879428779144  0.4340915301541627  0.6792865515502342  1.0000
  H   H37       1.0  0.6372621025490021  0.44132643309593067  0.3172505437140103  1.0000
  H   H38       1.0  0.36178976017066583  0.5633092412028801  0.3228590676931304  1.0000
  H   H39       1.0  0.634218479345087  0.5615340911330264  0.681645262032184  1.0000
  H   H40       1.0  0.3528819288743321  0.14596401841305354  0.547179370888159  1.0000
  C   C1        1.0  0.5047949659919339  0.33858156608731343  0.5097683806090814  1.0000
  C   C2        1.0  0.9541508544496083  0.45687682552352277  0.4407052963294973  1.0000
  C   C3        1.0  0.09380176353690928  0.49996636998550775  0.49904791202971666  1.0000
  C   C4        1.0  0.909584213691204  0.5015280771690911  0.4986535741172062  1.0000
  C   C5        1.0  0.19041989832773254  0.49861774458289426  0.4994923338264882  1.0000
  C   C6        1.0  0.8129634666211841  0.5019334834646614  0.49863740833604453  1.0000
  C   C7        1.0  0.5002100282824671  0.5007713156882758  0.352700514447676  1.0000
  C   C8        1.0  0.5000585336114155  0.49835934338840804  0.6480623620628307  1.0000
  C   C9        1.0  0.42148024274408163  0.4649849835299166  0.8467666581247569  1.0000
  C   C10       1.0  0.5688097962501645  0.46783834892262627  0.151512877557245  1.0000
  C   C11       1.0  0.4205084555814055  0.5380306728362  0.1547014328926863  1.0000
  C   C12       1.0  0.5003156153751718  0.6593313305537264  0.5096661681176329  1.0000
  C   C13       1.0  0.5669511239073158  0.538146856004623  0.848117758449348  1.0000
  C   C14       1.0  0.4234750420468175  0.46397425917615465  0.7688456113260855  1.0000
  C   C15       1.0  0.5716489766602988  0.46808714427693576  0.2294315125875883  1.0000
  C   C16       1.0  0.4224695193043644  0.5369709430620658  0.2326423085788676  1.0000
  C   C17       1.0  0.5698211377869384  0.5359762219651502  0.7702448393181882  1.0000
  C   C18       1.0  0.4978279267057318  0.4993578416591689  0.7293376614159185  1.0000
  C   C19       1.0  0.4981575998889126  0.5020061932153511  0.2713552060469482  1.0000
  C   C20       1.0  0.49294337016913653  0.502315510195949  0.8874836492027285  1.0000
  C   C21       1.0  0.49332725493064805  0.5030846389814058  0.1130295498439722  1.0000
  C   C22       1.0  0.49132783893282556  0.5030855212511296  0.9661859714888338  1.0000
  C   C23       1.0  0.5048217110172858  0.8240411092206371  0.5356475578517462  1.0000
  C   C24       1.0  0.49143217230043484  0.5034985281919971  0.0343334721888908  1.0000
  C   C25       1.0  0.4206390058123475  0.955397890176762  0.5482105398512402  1.0000
  C   C26       1.0  0.5898866025890471  0.04216472740704799  0.5468259579724943  1.0000
  C   C27       1.0  0.42054942947284957  0.04318774970280259  0.5485078607261826  1.0000
  C   C28       1.0  0.5899227631282997  0.9544267372348472  0.5452238217679408  1.0000
  C   C29       1.0  0.5053031473031807  0.9118458264495787  0.5445783589760325  1.0000
  C   C30       1.0  0.5050969722428035  0.0858164171042191  0.546149981594553  1.0000
  C   C31       1.0  0.8995516762880129  0.4113809982686264  0.38257433377732747  1.0000
  C   C32       1.0  0.8729967396260961  0.3217248788235522  0.4072911924647257  1.0000
  C   C33       1.0  0.8172988617989743  0.2765080347952207  0.3480098622968697  1.0000
  C   C34       1.0  0.5048298953763036  0.17377547175411218  0.5375670586456421  1.0000
  C   C35       1.0  0.1043585441376607  0.5922042659000369  0.6135499342807691  1.0000
  C   C36       1.0  0.13294092520298048  0.536386628922095  0.6804165545845535  1.0000
  C   C37       1.0  0.1924294369746917  0.5839218502471654  0.7356071263107893  1.0000
  C   C38       1.0  0.8984870011736987  0.59190943734464  0.6145195231477131  1.0000
  C   C39       1.0  0.8712073411135534  0.6815736075489481  0.5893375537281641  1.0000
  C   C40       1.0  0.813246860492498  0.7270383450686212  0.6476803041786283  1.0000
  C   C41       1.0  0.1051129146951197  0.4084476505355355  0.3840237542647031  1.0000
  C   C42       1.0  0.1331322448105823  0.46439583927421774  0.3172676981971705  1.0000
  C   C43       1.0  0.19246330739370168  0.416564173106714  0.26147107428705846  1.0000
  C   C44       1.0  0.5042158464514229  0.24964290024878721  0.5254380197972636  1.0000
  C   C45       1.0  0.5028704185437505  0.7482763853489799  0.523996144107258  1.0000
  C   C46       1.0  0.04971059180311949  0.4545908718409919  0.4418317616896701  1.0000
  C   C47       1.0  0.9537468499287199  0.5456496929805111  0.5566544877299932  1.0000
  C   C48       1.0  0.04930575742268669  0.5464212605979241  0.5558868542790661  1.0000
  N   N1        1.0  0.7338086931060771  0.5020492332721531  0.4986545236181712  1.0000
  N   N2        1.0  0.2695600706514369  0.4972213543605831  0.49992488907255966  1.0000
  O   O1        1.0  0.4307917072021182  0.37159314741116833  0.48597582207180773  1.0000
  O   O2        1.0  0.6389903980172349  0.4331066411026825  0.1116842643209424  1.0000
  O   O3        1.0  0.3479871961673027  0.5736478459079065  0.11808744588137192  1.0000
  O   O4        1.0  0.6357775134024095  0.5752125009932102  0.8869581270692422  1.0000
  O   O5        1.0  0.35192410585349165  0.4260631251115257  0.7340596218972236  1.0000
  O   O6        1.0  0.6471739198463737  0.4330338918107444  0.26226806811056497  1.0000
  O   O7        1.0  0.3494354738186232  0.5726120092404513  0.2683069225895451  1.0000
  O   O8        1.0  0.6438319358682564  0.5716775254284697  0.7364310292449616  1.0000
  O   O9        1.0  0.3396092593087659  0.08565276087610128  0.5489971381074099  1.0000
  O   O10       1.0  0.6707508041034629  0.9116674107139816  0.5425521982862662  1.0000
  O   O11       1.0  0.33983677342904167  0.9138856128548979  0.5485747529754832  1.0000
  O   O12       1.0  0.573852387927694  0.6255520524540542  0.48568007845728534  1.0000
  O   O13       1.0  0.6706826879909613  0.08378566903368069  0.5459601467885378  1.0000
  O   O14       1.0  0.42485371153414053  0.622811665316803  0.5227140495732883  1.0000
  O   O15       1.0  0.5800771119690608  0.37590397442723855  0.5216057747133291  1.0000
  O   O16       1.0  0.42810332132079754  0.5241816608129072  0.38878197856313784  1.0000
  O   O17       1.0  0.5721664597382343  0.5239836388004094  0.6137182811829476  1.0000
  O   O18       1.0  0.4292858119274428  0.4719178334854064  0.612681632355617  1.0000
  O   O19       1.0  0.5735258561706047  0.47626810683789955  0.3864744458231399  1.0000
  O   O20       1.0  0.35034534151614594  0.4289046894298138  0.8842311801768331  1.0000
