data_image0
_chemical_formula_structural       Zn2H28C48Br4N4O4
_chemical_formula_sum              "Zn2 H28 C48 Br4 N4 O4"
_cell_length_a       7.922467884000345
_cell_length_b       9.832705218853809
_cell_length_c       13.695066433672814
_cell_angle_alpha    104.51442389093818
_cell_angle_beta     89.9999673027081
_cell_angle_gamma    90.0000263208097

_space_group_name_H-M_alt    "P 1"
_space_group_IT_number       1

loop_
  _space_group_symop_operation_xyz
  'x, y, z'

loop_
  _atom_site_type_symbol
  _atom_site_label
  _atom_site_symmetry_multiplicity
  _atom_site_fract_x
  _atom_site_fract_y
  _atom_site_fract_z
  _atom_site_occupancy
  Zn  Zn1       1.0  0.5500469918969061  0.24999793340185048  0.25000010257627275  1.0000
  Zn  Zn2       1.0  0.44995308737109946  0.7500010729654604  0.7499996843442176  1.0000
  H   H1        1.0  0.8037293848077456  0.4611428215797204  0.23852679869608542  1.0000
  H   H2        1.0  0.8037317551376688  0.038855213918964196  0.2614730088706381  1.0000
  H   H3        1.0  0.19627069446065087  0.5388561997235827  0.7614722607958556  1.0000
  H   H4        1.0  0.19627084859673258  0.9611458933215001  0.738527176846297  1.0000
  H   H5        1.0  0.0585992561744959  0.4851526425000543  0.1368195002760473  1.0000
  H   H6        1.0  0.058598979222765  0.0148462880955194  0.3631807092242028  1.0000
  H   H7        1.0  0.9414008230938932  0.5148463788032488  0.8631795592158866  1.0000
  H   H8        1.0  0.9414011000459866  0.9851558695811277  0.6368196758914735  1.0000
  H   H9        1.0  0.9184696583703269  0.0899653953584405  0.9313867030445807  1.0000
  H   H10       1.0  0.9184699562916449  0.4100349738887915  0.5686118876897552  1.0000
  H   H11       1.0  0.0815291586653615  0.9100346763811799  0.06861255584592388  1.0000
  H   H12       1.0  0.08153012297685791  0.5899661333514103  0.4313882980275281  1.0000
  H   H13       1.0  0.6727714287705028  0.08070980878972732  0.04272153764733128  1.0000
  H   H14       1.0  0.6727713253413936  0.4192892647799766  0.457277777485416  1.0000
  H   H15       1.0  0.32722738826416986  0.9192891826414565  0.9572789767018858  1.0000
  H   H16       1.0  0.3272274916945507  0.5807118573960893  0.5427216808034814  1.0000
  H   H17       1.0  0.31869117040004363  0.3682759694562137  0.10096653736324157  1.0000
  H   H18       1.0  0.3186934589781175  0.13172513117056886  0.39903327280897827  1.0000
  H   H19       1.0  0.681307646634373  0.6317219715385249  0.8990337775875827  1.0000
  H   H20       1.0  0.6813078825240878  0.868279127379104  0.6009675111033131  1.0000
  H   H21       1.0  0.5845275787369387  0.36839236475754683  0.002955791532542683  1.0000
  H   H22       1.0  0.5845285022235204  0.13160879128872688  0.49704394638252575  1.0000
  H   H23       1.0  0.4154737627627441  0.6316045108650243  0.9970450514481044  1.0000
  H   H24       1.0  0.4154728392784294  0.8683944168245005  0.5029566381313657  1.0000
  H   H25       1.0  0.04288401124630779  0.23166703882980497  0.8222889673154086  1.0000
  H   H26       1.0  0.042882837158288084  0.2683320675731622  0.6777111168719043  1.0000
  H   H27       1.0  0.9571160680219462  0.7683330179739514  0.17771101900348182  1.0000
  H   H28       1.0  0.9571147176434353  0.7316669238578939  0.3222893974774905  1.0000
  C   C1        1.0  0.8357610790503144  0.3807419203081607  0.17033814970737637  1.0000
  C   C2        1.0  0.8357621697522432  0.11925717230456463  0.32966184855133907  1.0000
  C   C3        1.0  0.16423900021793972  0.6192581364955956  0.829661836611514  1.0000
  C   C4        1.0  0.1642391717492089  0.8807439349357721  0.6703383371657735  1.0000
  C   C5        1.0  0.9772473286147019  0.39320374653203766  0.11377139934058526  1.0000
  C   C6        1.0  0.9772483516097238  0.10679536064071023  0.3862292878891296  1.0000
  C   C7        1.0  0.022752750653303604  0.6067952598352732  0.8862283875799049  1.0000
  C   C8        1.0  0.022751727658395296  0.8932057316635063  0.6137716252567029  1.0000
  C   C9        1.0  0.012229858144117098  0.287492871236296  0.0260190957299145  1.0000
  C   C10       1.0  0.0122308602632941  0.21250607956464757  0.4739796715167799  1.0000
  C   C11       1.0  0.9877689588913228  0.7125061500668719  0.973979963762197  1.0000
  C   C12       1.0  0.9877692190052089  0.7874950276755541  0.5260205142004962  1.0000
  C   C13       1.0  0.8993859512509629  0.17431507912454694  0.9991857135239499  1.0000
  C   C14       1.0  0.8993862635009718  0.3256852712082647  0.5008136098261033  1.0000
  C   C15       1.0  0.10061286578409319  0.825683927242629  0.0008140733967109631  1.0000
  C   C16       1.0  0.10061381576777959  0.6743168864683823  0.4991867752895729  1.0000
  C   C17       1.0  0.7617778051401912  0.168151616034919  0.06074265996132768  1.0000
  C   C18       1.0  0.7617776617588774  0.33184747609017506  0.43925663097848394  1.0000
  C   C19       1.0  0.23822101189511363  0.8318484407687021  0.9392573263577261  1.0000
  C   C20       1.0  0.2382211552768183  0.6681525956494384  0.5607426279120203  1.0000
  C   C21       1.0  0.1656487335527075  0.295476680187015  0.9668137273344184  1.0000
  C   C22       1.0  0.1656489303111428  0.2045235321176193  0.5331850680251478  1.0000
  C   C23       1.0  0.8343513457152979  0.704522326180303  0.03318605958607176  1.0000
  C   C24       1.0  0.8343511489575022  0.7954765396221362  0.466814190865179  1.0000
  C   C25       1.0  0.3169796159081811  0.33930676167027224  0.01869922879114228  1.0000
  C   C26       1.0  0.31698057547992414  0.1606943535355612  0.48129985441792655  1.0000
  C   C27       1.0  0.6830204633595753  0.6606911942605934  0.9813003587309622  1.0000
  C   C28       1.0  0.6830182415565105  0.8393088695133955  0.5187000026677565  1.0000
  C   C29       1.0  0.4646793086355956  0.3399447953479537  0.9646769401916799  1.0000
  C   C30       1.0  0.464680735458856  0.16005654466894007  0.5353212458576805  1.0000
  C   C31       1.0  0.5353207706316638  0.660051059710021  0.03532224853363176  1.0000
  C   C32       1.0  0.53531934381067  0.8399456428796912  0.4646776844008897  1.0000
  C   C33       1.0  0.46431077881533867  0.300902893624091  0.8591351830208608  1.0000
  C   C34       1.0  0.46431338346935996  0.19909946688056115  0.6408646573840073  1.0000
  C   C35       1.0  0.5356893004520273  0.6990950473707825  0.14086513192979305  1.0000
  C   C36       1.0  0.5356866957993914  0.8009026907960858  0.3591357277316617  1.0000
  C   C37       1.0  0.31095580286369545  0.2654337425396776  0.805516444101336  1.0000
  C   C38       1.0  0.3109571129280297  0.23456753555807092  0.6944832385889298  1.0000
  C   C39       1.0  0.6890442764039262  0.7345652488916413  0.1944840702477108  1.0000
  C   C40       1.0  0.68904422857279  0.7654325063098212  0.3055174751583393  1.0000
  C   C41       1.0  0.1632909259975719  0.2598473140536228  0.8608061005032608  1.0000
  C   C42       1.0  0.16329229780164667  0.24015288282359393  0.6391934229255795  1.0000
  C   C43       1.0  0.8367078910373492  0.7401527278140065  0.13919461324434926  1.0000
  C   C44       1.0  0.8367090436995568  0.7598471739802904  0.36080656339313316  1.0000
  C   C45       1.0  0.6275579140064736  0.28825851915676276  0.806314616064661  1.0000
  C   C46       1.0  0.6275642584777329  0.21173968857105763  0.6936836549451612  1.0000
  C   C47       1.0  0.37243585409706975  0.7117384162089804  0.19368331720279736  1.0000
  C   C48       1.0  0.37244213195579323  0.7882593476688982  0.3063146771173635  1.0000
  Br  Br1       1.0  0.392448406832571  0.45624530470210806  0.31706595871410304  1.0000
  Br  Br2       1.0  0.3924609606779228  0.04374307164084  0.1829379854849407  1.0000
  Br  Br3       1.0  0.6075516724356902  0.5437547521016484  0.6829340276047801  1.0000
  Br  Br4       1.0  0.6075391185903314  0.9562569851629165  0.8170620008339494  1.0000
  N   N1        1.0  0.7304605332269744  0.2695911016401665  0.14533212541449098  1.0000
  N   N2        1.0  0.7304616725131369  0.2304069335198307  0.35466697463914426  1.0000
  N   N3        1.0  0.269539546041031  0.7304079047271443  0.8546676615060065  1.0000
  N   N4        1.0  0.26953840675511737  0.7695931232839328  0.6453330116797389  1.0000
  O   O1        1.0  0.7620134839591869  0.3298310574234121  0.8486971623544192  1.0000
  O   O2        1.0  0.7620084847992743  0.17017028483490293  0.6513038525912478  1.0000
  O   O3        1.0  0.23799164424072924  0.6701700348813231  0.15130375079073122  1.0000
  O   O4        1.0  0.23798528330395638  0.8298318429691065  0.34869798738239405  1.0000
