data_image0
_chemical_formula_structural       Ni2H8C8O12
_chemical_formula_sum              "Ni2 H8 C8 O12"
_cell_length_a       4.91207181841248
_cell_length_b       7.775763396994964
_cell_length_c       7.7757399293773695
_cell_angle_alpha    72.13876490730446
_cell_angle_beta     71.5898040937179
_cell_angle_gamma    71.58929202145393

_space_group_name_H-M_alt    "P 1"
_space_group_IT_number       1

loop_
  _space_group_symop_operation_xyz
  'x, y, z'

loop_
  _atom_site_type_symbol
  _atom_site_label
  _atom_site_symmetry_multiplicity
  _atom_site_fract_x
  _atom_site_fract_y
  _atom_site_fract_z
  _atom_site_occupancy
  Ni  Ni1       1.0  0.7133998295312622  0.28747865933275557  0.28772604862433593  1.0000
  Ni  Ni2       1.0  0.28659707377256183  0.712275515372653  0.7125222980051408  1.0000
  H   H1        1.0  0.3875092220690204  0.06546162776103152  0.7884292550657438  1.0000
  H   H2        1.0  0.2427694593034746  0.9361065893873358  0.21160601553993538  1.0000
  H   H3        1.0  0.6124881557327128  0.2115778086267212  0.9345380494640455  1.0000
  H   H4        1.0  0.7572347788656798  0.7883913563989963  0.06388916138894983  1.0000
  H   H5        1.0  0.2452709727705908  0.22076684430514595  0.5319685144923698  1.0000
  H   H6        1.0  0.9983872906841216  0.7804780641007125  0.4673023702608817  1.0000
  H   H7        1.0  0.7547294859999951  0.46803703131698876  0.7792280226151437  1.0000
  H   H8        1.0  0.0016144773368580992  0.5326954486707648  0.21952111045613526  1.0000
  C   C1        1.0  0.8300947368749264  0.07269818395042904  0.6377039264783309  1.0000
  C   C2        1.0  0.5428893415234983  0.9263701369783346  0.3627659425808859  1.0000
  C   C3        1.0  0.16990983393451844  0.36231700546330353  0.9272826946846638  1.0000
  C   C4        1.0  0.4571015330838364  0.6372482655990835  0.07361931147411131  1.0000
  C   C5        1.0  0.507953855774481  0.172374146222367  0.7027919527215334  1.0000
  C   C6        1.0  0.38404130153767824  0.8282016294781297  0.29689134061895583  1.0000
  C   C7        1.0  0.49204560915327966  0.2972109041615808  0.8276243069078649  1.0000
  C   C8        1.0  0.615957682378955  0.7031052538077843  0.17180187730212995  1.0000
  O   O1        1.0  0.9771668046981574  0.1368302998888992  0.4739469892585009  1.0000
  O   O2        1.0  0.5853596784925298  0.8635810064474326  0.5276966993970548  1.0000
  O   O3        1.0  0.022830700533688585  0.5260460866878346  0.8631710496261393  1.0000
  O   O4        1.0  0.4146385582558666  0.4722915940349209  0.13643050670837203  1.0000
  O   O5        1.0  0.9357798832720405  0.9371044785304574  0.7557665043157872  1.0000
  O   O6        1.0  0.6369029261266946  0.05989784771881549  0.2442319357142041  1.0000
  O   O7        1.0  0.06420817464774596  0.24422959722195253  0.06291162959784913  1.0000
  O   O8        1.0  0.3631037950949292  0.7557555666864317  0.9401189594839112  1.0000
  O   O9        1.0  0.38365605671748443  0.28142460782890305  0.5466893986653363  1.0000
  O   O10       1.0  0.21170351607418758  0.7192879489413498  0.4525459176086956  1.0000
  O   O11       1.0  0.6163503245284045  0.45330856829985305  0.7185691483310496  1.0000
  O   O12       1.0  0.788297826678523  0.5474506819223776  0.2807136598517915  1.0000
