data_image0
_chemical_formula_structural       Ni3H32C24N6O10
_chemical_formula_sum              "Ni3 H32 C24 N6 O10"
_cell_length_a       9.197254330115133
_cell_length_b       11.685034422235793
_cell_length_c       11.99178475595087
_cell_angle_alpha    104.78773829138221
_cell_angle_beta     112.352310777824
_cell_angle_gamma    94.19012883031009

_space_group_name_H-M_alt    "P 1"
_space_group_IT_number       1

loop_
  _space_group_symop_operation_xyz
  'x, y, z'

loop_
  _atom_site_type_symbol
  _atom_site_label
  _atom_site_symmetry_multiplicity
  _atom_site_fract_x
  _atom_site_fract_y
  _atom_site_fract_z
  _atom_site_occupancy
  Ni  Ni1       1.0  0.5111128860246411  0.09932493307090338  0.4438408831395791  1.0000
  Ni  Ni2       1.0  0.5210994932462185  0.8871620252219687  0.5532790927756253  1.0000
  Ni  Ni3       1.0  0.5018336637279432  0.49531806371364706  0.5000223526493386  1.0000
  H   H1        1.0  0.5071563111581697  0.0126348134560885  0.7926462631448957  1.0000
  H   H2        1.0  0.49345610925017525  0.9732863801306594  0.20553676069091154  1.0000
  H   H3        1.0  0.4827631045959039  0.14828108503615312  0.9767948422488574  1.0000
  H   H4        1.0  0.48455051299629304  0.8350163648668458  0.008506438502166699  1.0000
  H   H5        1.0  0.4844898955519171  0.368337012094358  0.9963983306437498  1.0000
  H   H6        1.0  0.4785401319776099  0.6139425627920545  0.9835137122606598  1.0000
  H   H7        1.0  0.506532932258402  0.44302022202811747  0.8262258463830888  1.0000
  H   H8        1.0  0.4778811235933063  0.5377295060183584  0.15911026777767034  1.0000
  H   H9        1.0  0.5372089310958118  0.3440471071663113  0.1913248120750808  1.0000
  H   H10       1.0  0.45092643004558397  0.6823387750741575  0.809088756154054  1.0000
  H   H11       1.0  0.357910024664335  0.38024579465334807  0.20063975737182463  1.0000
  H   H12       1.0  0.6075659383214075  0.6087451037337529  0.7937973451752356  1.0000
  H   H13       1.0  0.35943144509978003  0.2321126418795956  0.10926334605242968  1.0000
  H   H14       1.0  0.6507234846038444  0.7647691527386941  0.8882495482394008  1.0000
  H   H15       1.0  0.7776916690528852  0.23569689255342754  0.40607845769667955  1.0000
  H   H16       1.0  0.20699135629231347  0.7757707899173597  0.5828495270507759  1.0000
  H   H17       1.0  0.03724396471561421  0.11627637535053743  0.647840734419745  1.0000
  H   H18       1.0  0.944598991179767  0.9110330633806073  0.36776783023622533  1.0000
  H   H19       1.0  0.1918123201134492  0.24379922038807678  0.697167963719906  1.0000
  H   H20       1.0  0.7909370548300815  0.7789883775316397  0.3012887459129345  1.0000
  H   H21       1.0  0.17461965297957963  0.1127004413347805  0.5748636021007272  1.0000
  H   H22       1.0  0.8031073703588522  0.8973881819871469  0.43490685178695554  1.0000
  H   H23       1.0  0.9885364538323173  0.33028166779718054  0.40701927146946554  1.0000
  H   H24       1.0  0.0026703059944069257  0.6765505594665271  0.5854413051288958  1.0000
  H   H25       1.0  0.1479055401512568  0.2466543696508907  0.4291533053148342  1.0000
  H   H26       1.0  0.8468739628706744  0.7619071695958513  0.5766288251282107  1.0000
  H   H27       1.0  0.1617593118251223  0.3739491488472596  0.554738902416652  1.0000
  H   H28       1.0  0.8216099147048795  0.6364300641068114  0.44398060825434993  1.0000
  H   H29       1.0  0.22534983195986774  0.986784008547211  0.40236620928761374  1.0000
  H   H30       1.0  0.8264881997199042  0.038414347229782216  0.6416463719554244  1.0000
  H   H31       1.0  0.22031635623036291  0.014244768499459302  0.2785985768222758  1.0000
  H   H32       1.0  0.8113302718911443  0.9772452400414978  0.7371019631159043  1.0000
  C   C1        1.0  0.5223564062741701  0.1480167270993675  0.7038270191632705  1.0000
  C   C2        1.0  0.4903900362177255  0.835395141267952  0.2950337110440415  1.0000
  C   C3        1.0  0.5080333549871554  0.1075822789133767  0.8013124244989951  1.0000
  C   C4        1.0  0.48839021282521616  0.8773671185802598  0.19407634053075637  1.0000
  C   C5        1.0  0.4946279716480292  0.18458300356724075  0.9046906139759584  1.0000
  C   C6        1.0  0.483973800521838  0.7989275992027771  0.0837969529894167  1.0000
  C   C7        1.0  0.49579280212712734  0.3070032233191782  0.9161098599182864  1.0000
  C   C8        1.0  0.4802501074944986  0.6755267826385847  0.06940855656611694  1.0000
  C   C9        1.0  0.5086891830299011  0.34887584452681614  0.8213866891412283  1.0000
  C   C10       1.0  0.479610748027902  0.6327000002874996  0.16687572022962632  1.0000
  C   C11       1.0  0.5202735520794874  0.2731934790557205  0.7138895891471293  1.0000
  C   C12       1.0  0.4845220461603434  0.7100978667607907  0.2803266034217558  1.0000
  C   C13       1.0  0.5175173675598402  0.3294165388539838  0.616928857323586  1.0000
  C   C14       1.0  0.4929092827459273  0.6590590048786211  0.3804985012994493  1.0000
  C   C15       1.0  0.46490703904569136  0.26131490986086453  0.3064673950214  1.0000
  C   C16       1.0  0.5467043040570659  0.7353193888259569  0.6901745769408408  1.0000
  C   C17       1.0  0.42607730967459645  0.30790182134989413  0.19539218298803723  1.0000
  C   C18       1.0  0.5666980076890554  0.6947596131408958  0.8022141529307946  1.0000
  C   C19       1.0  0.8418225305610106  0.1919059453549821  0.4768553064164251  1.0000
  C   C20       1.0  0.1385920689776796  0.8217251178089312  0.5152277089093431  1.0000
  C   C21       1.0  0.10653636262426151  0.16954720030641113  0.6158387436093804  1.0000
  C   C22       1.0  0.8729794019472977  0.848156586546864  0.3893497228080563  1.0000
  C   C23       1.0  0.07886276240579093  0.2969661817401885  0.475170124213264  1.0000
  C   C24       1.0  0.908463878124387  0.7121507014433563  0.5228792901341137  1.0000
  N   N1        1.0  0.511025765231139  0.26642488973568856  0.5072232563934591  1.0000
  N   N2        1.0  0.5078801016872418  0.7268944970417408  0.4924832992463449  1.0000
  N   N3        1.0  0.48792153884433287  0.3320858575891847  0.42139177328967037  1.0000
  N   N4        1.0  0.5217467488782078  0.6606330469820634  0.5781441935951506  1.0000
  N   N5        1.0  0.0008699809958513991  0.2185831040417128  0.5214740819598376  1.0000
  N   N6        1.0  0.9799429956779024  0.7926441092804739  0.47521463150110327  1.0000
  O   O1        1.0  0.537077794229326  0.0689858791919846  0.6074715735542568  1.0000
  O   O2        1.0  0.5028493103583714  0.9159072937824249  0.40170118130665594  1.0000
  O   O3        1.0  0.4750633783660447  0.1487783013828619  0.28719336381042393  1.0000
  O   O4        1.0  0.5523236017654868  0.8506284867111591  0.7036995671888918  1.0000
  O   O5        1.0  0.512111271603601  0.4452986249492383  0.6372115206302097  1.0000
  O   O6        1.0  0.49034674476059353  0.5434436962170682  0.3620981438815322  1.0000
  O   O7        1.0  0.2504659947490921  0.0520150204916376  0.3685895345748235  1.0000
  O   O8        1.0  0.8837560471150783  0.9940686460873424  0.6989867678235059  1.0000
  O   O9        1.0  0.7651479226974658  0.12257616498807519  0.5092225901323033  1.0000
  O   O10       1.0  0.20946482786851564  0.8931187734756207  0.4824761429745407  1.0000
