data_image0
_chemical_formula_structural       K2H10C14S2N8
_chemical_formula_sum              "K2 H10 C14 S2 N8"
_cell_length_a       6.318498429320416
_cell_length_b       7.043524734307838
_cell_length_c       11.246638934442249
_cell_angle_alpha    100.54409318483091
_cell_angle_beta     102.48481906299017
_cell_angle_gamma    112.16511763299133

_space_group_name_H-M_alt    "P 1"
_space_group_IT_number       1

loop_
  _space_group_symop_operation_xyz
  'x, y, z'

loop_
  _atom_site_type_symbol
  _atom_site_label
  _atom_site_symmetry_multiplicity
  _atom_site_fract_x
  _atom_site_fract_y
  _atom_site_fract_z
  _atom_site_occupancy
  K   K1        1.0  0.7749665694602969  0.9395734153935111  0.09733768155437873  1.0000
  K   K2        1.0  0.22504847067609288  0.06046358687340359  0.9026657998491672  1.0000
  H   H1        1.0  0.6123988343213752  0.17842248889449044  0.5527981048461968  1.0000
  H   H2        1.0  0.38761672020054755  0.8216194307990391  0.4472157526433166  1.0000
  H   H3        1.0  0.7619804422053917  0.09916184274658948  0.3732704127126071  1.0000
  H   H4        1.0  0.23799261571544858  0.9008349566405016  0.6267385157384453  1.0000
  H   H5        1.0  0.20663643420464692  0.2380684054511235  0.4088329909892536  1.0000
  H   H6        1.0  0.7933191208057833  0.7618769776649187  0.5911521712305402  1.0000
  H   H7        1.0  0.4936234463503624  0.4702610536269276  0.6236857272687217  1.0000
  H   H8        1.0  0.5063593812359954  0.5296767187539757  0.3762985310064907  1.0000
  H   H9        1.0  0.33867987252735776  0.5497139014297544  0.8040427539608005  1.0000
  H   H10       1.0  0.6613470828447063  0.45028670913518454  0.1959618857480692  1.0000
  C   C1        1.0  0.7398778252412372  0.2719909536022769  0.843192145466361  1.0000
  C   C2        1.0  0.2601482736369859  0.7280319679813514  0.15681745337536768  1.0000
  C   C3        1.0  0.967568260076135  0.36556678041219465  0.6876141963153515  1.0000
  C   C4        1.0  0.032421826187153495  0.6344380317413182  0.3123835342842439  1.0000
  C   C5        1.0  0.804904861513812  0.23871400520740588  0.5673270696828326  1.0000
  C   C6        1.0  0.19509521933794358  0.7612846215754132  0.4326739354349841  1.0000
  C   C7        1.0  0.8919019266753879  0.19448351050263574  0.4671897668236653  1.0000
  C   C8        1.0  0.10805269192779557  0.8054842678401497  0.5328065780266869  1.0000
  C   C9        1.0  0.13961772541139789  0.27573134643772323  0.4874148587584699  1.0000
  C   C10       1.0  0.8603263462898596  0.724213930220259  0.512573276321213  1.0000
  C   C11       1.0  0.3004439611100834  0.40357237524588635  0.608110646137071  1.0000
  C   C12       1.0  0.6995298108406871  0.5963906870736719  0.39187162340781617  1.0000
  C   C13       1.0  0.2156297560268924  0.44952204280895797  0.7095164400311376  1.0000
  C   C14       1.0  0.7843568807726626  0.5504682819771175  0.29047128966040964  1.0000
  S   S1        1.0  0.6643817612324341  0.005083344067472198  0.8112286621010228  1.0000
  S   S2        1.0  0.3356327221552106  0.9949457270561695  0.1887765627948639  1.0000
  N   N1        1.0  0.8743645872189488  0.4114108928490837  0.7882349809902607  1.0000
  N   N2        1.0  0.12567380136219694  0.5886106282050179  0.21177692088789263  1.0000
  N   N3        1.0  0.8989251357016599  0.6119372696771278  0.8398561515794472  1.0000
  N   N4        1.0  0.10111522985172872  0.38809854652733117  0.16015309385485216  1.0000
  N   N5        1.0  0.7824252296549473  0.5946336825473395  0.9225709125758783  1.0000
  N   N6        1.0  0.2176102617759169  0.4054020381948148  0.0774359236466751  1.0000
  N   N7        1.0  0.6825307687363067  0.3913747605859399  0.9280958265673862  1.0000
  N   N8        1.0  0.31749904547987023  0.6086593098459331  0.0719118878410185  1.0000
