data_image0
_chemical_formula_structural       Al4H52C72O20
_chemical_formula_sum              "Al4 H52 C72 O20"
_cell_length_a       6.64216189423947
_cell_length_b       24.015541796757457
_cell_length_c       25.351667707510135
_cell_angle_alpha    89.98092336798092
_cell_angle_beta     90.96295145391367
_cell_angle_gamma    89.32527890728483

_space_group_name_H-M_alt    "P 1"
_space_group_IT_number       1

loop_
  _space_group_symop_operation_xyz
  'x, y, z'

loop_
  _atom_site_type_symbol
  _atom_site_label
  _atom_site_symmetry_multiplicity
  _atom_site_fract_x
  _atom_site_fract_y
  _atom_site_fract_z
  _atom_site_occupancy
  Al  Al1       1.0  0.9273101131431291  0.9993096578362995  0.4976825915029508  1.0000
  Al  Al2       1.0  0.42748133686635725  0.0006585122214560008  0.499278952703918  1.0000
  Al  Al3       1.0  0.07193485577384003  0.49936368288785354  0.00018723293414520004  1.0000
  Al  Al4       1.0  0.5716314306642688  0.5006148385937693  0.0013783952276256002  1.0000
  H   H1        1.0  0.17000350712533674  0.0740338603337776  0.4991314991274579  1.0000
  H   H2        1.0  0.6817268919676565  0.931914900426115  0.5212865301728372  1.0000
  H   H3        1.0  0.32919766186545024  0.42881152691114727  0.016865722718165402  1.0000
  H   H4        1.0  0.817694359902852  0.5693749802135813  0.9807742473098957  1.0000
  H   H5        1.0  0.5463269389087699  0.4244495746988975  0.14301364334721714  1.0000
  H   H6        1.0  0.5079968876232216  0.3537223708570637  0.21421843732598236  1.0000
  H   H7        1.0  0.07166382707703178  0.2785262053058376  0.16894088480139405  1.0000
  H   H8        1.0  0.4240734785305095  0.22082566700141373  0.33028335390579144  1.0000
  H   H9        1.0  0.9537311034439996  0.07621698806657663  0.3569240319830343  1.0000
  H   H10       1.0  0.9903156983628705  0.14679920402476657  0.2854645168386014  1.0000
  H   H11       1.0  0.027345196174330504  0.6399544513978769  0.9120055056377013  1.0000
  H   H12       1.0  0.9976162949708823  0.7142101125603304  0.8435315765981957  1.0000
  H   H13       1.0  0.5444762237617412  0.6523401107951161  0.7741326190387597  1.0000
  H   H14       1.0  0.956597708392259  0.8476008826280577  0.7259068857540003  1.0000
  H   H15       1.0  0.4703098893263373  0.8594824322329019  0.5871654145838505  1.0000
  H   H16       1.0  0.5012875623379216  0.7853322571300511  0.6557012450349761  1.0000
  H   H17       1.0  0.6003468158103403  0.6387952710222821  0.1022043580822967  1.0000
  H   H18       1.0  0.5804329975705118  0.71304371748834  0.17099134846543512  1.0000
  H   H19       1.0  0.00040016392360800083  0.6513356643931375  0.21528041390340047  1.0000
  H   H20       1.0  0.4993283901526909  0.8490800732838512  0.2840370670737542  1.0000
  H   H21       1.0  0.8990414816560631  0.8619946132138309  0.3969612034170851  1.0000
  H   H22       1.0  0.9186474118589273  0.7877050089844032  0.3282173239464329  1.0000
  H   H23       1.0  0.5277648228719088  0.3601527408667808  0.9126035769944495  1.0000
  H   H24       1.0  0.49861894728184813  0.2865806136226611  0.8434020307672371  1.0000
  H   H25       1.0  0.06279017742603092  0.33998506299938225  0.779924135857762  1.0000
  H   H26       1.0  0.4449740454035974  0.15937065638727435  0.7212508168861902  1.0000
  H   H27       1.0  0.9739092248285816  0.1390169220827318  0.5870932483934298  1.0000
  H   H28       1.0  0.008989286400130003  0.21161418431395163  0.6568584202409725  1.0000
  H   H29       1.0  0.25549435559653233  0.309578966283425  0.09996480513657961  1.0000
  H   H30       1.0  0.12913260129256093  0.34717067075112606  0.04829915505127501  1.0000
  H   H31       1.0  0.2664491514979447  0.38342552015948433  0.09730177767180952  1.0000
  H   H32       1.0  0.2361376613435482  0.11492383657883212  0.40465529529600275  1.0000
  H   H33       1.0  0.3704827220922908  0.15477415337431216  0.45121445309951724  1.0000
  H   H34       1.0  0.23813739081364824  0.18879580751355013  0.39838199634994  1.0000
  H   H35       1.0  0.5896049813324851  0.5264401224824127  0.8542001229581331  1.0000
  H   H36       1.0  0.6834708731575461  0.5658469968783282  0.8003753211228855  1.0000
  H   H37       1.0  0.7558582509737946  0.5816546084776563  0.8662518958399519  1.0000
  H   H38       1.0  0.736784461770057  0.9155151476630935  0.638944029240939  1.0000
  H   H39       1.0  0.8312169448409467  0.9380470169471451  0.7009460509604538  1.0000
  H   H40       1.0  0.9034046909121117  0.9720479894368029  0.6416775280687405  1.0000
  H   H41       1.0  0.8766336273130905  0.5720221996267656  0.11174583341646384  1.0000
  H   H42       1.0  0.025043344302652308  0.5233047158186964  0.14677850950386784  1.0000
  H   H43       1.0  0.8705579333479962  0.57120300787431  0.1820325170109811  1.0000
  H   H44       1.0  0.6295902267700201  0.9292183634552701  0.31729218796198927  1.0000
  H   H45       1.0  0.47521629213773764  0.9771938818234959  0.3524884581855261  1.0000
  H   H46       1.0  0.6230036592452423  0.928390830024654  0.3875584121626687  1.0000
  H   H47       1.0  0.23308652135469296  0.4156641817826596  0.8118009944495415  1.0000
  H   H48       1.0  0.09952171239544329  0.4668819867302076  0.8488312864411827  1.0000
  H   H49       1.0  0.24604397602648484  0.416516044208862  0.8821149537862712  1.0000
  H   H50       1.0  0.25683245498757407  0.08336727640573122  0.6184096419024173  1.0000
  H   H51       1.0  0.4004082796830062  0.03331434151158421  0.652947432489455  1.0000
  H   H52       1.0  0.26757929906273864  0.08571424287048758  0.6886446616067803  1.0000
  C   C1        1.0  0.6820711647204548  0.0690229456847362  0.5694500822428381  1.0000
  C   C2        1.0  0.6687453756703263  0.0665221859988634  0.4264108368407095  1.0000
  C   C3        1.0  0.17708194889703321  0.9338432704297905  0.4265226046847418  1.0000
  C   C4        1.0  0.1860773275308105  0.9341764072226653  0.5719967592082114  1.0000
  C   C5        1.0  0.8169874834701432  0.43112528623175467  0.9302005312655982  1.0000
  C   C6        1.0  0.8309170389776173  0.43349506762643847  0.073189602744641  1.0000
  C   C7        1.0  0.3223991070326803  0.5668539758346967  0.07259073189074172  1.0000
  C   C8        1.0  0.31237501236697807  0.5652937376751268  0.9273159567849519  1.0000
  C   C9        1.0  0.8293499782059542  0.3917427038372738  0.11663627471752143  1.0000
  C   C10       1.0  0.6611164407155172  0.39229649263545247  0.14953569652251283  1.0000
  C   C11       1.0  0.6392451676500883  0.3530828223113929  0.18901197634508551  1.0000
  C   C12       1.0  0.7871742059177792  0.31092723311709153  0.1958325817157274  1.0000
  C   C13       1.0  0.9578125779115252  0.3112172994477335  0.16347283384878614  1.0000
  C   C14       1.0  0.9835636694065074  0.35111557750556  0.1240807630890259  1.0000
  C   C15       1.0  0.7616084079564088  0.2684297765044762  0.23364492071588225  1.0000
  C   C16       1.0  0.7343558759769807  0.231421455662101  0.26568976837621966  1.0000
  C   C17       1.0  0.7095390242957008  0.18895651488922038  0.3035921212989551  1.0000
  C   C18       1.0  0.5387708547207951  0.1884055791655328  0.33590587168097846  1.0000
  C   C19       1.0  0.5139512826146557  0.1486090533430868  0.37544751796097137  1.0000
  C   C20       1.0  0.6693210008269687  0.1083106930356337  0.38296551127865547  1.0000
  C   C21       1.0  0.8378148725084529  0.10802755115039284  0.3501518209485682  1.0000
  C   C22       1.0  0.858773569518135  0.14718772992719661  0.31058635184925276  1.0000
  C   C23       1.0  0.30506843662392674  0.6060768883918898  0.882986314639851  1.0000
  C   C24       1.0  0.14084636683778481  0.6435474247322904  0.8816865078282065  1.0000
  C   C25       1.0  0.1238196836574161  0.6848161946241831  0.8436916465290454  1.0000
  C   C26       1.0  0.27226011969482755  0.6887881947926005  0.8047500789885549  1.0000
  C   C27       1.0  0.43313630779869783  0.6499457007492991  0.8051962019027316  1.0000
  C   C28       1.0  0.45421304070826113  0.6086203670438622  0.8438595945934824  1.0000
  C   C29       1.0  0.2579546922928558  0.7311283377851795  0.766040362854554  1.0000
  C   C30       1.0  0.242107076910294  0.7685369770388634  0.7335449089968337  1.0000
  C   C31       1.0  0.2275641870395617  0.8109083059854286  0.6948697682693991  1.0000
  C   C32       1.0  0.067258667908753  0.8498980810563881  0.694667084432034  1.0000
  C   C33       1.0  0.04577038588995211  0.8912632112869334  0.6560146063259398  1.0000
  C   C34       1.0  0.19361115464679562  0.8936156219809848  0.6165694600033974  1.0000
  C   C35       1.0  0.3576105017571082  0.8560280489304547  0.617698385892929  1.0000
  C   C36       1.0  0.37521924063349144  0.814783751514561  0.6556905879144352  1.0000
  C   C37       1.0  0.3096270679358355  0.6053118420319804  0.11855785799187403  1.0000
  C   C38       1.0  0.468776010887794  0.6424176721243386  0.1271665636695971  1.0000
  C   C39       1.0  0.45818097373131655  0.6836501917916068  0.1653843959615671  1.0000
  C   C40       1.0  0.28490308058610475  0.6880969980693196  0.19662147894610632  1.0000
  C   C41       1.0  0.1307450961587691  0.6487405236106839  0.18973346615407394  1.0000
  C   C42       1.0  0.13832288952790614  0.6072392862976912  0.15128533521594534  1.0000
  C   C43       1.0  0.262518445739218  0.7313834842637879  0.23390435244257193  1.0000
  C   C44       1.0  0.23669478914442976  0.769195481981811  0.265370143133687  1.0000
  C   C45       1.0  0.2144401320026574  0.8125063316554986  0.30263791603899654  1.0000
  C   C46       1.0  0.36880852972070954  0.8517916841781529  0.30951299642843827  1.0000
  C   C47       1.0  0.36137407737665217  0.8933172648189969  0.3479401394165507  1.0000
  C   C48       1.0  0.18988614086519823  0.8953616083600126  0.3806032845061084  1.0000
  C   C49       1.0  0.030520184054623208  0.8583210854690789  0.37198540762893373  1.0000
  C   C50       1.0  0.0410835351432866  0.8170415506526612  0.33382786695309363  1.0000
  C   C51       1.0  0.8123778199394637  0.3898448806741683  0.8862489917767533  1.0000
  C   C52       1.0  0.6450257930803504  0.3546814378383587  0.8834365595124256  1.0000
  C   C53       1.0  0.6283720263574536  0.31390258878312954  0.8450485964757277  1.0000
  C   C54       1.0  0.781013284535696  0.30804632156205264  0.8073484877001891  1.0000
  C   C55       1.0  0.9470733382518687  0.34409842896837967  0.8097697392560192  1.0000
  C   C56       1.0  0.9672846243885405  0.3849818421971349  0.8486937555895366  1.0000
  C   C57       1.0  0.7648550393602492  0.2670316979126498  0.7675297578623698  1.0000
  C   C58       1.0  0.7455054004817185  0.23139429537737752  0.7335185632264043  1.0000
  C   C59       1.0  0.7271073848697543  0.19067643501836073  0.6934952157724442  1.0000
  C   C60       1.0  0.5594552301111123  0.1551631939033626  0.6910896653864641  1.0000
  C   C61       1.0  0.5359433600485984  0.1147723069419229  0.6518312322395232  1.0000
  C   C62       1.0  0.6890891694174713  0.1098301477600927  0.6137675872278551  1.0000
  C   C63       1.0  0.857940416456458  0.1444711071451721  0.6165901441668495  1.0000
  C   C64       1.0  0.8780763673873295  0.18470799595637297  0.6553551433449201  1.0000
  C   C65       1.0  0.16848693445858487  0.3475108702819299  0.09059565128142572  1.0000
  C   C66       1.0  0.32952650447706594  0.15205131005156156  0.40909156676241315  1.0000
  C   C67       1.0  0.6291922241638161  0.5683044447951318  0.8409838947133682  1.0000
  C   C68       1.0  0.8711409252243456  0.9316647086509207  0.659499314371985  1.0000
  C   C69       1.0  0.9682538010971058  0.5664139354292388  0.1478138864679437  1.0000
  C   C70       1.0  0.5316688368272154  0.9340536107822077  0.3514578463500371  1.0000
  C   C71       1.0  0.14625511977202882  0.42285615280427896  0.847656620806383  1.0000
  C   C72       1.0  0.355376601550013  0.07749422110843081  0.6531526954320983  1.0000
  O   O1        1.0  0.8513486439614085  0.0522833651897372  0.5519416768292517  1.0000
  O   O2        1.0  0.5005448035334439  0.050167189220239515  0.4436208385975107  1.0000
  O   O3        1.0  0.3434316296006799  0.9482472908329811  0.4477916952479434  1.0000
  O   O4        1.0  0.014350970080847996  0.9475848174525444  0.5522991350181812  1.0000
  O   O5        1.0  0.0032529098818515003  0.94819560123144  0.4428730757422557  1.0000
  O   O6        1.0  0.3551782132401514  0.9512489258790073  0.5556524989170555  1.0000
  O   O7        1.0  0.5098769239482621  0.054817927269496615  0.5513000560089624  1.0000
  O   O8        1.0  0.840652412175473  0.05014413996546812  0.4438479405626624  1.0000
  O   O9        1.0  0.17499557666231877  0.0337867748890659  0.498462826586561  1.0000
  O   O10       1.0  0.6784761569158563  0.9657795810916739  0.500482007170831  1.0000
  O   O11       1.0  0.9884019226430142  0.44497497557896554  0.949009229543748  1.0000
  O   O12       1.0  0.6592009712108364  0.4494190474882275  0.055151841119467804  1.0000
  O   O13       1.0  0.4963343128264413  0.5521070764347658  0.05656245242150961  1.0000
  O   O14       1.0  0.14361341264301333  0.5477460282547284  0.9433999206911994  1.0000
  O   O15       1.0  0.15574414668262196  0.5529801571391461  0.051080243288247104  1.0000
  O   O16       1.0  0.48384416813757275  0.5519052857369291  0.9471297689893917  1.0000
  O   O17       1.0  0.6470969694040393  0.44836988120415117  0.9467698413958487  1.0000
  O   O18       1.0  0.9995667535693471  0.4502906175001513  0.056578129740415824  1.0000
  O   O19       1.0  0.32424567225643836  0.4657929352075314  0.0016373528905760002  1.0000
  O   O20       1.0  0.8205570165239563  0.5341288944648924  0.9993731050195863  1.0000
