data_image0
_chemical_formula_structural       Mn2H14C10N6O12
_chemical_formula_sum              "Mn2 H14 C10 N6 O12"
_cell_length_a       4.763081522267396
_cell_length_b       6.709621071223579
_cell_length_c       13.86741432077667
_cell_angle_alpha    98.58902919801041
_cell_angle_beta     97.84523051269731
_cell_angle_gamma    102.03029010815732

_space_group_name_H-M_alt    "P 1"
_space_group_IT_number       1

loop_
  _space_group_symop_operation_xyz
  'x, y, z'

loop_
  _atom_site_type_symbol
  _atom_site_label
  _atom_site_symmetry_multiplicity
  _atom_site_fract_x
  _atom_site_fract_y
  _atom_site_fract_z
  _atom_site_occupancy
  Mn  Mn1       1.0  0.4999977337214858  0.9999943096659435  3.362350540171819e-06  1.0000
  Mn  Mn2       1.0  1.3131147092257198e-05  0.499993034048245  0.5000023912685805  1.0000
  H   H1        1.0  0.5388514654190361  0.4193841237316035  0.1331963661450786  1.0000
  H   H2        1.0  0.46115235567130247  0.5806253900390386  0.8668029323154441  1.0000
  H   H3        1.0  0.3810779833777715  0.6051082688490794  0.0823317475794028  1.0000
  H   H4        1.0  0.6189201961066362  0.3948903891409825  0.9176664936662818  1.0000
  H   H5        1.0  0.3317089472692629  0.29204050340411664  0.29090122903135546  1.0000
  H   H6        1.0  0.668311700423274  0.7079752405820441  0.7091007880349025  1.0000
  H   H7        1.0  0.3418399686413522  0.8785903613889373  0.597945013277112  1.0000
  H   H8        1.0  0.6581498367122905  0.12140208236192511  0.40205236927477017  1.0000
  H   H9        1.0  0.5846772285975135  0.9903035869530401  0.20718241495936948  1.0000
  H   H10       1.0  0.41530702030309646  0.0096981337728721  0.7928196864898495  1.0000
  H   H11       1.0  0.5333527522228962  0.7852043293231006  0.5202009751909529  1.0000
  H   H12       1.0  0.4666496687311223  0.2147943376730765  0.47979747570148124  1.0000
  H   H13       1.0  0.2524667569838428  0.9093529479351119  0.166545326153134  1.0000
  H   H14       1.0  0.7475254240015093  0.09065344091931142  0.8334546166971036  1.0000
  C   C1        1.0  0.011071479702359012  0.6665876579747448  0.3111145735696752  1.0000
  C   C2        1.0  0.9889303925683991  0.33340945578506614  0.6888859021944924  1.0000
  C   C3        1.0  0.23127786969549657  0.42184248211395925  0.28536263632896913  1.0000
  C   C4        1.0  0.7687455866913454  0.578168625420595  0.7146355806701834  1.0000
  C   C5        1.0  0.3345602009214304  0.468226662424918  0.11717517215831205  1.0000
  C   C6        1.0  0.6654389997600489  0.5317750969481025  0.8828226208900034  1.0000
  C   C7        1.0  0.8466586861579088  0.8012904025308315  0.3649659618238985  1.0000
  C   C8        1.0  0.1533231871109919  0.1986973730915196  0.6350335793269578  1.0000
  C   C9        1.0  0.10955038888298671  0.29479786244682776  0.0450022749940118  1.0000
  C   C10       1.0  0.8904494083546413  0.7051992498637885  0.9549959350191273  1.0000
  N   N1        1.0  0.09460215431172962  0.5091148053847474  0.35148237824451195  1.0000
  N   N2        1.0  0.9054076348098833  0.49088697548562266  0.6485166592298909  1.0000
  N   N3        1.0  0.23218442796266464  0.5243787856845329  0.20886493352077906  1.0000
  N   N4        1.0  0.767820568834864  0.4756276362959894  0.7911313164144004  1.0000
  N   N5        1.0  0.09112849376463561  0.6794691402604369  0.2234381693474532  1.0000
  N   N6        1.0  0.9088664349794514  0.3205326080705575  0.7765608546725531  1.0000
  O   O1        1.0  0.770350925042628  0.9455806480956994  0.32703370266598597  1.0000
  O   O2        1.0  0.2296108404159654  0.054403985616154685  0.6729653432718763  1.0000
  O   O3        1.0  0.7959772595611766  0.7537838293644511  0.4479800762199345  1.0000
  O   O4        1.0  0.2040199313651598  0.24620552592591588  0.5520217753688996  1.0000
  O   O5        1.0  0.38704767127532597  0.7496255726739207  0.5632774772518161  1.0000
  O   O6        1.0  0.6129458094595607  0.2503715291813862  0.4367182573635517  1.0000
  O   O7        1.0  0.2021704675298324  0.19379830077038918  0.976497328625882  1.0000
  O   O8        1.0  0.7978450720061544  0.8062081396536126  0.023502326663034992  1.0000
  O   O9        1.0  0.8466180938042811  0.2677475393984281  0.05794139349521288  1.0000
  O   O10       1.0  0.1533842836192818  0.7322449211912386  0.9420638210890856  1.0000
  O   O11       1.0  0.4271512044691122  0.0107977609302239  0.1580732594259331  1.0000
  O   O12       1.0  0.572840443066873  0.989207075705792  0.841927987986814  1.0000
