data_image0
_chemical_formula_structural       Zn8H136C224N24O16
_chemical_formula_sum              "Zn8 H136 C224 N24 O16"
_cell_length_a       23.718660087633786
_cell_length_b       23.718685686202377
_cell_length_c       30.703959017348588
_cell_angle_alpha    110.59921746339168
_cell_angle_beta     110.5995750390397
_cell_angle_gamma    95.16769074080518

_space_group_name_H-M_alt    "P 1"
_space_group_IT_number       1

loop_
  _space_group_symop_operation_xyz
  'x, y, z'

loop_
  _atom_site_type_symbol
  _atom_site_label
  _atom_site_symmetry_multiplicity
  _atom_site_fract_x
  _atom_site_fract_y
  _atom_site_fract_z
  _atom_site_occupancy
  Zn  Zn1       1.0  0.36831375709348896  0.11840140368981626  0.7366611309229825  1.0000
  Zn  Zn2       1.0  0.8816010460630112  0.6316886494766296  0.7633433164898451  1.0000
  Zn  Zn3       1.0  0.6316887717850791  0.881600462416124  0.2633402544326913  1.0000
  Zn  Zn4       1.0  0.11839881409778033  0.36831000047784107  0.2366558551158846  1.0000
  Zn  Zn5       1.0  0.9016321074103785  0.15157042596626263  0.8031668870041956  1.0000
  Zn  Zn6       1.0  0.848427725027939  0.09836508011204624  0.6968270184285502  1.0000
  Zn  Zn7       1.0  0.09836852003243737  0.8484297341769608  0.19683165725936652  1.0000
  Zn  Zn8       1.0  0.15157074165238532  0.9016353831385686  0.30317261504929865  1.0000
  H   H1        1.0  0.4634971771723642  0.9261802681797917  0.7431551679712456  1.0000
  H   H2        1.0  0.5548165697848902  0.00846062536059126  0.748681091448603  1.0000
  H   H3        1.0  0.5789887579647015  0.2344775908544675  0.7490624971670172  1.0000
  H   H4        1.0  0.5048807209153027  0.31394677017525663  0.7435834659568387  1.0000
  H   H5        1.0  0.547379657051394  0.07960679802270941  0.6666355222549784  1.0000
  H   H6        1.0  0.6530585098454793  0.07826378146889817  0.6666925305366718  1.0000
  H   H7        1.0  0.735374259233808  0.16049080864724638  0.8301976865365079  1.0000
  H   H8        1.0  0.6298222716970088  0.16180857687754738  0.8306673513586917  1.0000
  H   H9        1.0  0.3900725323559442  0.9343196696779759  0.8181504064536753  1.0000
  H   H10       1.0  0.3766286398800889  0.8251710099692675  0.80988630245178  1.0000
  H   H11       1.0  0.3261577284720473  0.7374396669238479  0.723758273599273  1.0000
  H   H12       1.0  0.28838291527410587  0.7594848739261267  0.6461798927317943  1.0000
  H   H13       1.0  0.30154453856437863  0.8687925425832363  0.6549120609921815  1.0000
  H   H14       1.0  0.2692026404841316  0.9081070349003185  0.3843791416409986  1.0000
  H   H15       1.0  0.3206169923167367  0.9538794537052768  0.47914243614788177  1.0000
  H   H16       1.0  0.20238729313292225  0.07342987196511068  0.5547847597420201  1.0000
  H   H17       1.0  0.25303419833269913  0.11810709865432058  0.6492722708041044  1.0000
  H   H18       1.0  0.27939766837872076  0.31693822827421775  0.7427709976398092  1.0000
  H   H19       1.0  0.19381424438491737  0.2403216494047485  0.7486091644492276  1.0000
  H   H20       1.0  0.1700547685046416  0.014760067887657156  0.749075356699521  1.0000
  H   H21       1.0  0.23863212773606796  0.9297406829468291  0.7434649751320139  1.0000
  H   H22       1.0  0.11925190784778293  0.08701472206180233  0.6667311403946172  1.0000
  H   H23       1.0  0.013616591937371  0.08828728846321347  0.6668003666717581  1.0000
  H   H24       1.0  0.09497728154781988  0.16973476961738515  0.8302909843497375  1.0000
  H   H25       1.0  0.20106191329211504  0.1691385909128088  0.8307929868566575  1.0000
  H   H26       1.0  0.42803950224831777  0.3839838946853575  0.818081040468755  1.0000
  H   H27       1.0  0.4331829772766939  0.4848943740255013  0.8098861060434219  1.0000
  H   H28       1.0  0.39755932470372096  0.4864928202735826  0.7237709951141511  1.0000
  H   H29       1.0  0.35780050907249017  0.38679392164466714  0.6461534136991958  1.0000
  H   H30       1.0  0.35342210296374793  0.2862080670948546  0.6548798017714007  1.0000
  H   H31       1.0  0.11516466649413107  0.9763519665965392  0.38435809675050353  1.0000
  H   H32       1.0  0.15856275184613372  0.025344252316479337  0.4791281077075382  1.0000
  H   H33       1.0  0.3524537925526302  0.9814957286305416  0.5548015696354653  1.0000
  H   H34       1.0  0.3962045293845123  0.031132838243543515  0.6493046265489042  1.0000
  H   H35       1.0  0.07382144749264799  0.5365030532410984  0.7568453035420432  1.0000
  H   H36       1.0  0.991540157346698  0.445185250431635  0.7513214957349206  1.0000
  H   H37       1.0  0.7655226388563962  0.42101255878943555  0.7509380849673876  1.0000
  H   H38       1.0  0.6860556417750274  0.49512326737414014  0.7564204311282197  1.0000
  H   H39       1.0  0.9203900529648411  0.4526194515402156  0.8333690736561866  1.0000
  H   H40       1.0  0.921737929484884  0.3469408714305686  0.833308988588108  1.0000
  H   H41       1.0  0.8395139108881011  0.2646306696851042  0.669808020721895  1.0000
  H   H42       1.0  0.8381915638036758  0.37018084245969624  0.6693372166980397  1.0000
  H   H43       1.0  0.06567963549289152  0.6099266965914368  0.6818473290976783  1.0000
  H   H44       1.0  0.17482656969079352  0.6233700573391162  0.6901104974340981  1.0000
  H   H45       1.0  0.26256230223282273  0.6738414736580015  0.7762380036862667  1.0000
  H   H46       1.0  0.24051849629724117  0.7116185072385761  0.8538174431941171  1.0000
  H   H47       1.0  0.13121325682190155  0.6984566988021899  0.8450862157032477  1.0000
  H   H48       1.0  0.0918887389965306  0.7307980523121672  0.1156219390172808  1.0000
  H   H49       1.0  0.04611734815991035  0.6793815789846677  0.02085931947822665  1.0000
  H   H50       1.0  0.9265713753002983  0.7976119855407192  0.9452144222470409  1.0000
  H   H51       1.0  0.8818926907726946  0.7469617261996577  0.8507262282104763  1.0000
  H   H52       1.0  0.6830618190109945  0.7206043169750842  0.7572305523164076  1.0000
  H   H53       1.0  0.7596802206651033  0.8061867693126744  0.751391832779369  1.0000
  H   H54       1.0  0.9852438219552938  0.8299480662577212  0.7509281368362154  1.0000
  H   H55       1.0  0.07026453607335977  0.7613708466751917  0.7565403782681841  1.0000
  H   H56       1.0  0.9129875930140943  0.8807483975932303  0.8332683585146868  1.0000
  H   H57       1.0  0.9117164378878044  0.9863831034149868  0.8332001465415075  1.0000
  H   H58       1.0  0.8302646037123581  0.9050262073561302  0.6697119804723786  1.0000
  H   H59       1.0  0.8308543868001836  0.79893935628391  0.6692057554209826  1.0000
  H   H60       1.0  0.6160166087919521  0.5719616568407204  0.6819205069496945  1.0000
  H   H61       1.0  0.5151054517788084  0.5668162546369687  0.6901142712536484  1.0000
  H   H62       1.0  0.5135059001269155  0.6024398475908656  0.7762284263628914  1.0000
  H   H63       1.0  0.613203518386456  0.6421988217440389  0.8538456083394622  1.0000
  H   H64       1.0  0.7137896676386005  0.6465792873384545  0.8451226641088923  1.0000
  H   H65       1.0  0.02364508783985293  0.8848343738655448  0.1156390390447299  1.0000
  H   H66       1.0  0.9746533260061269  0.8414378595659286  0.020870212935719192  1.0000
  H   H67       1.0  0.01850270660657558  0.6475453117637358  0.9452011976742937  1.0000
  H   H68       1.0  0.9688668887683177  0.6037921324401481  0.8506983947894399  1.0000
  H   H69       1.0  0.5365027947822654  0.0738221500512922  0.25684597679859433  1.0000
  H   H70       1.0  0.445185616890754  0.9915414070391294  0.25132181312326907  1.0000
  H   H71       1.0  0.42101546846976845  0.7655244671472872  0.25093919640254825  1.0000
  H   H72       1.0  0.4951240350266914  0.686056267044343  0.2564187590567215  1.0000
  H   H73       1.0  0.4526205156504873  0.9203914803442005  0.3333672241611438  1.0000
  H   H74       1.0  0.3469428964775929  0.9217411660146199  0.3333091223410277  1.0000
  H   H75       1.0  0.2646306632047413  0.8395141939184755  0.16980470455699503  1.0000
  H   H76       1.0  0.37018156704165506  0.8381913533624399  0.1693358171351349  1.0000
  H   H77       1.0  0.6099266229630445  0.06567927259530398  0.18184759095397854  1.0000
  H   H78       1.0  0.623369368570664  0.1748270396882887  0.1901114747159625  1.0000
  H   H79       1.0  0.673840684249754  0.26256087905073855  0.27623851086224965  1.0000
  H   H80       1.0  0.7116161645341137  0.24051669111214127  0.35381802717977007  1.0000
  H   H81       1.0  0.6984554461047594  0.1312105724896214  0.3450858355832694  1.0000
  H   H82       1.0  0.730798195443441  0.09189259081677656  0.6156210098127417  1.0000
  H   H83       1.0  0.6793823425693475  0.04611702864158925  0.5208576063760617  1.0000
  H   H84       1.0  0.7976134549414553  0.9265708195719429  0.44521623435979046  1.0000
  H   H85       1.0  0.7469675047004074  0.8818953884798547  0.3507278185654742  1.0000
  H   H86       1.0  0.7206044689433073  0.6830618383564514  0.2572281322276951  1.0000
  H   H87       1.0  0.8061866705581053  0.7596801473751783  0.2513896676822895  1.0000
  H   H88       1.0  0.8299470886825873  0.9852428276476176  0.2509258188941459  1.0000
  H   H89       1.0  0.7613705672669508  0.0702640086084898  0.2565389043538461  1.0000
  H   H90       1.0  0.8807460169826059  0.9129832050259382  0.33326888178338976  1.0000
  H   H91       1.0  0.9863823174975224  0.9117083775043754  0.3332011120284052  1.0000
  H   H92       1.0  0.9050260276833197  0.8302641814047574  0.1697116527001015  1.0000
  H   H93       1.0  0.7989400741086001  0.8308598789270008  0.16920645914894547  1.0000
  H   H94       1.0  0.5719617132654591  0.6160151134587153  0.1819199585670717  1.0000
  H   H95       1.0  0.5668177206998878  0.5151060719490204  0.19011576945450068  1.0000
  H   H96       1.0  0.6024406684310577  0.5135079180197479  0.2762297061856813  1.0000
  H   H97       1.0  0.6421992632351206  0.6132057941297618  0.3538466005546042  1.0000
  H   H98       1.0  0.6465782200315289  0.7137909479596589  0.3451203004563936  1.0000
  H   H99       1.0  0.8848375748842232  0.023648262872690468  0.6156430007372152  1.0000
  H   H100      1.0  0.8414389222693117  0.9746563093174034  0.5208724195881516  1.0000
  H   H101      1.0  0.6475459007395229  0.018501816081055614  0.4451997639405576  1.0000
  H   H102      1.0  0.6037956179043958  0.968868308450887  0.35069716097502374  1.0000
  H   H103      1.0  0.9261784250105619  0.46349715365840183  0.24315294791954045  1.0000
  H   H104      1.0  0.008458309705723503  0.554814352715731  0.2486758096926921  1.0000
  H   H105      1.0  0.2344800815595961  0.578989264438363  0.24906675341065926  1.0000
  H   H106      1.0  0.31394642812977475  0.5048779053452465  0.2435837540178269  1.0000
  H   H107      1.0  0.07960934398936816  0.5473796934174687  0.16663149537772884  1.0000
  H   H108      1.0  0.07825617054967893  0.653057043876025  0.1666904509761409  1.0000
  H   H109      1.0  0.1604786203317162  0.7353703304542878  0.33019123796036354  1.0000
  H   H110      1.0  0.16180827057205963  0.629821535925551  0.3306633240657392  1.0000
  H   H111      1.0  0.9343179224657945  0.39007254491109933  0.31814859730386064  1.0000
  H   H112      1.0  0.8251714433648658  0.37662594382541675  0.30988635404560233  1.0000
  H   H113      1.0  0.737436315841137  0.3261528839593879  0.22375945673350373  1.0000
  H   H114      1.0  0.7594801884497571  0.28837646449661497  0.14617961804759014  1.0000
  H   H115      1.0  0.8687857655230999  0.301540155132237  0.15491025201030337  1.0000
  H   H116      1.0  0.9081080509359437  0.2692013992081357  0.884379270826905  1.0000
  H   H117      1.0  0.9538814480088365  0.3206180211303933  0.979142042977813  1.0000
  H   H118      1.0  0.0734252153572541  0.2023839034196655  0.0547833290308759  1.0000
  H   H119      1.0  0.11810680324452251  0.25303225595202866  0.149271646799285  1.0000
  H   H120      1.0  0.3169393421721622  0.27939563399622364  0.24276992575332912  1.0000
  H   H121      1.0  0.24032099024376657  0.19381428732442177  0.24861009194449932  1.0000
  H   H122      1.0  0.014755812773415767  0.17005160967087113  0.24907127341153767  1.0000
  H   H123      1.0  0.9297360909973662  0.23863017357129482  0.24346049404560696  1.0000
  H   H124      1.0  0.08701327643603925  0.11925110513113422  0.16673042932490031  1.0000
  H   H125      1.0  0.08828693415564712  0.013616790011461396  0.1667983609178307  1.0000
  H   H126      1.0  0.16973526879085196  0.0949739995433703  0.3302862709892054  1.0000
  H   H127      1.0  0.1691414566552609  0.2010601848707978  0.3307917085988521  1.0000
  H   H128      1.0  0.3839843061510706  0.4280401399391992  0.3180783251818227  1.0000
  H   H129      1.0  0.48489429972074305  0.43318428097195755  0.30988385841992283  1.0000
  H   H130      1.0  0.4864924123992793  0.39756020725864977  0.22377012089085468  1.0000
  H   H131      1.0  0.38679376827516165  0.35780001178031995  0.146152840462392  1.0000
  H   H132      1.0  0.286208765519163  0.353421298904891  0.1548783329831025  1.0000
  H   H133      1.0  0.9763454463535199  0.1151623806930433  0.8843582156495914  1.0000
  H   H134      1.0  0.025340641054448564  0.158557967401812  0.9791276969344339  1.0000
  H   H135      1.0  0.9814958355845249  0.3524525287218978  0.054798513299630286  1.0000
  H   H136      1.0  0.031130410963854237  0.3962022758116604  0.14930193304876133  1.0000
  C   C1        1.0  0.4118542803088586  0.0016502700146006353  0.743776262042701  1.0000
  C   C2        1.0  0.4630026839048612  0.9724014053373369  0.7443060851845049  1.0000
  C   C3        1.0  0.5092765903026546  0.01410307153274449  0.747013564563254  1.0000
  C   C4        1.0  0.48639419033050063  0.06889296865703189  0.7476127977846901  1.0000
  C   C5        1.0  0.5191564382835879  0.12205138597027343  0.7484008499703594  1.0000
  C   C6        1.0  0.4975993436357058  0.1752257070053603  0.7475538406714364  1.0000
  C   C7        1.0  0.5321475294990066  0.22862617297747803  0.7472278552375898  1.0000
  C   C8        1.0  0.4946399173391498  0.26894440784730017  0.7445338642244153  1.0000
  C   C9        1.0  0.4372411800457385  0.24065849156347943  0.7436858723613327  1.0000
  C   C10       1.0  0.3552443883786297  0.9741498932605099  0.7417038554105774  1.0000
  C   C11       1.0  0.5820629807335607  0.12103568980494114  0.7486769977629564  1.0000
  C   C12       1.0  0.5887489965508763  0.09730984673512211  0.7024805371184115  1.0000
  C   C13       1.0  0.6472775371261719  0.09658499688529082  0.7023316139567228  1.0000
  C   C14       1.0  0.7002310744354645  0.11964205715491975  0.7484255410962392  1.0000
  C   C15       1.0  0.6937484786678924  0.14293598165480162  0.7946589808576193  1.0000
  C   C16       1.0  0.6351262029137388  0.14361062397542684  0.7947570684405961  1.0000
  C   C17       1.0  0.7632401582634004  0.12021973333332882  0.7481455737002777  1.0000
  C   C18       1.0  0.3466987068165395  0.9087143449749676  0.7370837843382674  1.0000
  C   C19       1.0  0.3676777334005906  0.895818161448439  0.7805052759011631  1.0000
  C   C20       1.0  0.36022793880560783  0.8345294594010755  0.7757615514829299  1.0000
  C   C21       1.0  0.3318433281970386  0.7853128836609218  0.7274992018700318  1.0000
  C   C22       1.0  0.310681547350022  0.7976773049559968  0.6840038685433925  1.0000
  C   C23       1.0  0.3179965856647087  0.8589690327458686  0.6888064227569473  1.0000
  C   C24       1.0  0.24683883882472205  0.9344676314863919  0.40751777133992567  1.0000
  C   C25       1.0  0.2748618001069828  0.9603810258113585  0.4604910438406121  1.0000
  C   C26       1.0  0.24525043216375766  0.061945560767036154  0.5733988439778628  1.0000
  C   C27       1.0  0.2732251341867383  0.08740375226983615  0.6264287101884279  1.0000
  C   C28       1.0  0.3317554073597577  0.24216660513007324  0.743495317822216  1.0000
  C   C29       1.0  0.2810980514815429  0.27190123109506475  0.7439698870730141  1.0000
  C   C30       1.0  0.23764410195984453  0.2329875107113182  0.7468555408851003  1.0000
  C   C31       1.0  0.2612071028819047  0.17888054211155696  0.7475802168197277  1.0000
  C   C32       1.0  0.22930718003493672  0.12656709925654056  0.748480228787706  1.0000
  C   C33       1.0  0.249996368613381  0.07253694527006617  0.7476587256199494  1.0000
  C   C34       1.0  0.21506484205637114  0.018770420984061963  0.747249481288705  1.0000
  C   C35       1.0  0.24984746175071867  0.9757226628892899  0.7444848497928336  1.0000
  C   C36       1.0  0.3064342566332386  0.0032005171390993453  0.7437192858580915  1.0000
  C   C37       1.0  0.38637888691756933  0.2676568436711975  0.7415681016208283  1.0000
  C   C38       1.0  0.1667082441322734  0.12784251461208393  0.7487840942719829  1.0000
  C   C39       1.0  0.11377102660981124  0.10520726952596972  0.7025805406501818  1.0000
  C   C40       1.0  0.05508612284068465  0.10567862874110304  0.7024267140479098  1.0000
  C   C41       1.0  0.04829464428904381  0.12872298721925543  0.7485302036128658  1.0000
  C   C42       1.0  0.10106499848890861  0.15178834734390992  0.7947684458250281  1.0000
  C   C43       1.0  0.15980511688192692  0.1513782767522828  0.7948780349040662  1.0000
  C   C44       1.0  0.9850106942082989  0.12785830741655962  0.7482417797610028  1.0000
  C   C45       1.0  0.39038273371580356  0.3285187307066624  0.7370295355369266  1.0000
  C   C46       1.0  0.41280130291052347  0.38485627766461067  0.7804549422352809  1.0000
  C   C47       1.0  0.4155054092822256  0.4414104165352343  0.7757356175001747  1.0000
  C   C48       1.0  0.39564575471844404  0.44232751352279104  0.727473442856116  1.0000
  C   C49       1.0  0.37335566241552703  0.38643440089683895  0.683967714651118  1.0000
  C   C50       1.0  0.3708671168540292  0.32994969569167415  0.6887727048665298  1.0000
  C   C51       1.0  0.16065409062591837  0.9730810895798643  0.4075031616338904  1.0000
  C   C52       1.0  0.18562684657153747  0.00013669784506480302  0.46047966115531125  1.0000
  C   C53       1.0  0.32820113066467377  0.011573297742458504  0.573420511560002  1.0000
  C   C54       1.0  0.35319111371249096  0.039030717993327614  0.626453979091828  1.0000
  C   C55       1.0  0.9983525590634912  0.588147648318902  0.7562284948057397  1.0000
  C   C56       1.0  0.027600137481499695  0.5369977067059679  0.7556962381799011  1.0000
  C   C57       1.0  0.9858992455770947  0.4907252153052043  0.7529899491945927  1.0000
  C   C58       1.0  0.9311107644647334  0.5136076305876643  0.75239295190476  1.0000
  C   C59       1.0  0.8779524077047751  0.4808463077121131  0.7516070318395904  1.0000
  C   C60       1.0  0.8247778287186307  0.5024052011282053  0.7524541063528432  1.0000
  C   C61       1.0  0.7713753016535277  0.4678564054833103  0.7527780047757062  1.0000
  C   C62       1.0  0.731058224491626  0.5053650516029365  0.7554723688999516  1.0000
  C   C63       1.0  0.7593449137842825  0.5627630966635805  0.7563208471473785  1.0000
  C   C64       1.0  0.025851914006480525  0.6447563032875792  0.7582988968457939  1.0000
  C   C65       1.0  0.8789670508237466  0.41793927931762215  0.751330045003357  1.0000
  C   C66       1.0  0.9026938143197542  0.41125134085285014  0.7975258592985031  1.0000
  C   C67       1.0  0.9034149790335279  0.35272200880640275  0.7976713896820443  1.0000
  C   C68       1.0  0.8803615156671825  0.29977090156224767  0.7515783558907287  1.0000
  C   C69       1.0  0.8570670276553469  0.30625573603803957  0.7053451716888901  1.0000
  C   C70       1.0  0.8563926122855746  0.3648793500799528  0.7052493515203722  1.0000
  C   C71       1.0  0.8797878427991251  0.2367628095895357  0.7518593083753942  1.0000
  C   C72       1.0  0.09128636895808753  0.6533010587183838  0.762914120271823  1.0000
  C   C73       1.0  0.10417963823491047  0.6323232178047107  0.7194917209304563  1.0000
  C   C74       1.0  0.16546958554795313  0.6397722542904917  0.7242354820413865  1.0000
  C   C75       1.0  0.2146874870750963  0.6681573045759567  0.7724983372841265  1.0000
  C   C76       1.0  0.2023248458590245  0.6893207132312824  0.8159935958176732  1.0000
  C   C77       1.0  0.14103277149025215  0.6820046943053556  0.8111907886042786  1.0000
  C   C78       1.0  0.06552720109613121  0.7531616051686003  0.0924830073877843  1.0000
  C   C79       1.0  0.03961534173759414  0.7251384530221474  0.03950966745544081  1.0000
  C   C80       1.0  0.9380533508358369  0.7547476897919126  0.9266012950348568  1.0000
  C   C81       1.0  0.9125970010278905  0.7267732752619054  0.8735723195743503  1.0000
  C   C82       1.0  0.7578350038105626  0.6682461891445969  0.7565084296946337  1.0000
  C   C83       1.0  0.7280996286044826  0.7189033509278745  0.7560332242253481  1.0000
  C   C84       1.0  0.7670123104900314  0.7623561768041899  0.753145978838319  1.0000
  C   C85       1.0  0.8211200858519662  0.7387923903651485  0.7524217554523461  1.0000
  C   C86       1.0  0.8734340093360727  0.7706944261475501  0.7515217610511017  1.0000
  C   C87       1.0  0.9274641457211815  0.7500050621602485  0.7523438247251805  1.0000
  C   C88       1.0  0.9812309281883815  0.7849378844035116  0.7527522707180836  1.0000
  C   C89       1.0  0.024280994233293954  0.750155393544425  0.7555191569965061  1.0000
  C   C90       1.0  0.9968018587634049  0.6935674394579436  0.7562852326334308  1.0000
  C   C91       1.0  0.7323427838978703  0.6136217561332135  0.7584325848605078  1.0000
  C   C92       1.0  0.8721572448352646  0.8332936574120852  0.7512174229941166  1.0000
  C   C93       1.0  0.8947952794672531  0.8862317288410894  0.7974207830094714  1.0000
  C   C94       1.0  0.8943229461871453  0.9449158850819118  0.7975745568550608  1.0000
  C   C95       1.0  0.8712777732844617  0.9517054770591714  0.7514710563047304  1.0000
  C   C96       1.0  0.8482073428293547  0.8989349157584814  0.7052318380749157  1.0000
  C   C97       1.0  0.8486228337353053  0.8401955470472089  0.7051225255925289  1.0000
  C   C98       1.0  0.8721436863082844  0.014989734694850725  0.7517599416971239  1.0000
  C   C99       1.0  0.6714820072923472  0.6096177248081036  0.7629716837246435  1.0000
  C   C100      1.0  0.6151441352217476  0.5871999566943701  0.7195465029110795  1.0000
  C   C101      1.0  0.5585891509789606  0.58449429209945  0.7242647904719633  1.0000
  C   C102      1.0  0.5576713118338789  0.6043525744784688  0.7725266643834204  1.0000
  C   C103      1.0  0.6135645797341172  0.6266443284116294  0.8160315284333068  1.0000
  C   C104      1.0  0.6700499564601118  0.629132155553279  0.8112275970268855  1.0000
  C   C105      1.0  0.026917213851916665  0.839345590125042  0.09249528237019423  1.0000
  C   C106      1.0  0.999859417124128  0.8143715048765047  0.039518323423258984  1.0000
  C   C107      1.0  0.9884273040478319  0.6717974839590823  0.9265805618193426  1.0000
  C   C108      1.0  0.9609734754703325  0.6468089591028489  0.8735483667967615  1.0000
  C   C109      1.0  0.5881477518405659  0.9983522140872766  0.2562278843553044  1.0000
  C   C110      1.0  0.5369987644064125  0.027601042373923676  0.2556970088034305  1.0000
  C   C111      1.0  0.49072562952346027  0.9858996979775015  0.25299030444470105  1.0000
  C   C112      1.0  0.5136080626460924  0.931110537963747  0.252392035659348  1.0000
  C   C113      1.0  0.48084732457221685  0.8779520271379512  0.2516045690776281  1.0000
  C   C114      1.0  0.5024060624453881  0.8247788408259141  0.25245136562435283  1.0000
  C   C115      1.0  0.46785750160078277  0.7713769439337954  0.2527755777880785  1.0000
  C   C116      1.0  0.5053650093322161  0.7310594063286615  0.2554699292312819  1.0000
  C   C117      1.0  0.5627627708588464  0.759344346849858  0.2563169412463608  1.0000
  C   C118      1.0  0.6447558421585597  0.02585223610698513  0.2582980151533221  1.0000
  C   C119      1.0  0.4179406657234993  0.8789660035196933  0.2513273738089695  1.0000
  C   C120      1.0  0.4112504832795166  0.9026911409988829  0.2975224430057111  1.0000
  C   C121      1.0  0.3527200913662797  0.9034145304485363  0.2976676436791764  1.0000
  C   C122      1.0  0.29976889328634826  0.8803615494659313  0.25157420131140634  1.0000
  C   C123      1.0  0.306255130405873  0.8570661629490601  0.2053430239160292  1.0000
  C   C124      1.0  0.36488040897111773  0.8563918251513275  0.20524795337314575  1.0000
  C   C125      1.0  0.2367605524276897  0.8797814094829591  0.25185305360325566  1.0000
  C   C126      1.0  0.6533022081264903  0.0912874518049591  0.2629150477932498  1.0000
  C   C127      1.0  0.6323224022900858  0.10417970809444914  0.21949277566644554  1.0000
  C   C128      1.0  0.6397725888136989  0.16546934951382045  0.22423642752261944  1.0000
  C   C129      1.0  0.668156356629474  0.21468703783020265  0.27249932698160256  1.0000
  C   C130      1.0  0.6893205857391892  0.2023239500644395  0.31599385896191734  1.0000
  C   C131      1.0  0.6820043127030716  0.14103239547878849  0.31119192715652844  1.0000
  C   C132      1.0  0.7531620514334633  0.06553105140347533  0.5924829010798903  1.0000
  C   C133      1.0  0.7251389857227865  0.03961835434319754  0.5395099890092326  1.0000
  C   C134      1.0  0.7547501494140789  0.9380531654238881  0.42660198404399813  1.0000
  C   C135      1.0  0.726777019338435  0.9125975430193592  0.3735732299473539  1.0000
  C   C136      1.0  0.6682450867369809  0.7578323267775532  0.2565040247974792  1.0000
  C   C137      1.0  0.7189026803896965  0.7280982317834701  0.2560282967605119  1.0000
  C   C138      1.0  0.7623566630618726  0.767012689277742  0.25314360738451575  1.0000
  C   C139      1.0  0.7387914516516076  0.8211188553190993  0.2524185740100435  1.0000
  C   C140      1.0  0.7706920585323259  0.8734328256898112  0.2515178516599121  1.0000
  C   C141      1.0  0.750004925915853  0.9274642339368385  0.252340954093647  1.0000
  C   C142      1.0  0.7849364358976272  0.9812303896675801  0.25274971620685677  1.0000
  C   C143      1.0  0.7501542243350556  0.024280315792878888  0.25551708540893253  1.0000
  C   C144      1.0  0.6935662825842996  0.9968015689273388  0.2562824291037701  1.0000
  C   C145      1.0  0.6136219490099961  0.7323427820459045  0.25843204983291196  1.0000
  C   C146      1.0  0.833291307348162  0.8721561786434435  0.2512152329357917  1.0000
  C   C147      1.0  0.8862280662689556  0.8947898702397481  0.2974192582977295  1.0000
  C   C148      1.0  0.9449137503906613  0.8943155959408172  0.2975743365941669  1.0000
  C   C149      1.0  0.9517063168750041  0.8712751213986536  0.2514714719910813  1.0000
  C   C150      1.0  0.8989362636179904  0.8482061125348892  0.2052330686329853  1.0000
  C   C151      1.0  0.8401961487296602  0.8486209769543294  0.20512208273564173  1.0000
  C   C152      1.0  0.014991642388665117  0.8721453217740276  0.2517608086727705  1.0000
  C   C153      1.0  0.6096167464866866  0.6714813969240866  0.262971116536967  1.0000
  C   C154      1.0  0.5871996328405586  0.6151446992808121  0.21954577447647242  1.0000
  C   C155      1.0  0.5844942751721972  0.5585903650591534  0.22426523940169574  1.0000
  C   C156      1.0  0.6043526287136131  0.5576719670547591  0.27252610758175416  1.0000
  C   C157      1.0  0.6266440933168482  0.6135649463223275  0.31603181738464764  1.0000
  C   C158      1.0  0.6291312831532636  0.6700501534411458  0.31122732778938195  1.0000
  C   C159      1.0  0.83934789216989  0.026919428752961567  0.5924972100597543  1.0000
  C   C160      1.0  0.8143734097507078  0.9998617030916537  0.5395208402505531  1.0000
  C   C161      1.0  0.671799021229148  0.9884258004589555  0.42658035027588426  1.0000
  C   C162      1.0  0.6468087460762105  0.9609687920644064  0.37354752056414486  1.0000
  C   C163      1.0  0.0016463045224739642  0.41185084570744834  0.24376781237175754  1.0000
  C   C164      1.0  0.9723979711648594  0.46300083407665243  0.24429977619562498  1.0000
  C   C165      1.0  0.014099617636780795  0.5092741388244022  0.24700868603314063  1.0000
  C   C166      1.0  0.06888751491099045  0.48639168715132547  0.24760463091290322  1.0000
  C   C167      1.0  0.1220468516705466  0.519152797399741  0.2483929331882635  1.0000
  C   C168      1.0  0.1752215848108207  0.49759431238474866  0.2475469448991134  1.0000
  C   C169      1.0  0.2286252252215988  0.5321441236381048  0.24722463033031516  1.0000
  C   C170      1.0  0.26894264421432  0.4946361713279472  0.24453107504010765  1.0000
  C   C171      1.0  0.24065497915488976  0.4372371505046787  0.2436816169446772  1.0000
  C   C172      1.0  0.9741468116284935  0.3552430109961904  0.2416991343758851  1.0000
  C   C173      1.0  0.1210317622923256  0.5820598292494452  0.248669471620488  1.0000
  C   C174      1.0  0.09730518186810147  0.5887501016156094  0.20247430562333343  1.0000
  C   C175      1.0  0.09658204406854058  0.6472800221778244  0.20232958706402127  1.0000
  C   C176      1.0  0.11963571168681852  0.7002317833856184  0.24842282568332053  1.0000
  C   C177      1.0  0.1429277683832879  0.6937451238325282  0.294654965399296  1.0000
  C   C178      1.0  0.14360458652286204  0.6351205492643643  0.2947499399295523  1.0000
  C   C179      1.0  0.1202111036630171  0.7632375272131359  0.2481394098923175  1.0000
  C   C180      1.0  0.9087112934290217  0.34669748551945645  0.23708144569968684  1.0000
  C   C181      1.0  0.8958186580881389  0.3676756083862855  0.280504016055012  1.0000
  C   C182      1.0  0.8345284564253673  0.36022567237433395  0.27576093151220266  1.0000
  C   C183      1.0  0.7853112265895561  0.33183959265953433  0.2274982860314695  1.0000
  C   C184      1.0  0.7976729918623633  0.310676559469904  0.18400261290793196  1.0000
  C   C185      1.0  0.85896528282548  0.3179947893044926  0.1888047048051646  1.0000
  C   C186      1.0  0.934469909859118  0.24683935999566856  0.9075171267102108  1.0000
  C   C187      1.0  0.9603807433530775  0.274861290816965  0.960490368190655  1.0000
  C   C188      1.0  0.061945020625891814  0.24524937373735875  0.0733968474969302  1.0000
  C   C189      1.0  0.08740242171138139  0.273222141265002  0.1264268803015227  1.0000
  C   C190      1.0  0.24216660363184425  0.3317537583714838  0.24349249677911902  1.0000
  C   C191      1.0  0.27190201198840214  0.2810973336987388  0.24396866668449496  1.0000
  C   C192      1.0  0.23298849191497337  0.23764357190563604  0.24685553622957462  1.0000
  C   C193      1.0  0.17888155474091866  0.2612082942614649  0.24758013545748986  1.0000
  C   C194      1.0  0.12656601732127376  0.22930618915304998  0.24847757663457773  1.0000
  C   C195      1.0  0.07253430438390748  0.24999503253510372  0.2476553265346197  1.0000
  C   C196      1.0  0.018767588589746326  0.21506282440964242  0.24724648136365351  1.0000
  C   C197      1.0  0.9757182443339687  0.24984453140192645  0.2444789234511191  1.0000
  C   C198      1.0  0.003196558191213226  0.306431918126883  0.24371295419028632  1.0000
  C   C199      1.0  0.26765700498497585  0.38637832819647855  0.2415679116113409  1.0000
  C   C200      1.0  0.12784168505164226  0.16670631083532336  0.24878081305554645  1.0000
  C   C201      1.0  0.10520672027588059  0.11376829794375003  0.2025777428519788  1.0000
  C   C202      1.0  0.1056785571989352  0.05508389959560842  0.2024244019984849  1.0000
  C   C203      1.0  0.128722754334845  0.04829333185572446  0.24852692270081186  1.0000
  C   C204      1.0  0.15179261752703613  0.1010642253210605  0.2947655707385977  1.0000
  C   C205      1.0  0.15137743530144834  0.159803550731283  0.2948747276189466  1.0000
  C   C206      1.0  0.12785680355563764  0.9850103856025426  0.24823799856038414  1.0000
  C   C207      1.0  0.32851728100062877  0.39038330580403635  0.23702784337710642  1.0000
  C   C208      1.0  0.3848553407479259  0.41280135932613876  0.28045274680062  1.0000
  C   C209      1.0  0.44141039166374446  0.4155076380388607  0.2757340600616658  1.0000
  C   C210      1.0  0.4423282018911721  0.39564743015955633  0.22747262407631302  1.0000
  C   C211      1.0  0.3864346253105778  0.3733557195274458  0.18396791562846457  1.0000
  C   C212      1.0  0.3299495360847899  0.37086952902249953  0.1887721349028482  1.0000
  C   C213      1.0  0.9730781875771014  0.16065276609512597  0.9075031356078186  1.0000
  C   C214      1.0  0.00013715235327546344  0.18562606402163348  0.9604798713246582  1.0000
  C   C215      1.0  0.011571943357161302  0.3281992041044788  0.07341799530242808  1.0000
  C   C216      1.0  0.039029183621714494  0.35318848130761893  0.1264512889708413  1.0000
  C   C217      1.0  0.24431943057224703  0.994328433158728  0.4886453970208819  1.0000
  C   C218      1.0  0.27264031748396184  0.022668561184758566  0.545235438048593  1.0000
  C   C219      1.0  0.005668750989656256  0.755679116098861  0.011354033877040613  1.0000
  C   C220      1.0  0.9773304014974967  0.7273576430465668  0.9547637487170847  1.0000
  C   C221      1.0  0.7556808423252335  0.005670336333253075  0.5113555866030169  1.0000
  C   C222      1.0  0.7273602263384902  0.9773314763886632  0.4547653512252268  1.0000
  C   C223      1.0  0.9943284524236874  0.24431873475243285  0.9886443318848352  1.0000
  C   C224      1.0  0.02266726935524592  0.27263852441175374  0.04523462197880691  1.0000
  N   N1        1.0  0.42735786096397993  0.06009945303174657  0.74578129083951  1.0000
  N   N2        1.0  0.4405135837343651  0.1840074571067021  0.7457472105880498  1.0000
  N   N3        1.0  0.3183490021395699  0.18579759734620194  0.7456447965308045  1.0000
  N   N4        1.0  0.3052738287409936  0.06194582531531275  0.745858525850352  1.0000
  N   N5        1.0  0.9399045587708487  0.5726448439103039  0.7542256004593642  1.0000
  N   N6        1.0  0.81599561406248  0.5594906734891866  0.7542614911173118  1.0000
  N   N7        1.0  0.81420299134399  0.6816508240104896  0.7543573042628398  1.0000
  N   N8        1.0  0.938057029026204  0.694728982222408  0.7541461158398306  1.0000
  N   N9        1.0  0.5726448047493021  0.9399041731265357  0.2542253546226974  1.0000
  N   N10       1.0  0.5594914469933345  0.8159965199078201  0.2542585504878546  1.0000
  N   N11       1.0  0.6816489897359476  0.8142000837560915  0.25435249841889634  1.0000
  N   N12       1.0  0.694729041968401  0.9380567346000962  0.2541436683393672  1.0000
  N   N13       1.0  0.060094062807799366  0.4273543075348983  0.24577046314210804  1.0000
  N   N14       1.0  0.1840025150198414  0.44050790756219266  0.24573873588868622  1.0000
  N   N15       1.0  0.18579926660959967  0.3183497740140099  0.24564427544292045  1.0000
  N   N16       1.0  0.06194202186436124  0.30527065731556763  0.24585224199784514  1.0000
  N   N17       1.0  0.19071409026435057  0.9407383303329697  0.38146131334584515  1.0000
  N   N18       1.0  0.3263182079868443  0.07631920354195638  0.6527103731047461  1.0000
  N   N19       1.0  0.059260185782655087  0.8092884172831137  0.11853997029682971  1.0000
  N   N20       1.0  0.923682663642168  0.6736800573969861  0.8472911802755976  1.0000
  N   N21       1.0  0.8092886640462921  0.05926250979884875  0.6185398333678194  1.0000
  N   N22       1.0  0.673683273846997  0.9236831211765731  0.3472913572690359  1.0000
  N   N23       1.0  0.9407351443684108  0.19071137331227558  0.8814597725472952  1.0000
  N   N24       1.0  0.07631802696899835  0.32631592303622636  0.15270836162819285  1.0000
  O   O1        1.0  0.8095119228417217  0.14141090000677561  0.7912717630483289  1.0000
  O   O2        1.0  0.7657412159902253  0.0997934108304151  0.704648307169393  1.0000
  O   O3        1.0  0.9818953994361408  0.149768673082903  0.7913678112627593  1.0000
  O   O4        1.0  0.9389826747338645  0.10483796152488614  0.7047388746559022  1.0000
  O   O5        1.0  0.8585934428509461  0.19049163280406836  0.7087298640665907  1.0000
  O   O6        1.0  0.900211168054227  0.23425824457982725  0.7953527376412738  1.0000
  O   O7        1.0  0.8502276453101133  0.018105274836301588  0.7086312798694009  1.0000
  O   O8        1.0  0.8951594475671244  0.06101751742035335  0.7952584556510376  1.0000
  O   O9        1.0  0.19049000139064276  0.8585917495430381  0.20872668531704616  1.0000
  O   O10       1.0  0.234256533877975  0.9002049276907302  0.2953487442042828  1.0000
  O   O11       1.0  0.018107829679323163  0.850234949197244  0.20863567397904606  1.0000
  O   O12       1.0  0.06101955282976238  0.8951684134234131  0.2952649998959417  1.0000
  O   O13       1.0  0.14140242952215235  0.8095098338509318  0.2912671620271396  1.0000
  O   O14       1.0  0.09978925513665621  0.7657412615997575  0.2046456017942972  1.0000
  O   O15       1.0  0.1497720564637248  0.9818941551068366  0.29136540315004567  1.0000
  O   O16       1.0  0.10483651689198588  0.9389816950249357  0.204739130156817  1.0000
