data_image0
_chemical_formula_structural       Cu2H36C20O8
_chemical_formula_sum              "Cu2 H36 C20 O8"
_cell_length_a       5.225878992099591
_cell_length_b       10.47986226470006
_cell_length_c       10.879013970596912
_cell_angle_alpha    82.60399297672961
_cell_angle_beta     86.65422505940887
_cell_angle_gamma    86.41016618508354

_space_group_name_H-M_alt    "P 1"
_space_group_IT_number       1

loop_
  _space_group_symop_operation_xyz
  'x, y, z'

loop_
  _atom_site_type_symbol
  _atom_site_label
  _atom_site_symmetry_multiplicity
  _atom_site_fract_x
  _atom_site_fract_y
  _atom_site_fract_z
  _atom_site_occupancy
  Cu  Cu1       1.0  0.20483524312066234  0.04858502677993928  0.9531522727266973  1.0000
  Cu  Cu2       1.0  0.7951984689954089  0.9514097742701678  0.04682996127412765  1.0000
  H   H1        1.0  0.7781008546299971  0.2378871377585554  0.3128259712276318  1.0000
  H   H2        1.0  0.22188749717830092  0.7621026087585817  0.687170095519626  1.0000
  H   H3        1.0  0.1190639009515451  0.23452721934859966  0.3074042734160969  1.0000
  H   H4        1.0  0.8809178432946466  0.7654692597958145  0.6925884100887741  1.0000
  H   H5        1.0  0.1212701350334413  0.4109223298578257  0.1338706762662696  1.0000
  H   H6        1.0  0.8786962821825952  0.5890740859738557  0.8661224453580373  1.0000
  H   H7        1.0  0.9427429582689655  0.5868134519849164  0.2550347090059688  1.0000
  H   H8        1.0  0.057255100950754916  0.4131753384203165  0.7449694731547537  1.0000
  H   H9        1.0  0.11079758330482291  0.4634754050124598  0.3525706430395132  1.0000
  H   H10       1.0  0.889196389328781  0.5365153538157514  0.6474187094124915  1.0000
  H   H11       1.0  0.7699691272364432  0.4733722140305687  0.3574050011098251  1.0000
  H   H12       1.0  0.23004136243073248  0.5266243411438155  0.6425978963470057  1.0000
  H   H13       1.0  0.7172230237845341  0.3721090941654878  0.036521887040386516  1.0000
  H   H14       1.0  0.2827380195920455  0.6278843713421337  0.9634809330730006  1.0000
  H   H15       1.0  0.7121581353079238  0.5333431046149429  0.07150261602029667  1.0000
  H   H16       1.0  0.2878182302725065  0.4666504526596853  0.9284924090230362  1.0000
  H   H17       1.0  0.5335110334022629  0.41683419368958846  0.16805393153467924  1.0000
  H   H18       1.0  0.4664546537154166  0.5831679721589255  0.831946790647045  1.0000
  H   H19       1.0  0.426112451186249  0.28127175379464836  0.7842445522705503  1.0000
  H   H20       1.0  0.5739430545529275  0.7187326082120861  0.2157800395680738  1.0000
  H   H21       1.0  0.7203314345206664  0.3242643747311079  0.7022186220140654  1.0000
  H   H22       1.0  0.2796935950867692  0.6757534880068619  0.2977721076593411  1.0000
  H   H23       1.0  0.3969185057966769  0.09754549767713169  0.6737850259914565  1.0000
  H   H24       1.0  0.6030908956607632  0.9024596416194866  0.32623984791800353  1.0000
  H   H25       1.0  0.7261904026371012  0.0433811884259327  0.5068125760963156  1.0000
  H   H26       1.0  0.27380508585453356  0.956627817736191  0.4931947577352603  1.0000
  H   H27       1.0  0.8536795422463329  0.018267038405262795  0.6562631882317546  1.0000
  H   H28       1.0  0.14633485623729578  0.9817439955811125  0.34373785490020486  1.0000
  H   H29       1.0  0.9296565027235034  0.15637338291485753  0.5523455158685451  1.0000
  H   H30       1.0  0.0703327441601402  0.8436394755309564  0.4476560138701657  1.0000
  H   H31       1.0  0.3767678118426474  0.20918324001878835  0.454779608987316  1.0000
  H   H32       1.0  0.6232186367559082  0.7908064238918016  0.5452358245202404  1.0000
  H   H33       1.0  0.5562848913847275  0.3344169194806028  0.4955512159911422  1.0000
  H   H34       1.0  0.443690132967248  0.665587195497082  0.5044536051227198  1.0000
  H   H35       1.0  0.24402572109853793  0.3099176447131597  0.5649685064249822  1.0000
  H   H36       1.0  0.7559465802174045  0.6900777493834553  0.43504571480622894  1.0000
  C   C1        1.0  0.9664884040931552  0.16214134646050135  0.15607575671381815  1.0000
  C   C2        1.0  0.033498107688707514  0.8378628622399162  0.8439167807657099  1.0000
  C   C3        1.0  0.9493819101907304  0.2562184826371308  0.2513737733655006  1.0000
  C   C4        1.0  0.05060162613966674  0.7437789752062542  0.7486169034681113  1.0000
  C   C5        1.0  0.9446579835778833  0.39775699485692684  0.19327673143813232  1.0000
  C   C6        1.0  0.05530986218139591  0.6022432657901858  0.8067204828406958  1.0000
  C   C7        1.0  0.9430729381666296  0.48519369747753416  0.29532462833195433  1.0000
  C   C8        1.0  0.056918879445099414  0.5147989452113747  0.7046737497359103  1.0000
  C   C9        1.0  0.714497560284599  0.4319009532987934  0.11256312500493239  1.0000
  C   C10       1.0  0.2854725703239964  0.5680964171348961  0.8874362117526361  1.0000
  C   C11       1.0  0.7547631246857875  0.1607357730751744  0.8394140909604957  1.0000
  C   C12       1.0  0.24530553013675413  0.8392706712627744  0.1605841428591219  1.0000
  C   C13       1.0  0.6050761557709805  0.2433079498024284  0.7409654288084369  1.0000
  C   C14       1.0  0.39496481983942994  0.7567051223238652  0.2590346222771558  1.0000
  C   C15       1.0  0.5401004830582039  0.1666910159698176  0.6355188216647107  1.0000
  C   C16       1.0  0.45991514070203715  0.8333103848601984  0.36448242853514046  1.0000
  C   C17       1.0  0.7752528815382719  0.09190924084262521  0.585287905536397  1.0000
  C   C18       1.0  0.2247582981277674  0.908096958958993  0.41471381046878963  1.0000
  C   C19       1.0  0.4214214892080078  0.2604674801509717  0.5321807850870357  1.0000
  C   C20       1.0  0.5785553296413256  0.7395375992985436  0.4678257078308762  1.0000
  O   O1        1.0  0.15487569952927768  0.17190699554498678  0.07619144714496431  1.0000
  O   O2        1.0  0.8450916498451663  0.8280971553552164  0.9237961202709073  1.0000
  O   O3        1.0  0.2072543983795043  0.9194066267690604  0.835695440324791  1.0000
  O   O4        1.0  0.7927490892580664  0.0805696339533455  0.1643146950929406  1.0000
  O   O5        1.0  0.9965771177826068  0.17051596884122944  0.8367807619122588  1.0000
  O   O6        1.0  0.003506892103843025  0.8294752153010664  0.1631922223056179  1.0000
  O   O7        1.0  0.37100069577466144  0.9173697896674187  0.08284230034909264  1.0000
  O   O8        1.0  0.6290615978683362  0.08264145284161369  0.917154614803124  1.0000
