data_image0
_chemical_formula_structural       Ag2H16C24N10O8
_chemical_formula_sum              "Ag2 H16 C24 N10 O8"
_cell_length_a       8.46512135027285
_cell_length_b       8.51935489721629
_cell_length_c       9.845141678219681
_cell_angle_alpha    74.73418463861647
_cell_angle_beta     78.45918727622607
_cell_angle_gamma    69.94158995731202

_space_group_name_H-M_alt    "P 1"
_space_group_IT_number       1

loop_
  _space_group_symop_operation_xyz
  'x, y, z'

loop_
  _atom_site_type_symbol
  _atom_site_label
  _atom_site_symmetry_multiplicity
  _atom_site_fract_x
  _atom_site_fract_y
  _atom_site_fract_z
  _atom_site_occupancy
  Ag  Ag1       1.0  0.4234598021361504  0.7051318292643955  0.534374834154029  1.0000
  Ag  Ag2       1.0  0.5765407503681387  0.2948714504981567  0.4656261403503025  1.0000
  H   H1        1.0  0.14565617903750183  0.6263718107996965  0.42008349420537877  1.0000
  H   H2        1.0  0.8543439739970535  0.37362887878967393  0.5799151046637976  1.0000
  H   H3        1.0  0.032794011306520994  0.6719894652951339  0.1918218175266375  1.0000
  H   H4        1.0  0.9672057611671079  0.3280086394468285  0.8081764326220338  1.0000
  H   H5        1.0  0.38952676192466384  0.9495000852053079  0.9880599179352529  1.0000
  H   H6        1.0  0.6104689812757087  0.05050308660410249  0.011939911844130834  1.0000
  H   H7        1.0  0.48039026966002757  0.9011111085553695  0.22668577218911415  1.0000
  H   H8        1.0  0.5196042759415745  0.0988920375972029  0.7733142781376898  1.0000
  H   H9        1.0  0.5391092279337498  0.6371675212150693  0.8357679375283169  1.0000
  H   H10       1.0  0.4608921932023621  0.3628293415714552  0.1642343679968974  1.0000
  H   H11       1.0  0.7678929556924317  0.6730751117285366  0.9398504053989427  1.0000
  H   H12       1.0  0.2321108322780461  0.3269217943830043  0.06014841865946611  1.0000
  H   H13       1.0  0.9517425711232617  0.8895962317463032  0.5116938518049922  1.0000
  H   H14       1.0  0.048258770055681986  0.11040448083701192  0.4883035130594422  1.0000
  H   H15       1.0  0.7187309884754215  0.8439931831810128  0.42744853601586646  1.0000
  H   H16       1.0  0.2812655485320121  0.15601129521196808  0.5725518645787204  1.0000
  C   C1        1.0  0.19510972939908558  0.6983108314945311  0.3219965915415628  1.0000
  C   C2        1.0  0.80489168228263  0.3016860286290992  0.6780047005263371  1.0000
  C   C3        1.0  0.13559526028734578  0.7205354000900146  0.19441515866067494  1.0000
  C   C4        1.0  0.8644053764961012  0.2794601587758337  0.8055875895066577  1.0000
  C   C5        1.0  0.20787491519022427  0.8099037871008293  0.07091256884259423  1.0000
  C   C6        1.0  0.7921253178015064  0.19009305269174354  0.929090970687362  1.0000
  C   C7        1.0  0.33375035450183077  0.87681474934805  0.08173940797679081  1.0000
  C   C8        1.0  0.6662482255054127  0.12318720349988152  0.9182632431743941  1.0000
  C   C9        1.0  0.3831376697316386  0.8508269758934617  0.21403489983966037  1.0000
  C   C10       1.0  0.6168601164685582  0.14917367037089238  0.7859671804963283  1.0000
  C   C11       1.0  0.15469226250509382  0.8338368356671567  0.9339027332799358  1.0000
  C   C12       1.0  0.8453071250856039  0.1661625553273112  0.0660983351459948  1.0000
  C   C13       1.0  0.012081068319268704  0.8174872703082556  0.78429273385958  1.0000
  C   C14       1.0  0.987922306405089  0.18251091406711586  0.2157058681041376  1.0000
  C   C15       1.0  0.6338283713913099  0.6923991903942979  0.7685799094671708  1.0000
  C   C16       1.0  0.3661750033330548  0.30759899398107393  0.23141869249654695  1.0000
  C   C17       1.0  0.7625930889489324  0.7108755811241922  0.8255179078164616  1.0000
  C   C18       1.0  0.2374159121171786  0.2891201520137585  0.17448126960427146  1.0000
  C   C19       1.0  0.8808335404233956  0.7828836245509478  0.7329937200103772  1.0000
  C   C20       1.0  0.11917106026292856  0.2171145934699368  0.267007701777878  1.0000
  C   C21       1.0  0.8653815280419793  0.8308968891263434  0.5876159008374842  1.0000
  C   C22       1.0  0.13461985095455734  0.16910383410854019  0.4123855178562295  1.0000
  C   C23       1.0  0.7332582432253644  0.8075158026710412  0.5400129841487881  1.0000
  C   C24       1.0  0.26674109277134755  0.1924874461088919  0.4599861839883275  1.0000
  N   N1        1.0  0.3165328144717775  0.7617839412152421  0.33289612393633655  1.0000
  N   N2        1.0  0.6834625292588683  0.2382166404209869  0.6671013302078918  1.0000
  N   N3        1.0  0.21292157775003048  0.9082494592370978  0.8085603844519939  1.0000
  N   N4        1.0  0.7870769833484275  0.09175248828505293  0.19144023978455488  1.0000
  N   N5        1.0  0.12152537623681772  0.8968533087162883  0.7118630126989486  1.0000
  N   N6        1.0  0.8784764065514352  0.10314613359186349  0.28813761463214144  1.0000
  N   N7        1.0  0.6179812443021574  0.7398441645267368  0.6287474953319574  1.0000
  N   N8        1.0  0.3820177111336278  0.26015649940578817  0.3712513240846461  1.0000
  N   N9        1.0  0.2762128759195051  0.4400031599619395  0.7632277875137917  1.0000
  N   N10       1.0  0.7237860889706694  0.5599975066334792  0.2367720453601265  1.0000
  O   O1        1.0  0.026945731503275262  0.7738694164657786  0.9259427865967355  1.0000
  O   O2        1.0  0.9730576715842716  0.22612877589826752  0.0740588557389402  1.0000
  O   O3        1.0  0.26177559494785646  0.49094047085260684  0.6302170161401364  1.0000
  O   O4        1.0  0.7382201387981269  0.50906269829391  0.3697818001819257  1.0000
  O   O5        1.0  0.3486096547575669  0.5090785308871519  0.8207197012566566  1.0000
  O   O6        1.0  0.6513888968864946  0.4909234139720979  0.1792799095225703  1.0000
  O   O7        1.0  0.2193321003889892  0.32029674663710483  0.8347595967696576  1.0000
  O   O8        1.0  0.7806644693036233  0.6797038686446301  0.1652406771991082  1.0000
