data_image0
_chemical_formula_structural       Ca8H152C168N24O64
_chemical_formula_sum              "Ca8 H152 C168 N24 O64"
_cell_length_a       13.62620019672773
_cell_length_b       21.07983434810879
_cell_length_c       21.08239516391509
_cell_angle_alpha    83.9890263754382
_cell_angle_beta     71.15326315572274
_cell_angle_gamma    71.15674881957898

_space_group_name_H-M_alt    "P 1"
_space_group_IT_number       1

loop_
  _space_group_symop_operation_xyz
  'x, y, z'

loop_
  _atom_site_type_symbol
  _atom_site_label
  _atom_site_symmetry_multiplicity
  _atom_site_fract_x
  _atom_site_fract_y
  _atom_site_fract_z
  _atom_site_occupancy
  Ca  Ca1       1.0  0.6278663414779684  0.18304076129067678  0.8051983333977831  1.0000
  Ca  Ca2       1.0  0.43312484762694947  0.19471827158863414  0.683027062651938  1.0000
  Ca  Ca3       1.0  0.11608220633362955  0.3169676968093711  0.694772301202889  1.0000
  Ca  Ca4       1.0  0.8109320283631543  0.3052695931160229  0.8169309761429417  1.0000
  Ca  Ca5       1.0  0.3721332230176914  0.8169587386396696  0.1948049367753342  1.0000
  Ca  Ca6       1.0  0.5668724232679383  0.8052787218549965  0.316975878542749  1.0000
  Ca  Ca7       1.0  0.8839225913362085  0.6830323055023584  0.30522701832106236  1.0000
  Ca  Ca8       1.0  0.18907277964805042  0.6947334165496598  0.18306993548499406  1.0000
  H   H1        1.0  0.2187658955688504  0.24438376504617304  0.8081342144315258  1.0000
  H   H2        1.0  0.026674118021269067  0.19187406867693105  0.7443258193783251  1.0000
  H   H3        1.0  0.7713160112568428  0.25553588957455986  0.6917749946950735  1.0000
  H   H4        1.0  0.4631900705804313  0.3081278285698658  0.7555861808017498  1.0000
  H   H5        1.0  0.7812339847858495  0.7556162370900027  0.19186381835871202  1.0000
  H   H6        1.0  0.9733226941821516  0.8081274370264921  0.25567220525532974  1.0000
  H   H7        1.0  0.22868677219234726  0.7444651153932964  0.3082227318633031  1.0000
  H   H8        1.0  0.5368134643234868  0.6918716726442184  0.24441154607972487  1.0000
  H   H9        1.0  0.9671776787865481  0.2605917264760009  0.9970698687477082  1.0000
  H   H10       1.0  0.9637197272305329  0.0029673540040064997  0.7606540844757534  1.0000
  H   H11       1.0  0.7248577961086796  0.23913321556310754  0.5028610532933584  1.0000
  H   H12       1.0  0.22736095075784843  0.49695601023347524  0.7396003912275975  1.0000
  H   H13       1.0  0.03282732254791646  0.7394077741675318  0.0029318321757045925  1.0000
  H   H14       1.0  0.036277350341101966  0.9970331484617746  0.2393480674234638  1.0000
  H   H15       1.0  0.2751443437809088  0.7608637789887067  0.49713777651813723  1.0000
  H   H16       1.0  0.7726420831762509  0.5030444934831236  0.2603973354384835  1.0000
  H   H17       1.0  0.29934383290615324  0.23112702516544906  0.9909124492453998  1.0000
  H   H18       1.0  0.2898144746704432  0.009030328369661299  0.7311212534975766  1.0000
  H   H19       1.0  0.02119605801348706  0.2689563877281387  0.5089620258844363  1.0000
  H   H20       1.0  0.5302232630863487  0.4910710496538683  0.7686822575339249  1.0000
  H   H21       1.0  0.7006633802715073  0.7688744818436604  0.009082911580492223  1.0000
  H   H22       1.0  0.7101813170394919  0.9909721792986514  0.2688796269041163  1.0000
  H   H23       1.0  0.9788019038900372  0.7310496295657883  0.49103569176349277  1.0000
  H   H24       1.0  0.4697772468160436  0.5089284505178638  0.23132006325588614  1.0000
  H   H25       1.0  0.1279595768059991  0.0802557568049451  0.1888207298501285  1.0000
  H   H26       1.0  0.31664293647133973  0.8112741153182909  0.5803177331437226  1.0000
  H   H27       1.0  0.8970916541905326  0.4196492435844661  0.3110866299807  1.0000
  H   H28       1.0  0.20797242539625674  0.6887212217742797  0.9196779826936209  1.0000
  H   H29       1.0  0.8720433774994163  0.9197492584582603  0.8111763681467962  1.0000
  H   H30       1.0  0.6833567216649072  0.18872538544592737  0.4196807744458653  1.0000
  H   H31       1.0  0.1029055838959606  0.5803522618227177  0.6889133012530665  1.0000
  H   H32       1.0  0.7920291904277333  0.3112792815802408  0.08032116804742627  1.0000
  H   H33       1.0  0.958025877480246  0.41813775970602757  0.18441547064771407  1.0000
  H   H34       1.0  0.14242098257757596  0.8154040345528913  0.9181500017518546  1.0000
  H   H35       1.0  0.06061051413863788  0.08178025769549889  0.3154749814353721  1.0000
  H   H36       1.0  0.3760561278007512  0.6845958205650503  0.5818276650781655  1.0000
  H   H37       1.0  0.041960761138078485  0.5818657497406363  0.8155855390463529  1.0000
  H   H38       1.0  0.8575878806412548  0.18459596852688515  0.08184679130557986  1.0000
  H   H39       1.0  0.939388000096933  0.9182212481725074  0.6845228901900526  1.0000
  H   H40       1.0  0.6239425514916165  0.3154031789040204  0.4181705209356892  1.0000
  H   H41       1.0  0.4843327168854825  0.05756996909403261  0.7757521115420475  1.0000
  H   H42       1.0  0.26036974301878485  0.2243712286993115  0.5575584709688997  1.0000
  H   H43       1.0  0.8178233720394771  0.44261108410400846  0.7242148400712267  1.0000
  H   H44       1.0  0.5419756133011402  0.2757196805363549  0.9423085623121212  1.0000
  H   H45       1.0  0.5156702881534087  0.9424265242284662  0.2242468792188674  1.0000
  H   H46       1.0  0.7396302376473258  0.7756302765981501  0.4424433746984705  1.0000
  H   H47       1.0  0.18217652774046642  0.557384906705444  0.2757898549307498  1.0000
  H   H48       1.0  0.45802098639644123  0.7242793181317564  0.0576932682267568  1.0000
  H   H49       1.0  0.5126359129136303  0.07560964224317959  0.9368406364839288  1.0000
  H   H50       1.0  0.4491785590313099  0.06311482563504  0.5756122687554637  1.0000
  H   H51       1.0  0.025025787584894484  0.4243063935406256  0.5631307651000411  1.0000
  H   H52       1.0  0.5880084052621016  0.4368798337252358  0.9242745384770714  1.0000
  H   H53       1.0  0.48736216142696526  0.9243873515405882  0.06316071979407666  1.0000
  H   H54       1.0  0.5508238936755345  0.9368861791133792  0.4243865680279413  1.0000
  H   H55       1.0  0.9749723074384347  0.5756966149510416  0.4368737753859476  1.0000
  H   H56       1.0  0.41198677632537783  0.5631191645807974  0.07572871613677991  1.0000
  H   H57       1.0  0.4387457559830564  0.016638923128667195  0.9723964192856374  1.0000
  H   H58       1.0  0.4108685155149629  0.02766501959379749  0.5165717884989931  1.0000
  H   H59       1.0  0.9278780751686285  0.48331027044753927  0.5274933450326034  1.0000
  H   H60       1.0  0.4552509880819924  0.47238294339451414  0.983274257073326  1.0000
  H   H61       1.0  0.5612507248492732  0.9833575693380039  0.027604454574920053  1.0000
  H   H62       1.0  0.5891333225274878  0.9723359851326732  0.48342688744270385  1.0000
  H   H63       1.0  0.07211835125968218  0.5166932389333071  0.47251261942065537  1.0000
  H   H64       1.0  0.5447451389122192  0.5276160551529044  0.016728048157212006  1.0000
  H   H65       1.0  0.367233717321703  0.10384683561670727  0.9725078867916964  1.0000
  H   H66       1.0  0.33927274156668824  0.027546340552902396  0.6037481434888505  1.0000
  H   H67       1.0  0.9433411138454983  0.3961363836118679  0.5275351850380616  1.0000
  H   H68       1.0  0.4707633108368726  0.47253567385001105  0.8960866142854087  1.0000
  H   H69       1.0  0.6327630942529721  0.8961496570694012  0.027491876843839694  1.0000
  H   H70       1.0  0.6607288742573089  0.9724541628016183  0.3962510072521964  1.0000
  H   H71       1.0  0.05665767609966087  0.6038671263724423  0.4724684059569172  1.0000
  H   H72       1.0  0.5292336813066498  0.5274628234680917  0.10391585189453423  1.0000
  H   H73       1.0  0.282354948713909  0.034523943192319  0.9273051537185353  1.0000
  H   H74       1.0  0.20923702232532557  0.07305376232883279  0.5343808265570615  1.0000
  H   H75       1.0  0.7439722740308382  0.4657610454872055  0.5727471510014296  1.0000
  H   H76       1.0  0.3166804404650063  0.4271876609667445  0.9655202276829586  1.0000
  H   H77       1.0  0.7176456259338692  0.9654715474191848  0.0726936685825663  1.0000
  H   H78       1.0  0.7907658228274528  0.9269467410695782  0.4656186458674156  1.0000
  H   H79       1.0  0.256029743951707  0.5342369508539447  0.4272559664865554  1.0000
  H   H80       1.0  0.683316187499031  0.5728103350781524  0.03448207776297345  1.0000
  H   H81       1.0  0.3479317171367597  0.0016451758354704997  0.8444984893922154  1.0000
  H   H82       1.0  0.19232585865427157  0.15591175908639338  0.5015456274474843  1.0000
  H   H83       1.0  0.6941073610235977  0.4985343093545749  0.6555936072763515  1.0000
  H   H84       1.0  0.34957625318237  0.3443489994067192  0.9983955314051016  1.0000
  H   H85       1.0  0.6520701953636914  0.9983498136674169  0.15550001916663797  1.0000
  H   H86       1.0  0.8076750339814468  0.8440892453986919  0.4984539978775259  1.0000
  H   H87       1.0  0.3058920332445824  0.5014661932977303  0.3444085524563505  1.0000
  H   H88       1.0  0.6504194761952249  0.6556489968137312  0.0016053421323718117  1.0000
  H   H89       1.0  0.27699238629609374  0.08896427063768898  0.8570110009581385  1.0000
  H   H90       1.0  0.1339076110367472  0.14331797800066684  0.5888546702899333  1.0000
  H   H91       1.0  0.7228354320254412  0.4112529095423054  0.6429997093105302  1.0000
  H   H92       1.0  0.36570247989751425  0.3569208014564111  0.9110982527171602  1.0000
  H   H93       1.0  0.7230079378667682  0.9110317212250791  0.14298782123526615  1.0000
  H   H94       1.0  0.8660939245298135  0.8566820238831527  0.41114559078383917  1.0000
  H   H95       1.0  0.27716344271907906  0.5887475925723747  0.3570053064055969  1.0000
  H   H96       1.0  0.6342961525745637  0.6430781975957203  0.08890231458845929  1.0000
  H   H97       1.0  0.7732770855109121  0.19395891762739836  0.934074069793617  1.0000
  H   H98       1.0  0.7073078732726683  0.06572084566182919  0.693911564195318  1.0000
  H   H99       1.0  0.40158326184243265  0.3060058229631366  0.5656975966993727  1.0000
  H   H100      1.0  0.9675680207703864  0.43417362144878524  0.8061165409663645  1.0000
  H   H101      1.0  0.22671374660552604  0.8060400801080828  0.06593044022000066  1.0000
  H   H102      1.0  0.29268974691839844  0.9342771510413922  0.3060874105755289  1.0000
  H   H103      1.0  0.5984163212070681  0.6939946800073642  0.4343028172749328  1.0000
  H   H104      1.0  0.03243239916196223  0.5658273829156072  0.193883559050299  1.0000
  H   H105      1.0  0.7530923724770632  0.03563088701171321  0.8980934257062785  1.0000
  H   H106      1.0  0.651051801587897  0.1019721413384715  0.5356407729675112  1.0000
  H   H107      1.0  0.18681215411431384  0.46410872327570024  0.6019803726399361  1.0000
  H   H108      1.0  0.7887724585323563  0.39798750932632027  0.9641972429974289  1.0000
  H   H109      1.0  0.24690830615266193  0.9643676117876151  0.10190222611527128  1.0000
  H   H110      1.0  0.34894729841686717  0.8980253541573829  0.4643585235944628  1.0000
  H   H111      1.0  0.8131878630307342  0.5358897750847476  0.39801749963167055  1.0000
  H   H112      1.0  0.21122915729163344  0.6020129940282003  0.03580190774361817  1.0000
  H   H113      1.0  0.788654768951218  0.0021109143207099  0.9721789278811955  1.0000
  H   H114      1.0  0.7605611023932966  0.0279074371755499  0.5020445722044045  1.0000
  H   H115      1.0  0.26259103996104466  0.4978542686065736  0.5279330278484409  1.0000
  H   H116      1.0  0.7906309662823219  0.47205221738970954  0.9978240550514599  1.0000
  H   H117      1.0  0.21134437270315223  0.9978850779151001  0.027817191337007247  1.0000
  H   H118      1.0  0.23943615361829257  0.9720900582544659  0.4979542418324242  1.0000
  H   H119      1.0  0.737409152582167  0.5021447307088918  0.4720667509155875  1.0000
  H   H120      1.0  0.2093704555896708  0.5279467819696463  0.0021760453959914017  1.0000
  H   H121      1.0  0.8930798856551191  0.9937653363010668  0.8942576528441535  1.0000
  H   H122      1.0  0.787203213174159  0.1058046239512791  0.4937645867502809  1.0000
  H   H123      1.0  0.28092735426418586  0.5061237490894185  0.6058262041657941  1.0000
  H   H124      1.0  0.8866311956217032  0.39412990984401114  0.006289227692597938  1.0000
  H   H125      1.0  0.10692024518449726  0.006234164583851499  0.1057403800537742  1.0000
  H   H126      1.0  0.21279504994775764  0.8941923701506764  0.506235023769328  1.0000
  H   H127      1.0  0.7190694913763735  0.4938782576677667  0.3941730914269074  1.0000
  H   H128      1.0  0.11336983380435567  0.6058695908653532  0.9937102371137881  1.0000
  H   H129      1.0  0.9264686313826827  0.1410022575897472  0.9497892004627673  1.0000
  H   H130      1.0  0.8761726469848484  0.050019841900322604  0.6409575437708739  1.0000
  H   H131      1.0  0.5173970312876791  0.3592319604888984  0.5497945751062971  1.0000
  H   H132      1.0  0.06757378201383785  0.4498187843102527  0.8593823009024462  1.0000
  H   H133      1.0  0.0735273819169606  0.8589957384332083  0.050212944141449604  1.0000
  H   H134      1.0  0.12382439197896382  0.9499786558347124  0.3590425411173043  1.0000
  H   H135      1.0  0.48260263718993474  0.6407705476292732  0.45020552458727553  1.0000
  H   H136      1.0  0.9324259199009147  0.5501842248616812  0.1406190697501728  1.0000
  H   H137      1.0  0.9956655592239515  0.05776579138582601  0.9175526913063834  1.0000
  H   H138      1.0  0.9131920645116692  0.082288594272967  0.5577301538948803  1.0000
  H   H139      1.0  0.47097389852459043  0.4424712745441111  0.5820407755159992  1.0000
  H   H140      1.0  0.053207827647128295  0.41750775283487207  0.9426352612407528  1.0000
  H   H141      1.0  0.0043302035907829195  0.9422327058883864  0.0824494531901365  1.0000
  H   H142      1.0  0.08680458200620214  0.9177104048120767  0.44226929535223286  1.0000
  H   H143      1.0  0.5290249947737635  0.5575302306107162  0.417961384001309  1.0000
  H   H144      1.0  0.9467913681271155  0.5824947551626065  0.05736531314447995  1.0000
  H   H145      1.0  0.9149644705761587  0.06992625533962378  0.0037015123046301806  1.0000
  H   H146      1.0  0.9184960560393451  0.9961440558040449  0.5699107980211552  1.0000
  H   H147      1.0  0.4882274433721107  0.43028265001227334  0.495951210261758  1.0000
  H   H148      1.0  0.9847430002774828  0.5036727989785348  0.9303994314259966  1.0000
  H   H149      1.0  0.08503056387961289  0.9300712393881837  0.9963003107238536  1.0000
  H   H150      1.0  0.08150329962101202  0.0038544421175216994  0.4300892947005083  1.0000
  H   H151      1.0  0.5117746035056431  0.5697193567229843  0.5040506431314  1.0000
  H   H152      1.0  0.015256001544763403  0.4963282050237793  0.06960209266564017  1.0000
  C   C1        1.0  0.3898062066000774  0.2200006721397898  0.8577011196208205  1.0000
  C   C2        1.0  0.24722812986521353  0.142296854742419  0.7200287708446851  1.0000
  C   C3        1.0  0.9674767282075724  0.27993723188533437  0.6422191211024995  1.0000
  C   C4        1.0  0.6098383286032386  0.3577879686382133  0.7798216468882304  1.0000
  C   C5        1.0  0.6101970778189313  0.7799993303255518  0.14229660715295717  1.0000
  C   C6        1.0  0.7527702855590945  0.8577031466147316  0.27997306731228383  1.0000
  C   C7        1.0  0.0325233275452916  0.7200632712058591  0.3577808181801458  1.0000
  C   C8        1.0  0.3901616751586515  0.6422110303590571  0.22017987763418745  1.0000
  C   C9        1.0  0.9988893702892623  0.2672194852545644  0.8648504456820804  1.0000
  C   C10       1.0  0.8635023171659525  0.13520856911785734  0.767176256111  1.0000
  C   C11       1.0  0.6309668122654128  0.23268236994844932  0.635112610881059  1.0000
  C   C12       1.0  0.2660208661443805  0.3647464273144649  0.732895053973138  1.0000
  C   C13       1.0  0.001111584050043824  0.7327810176610681  0.13515092550902347  1.0000
  C   C14       1.0  0.1364934559901485  0.8647929355103084  0.23282748048950447  1.0000
  C   C15       1.0  0.36904062187320347  0.7673096123979946  0.36488575314923827  1.0000
  C   C16       1.0  0.7339820355413094  0.6352520708375237  0.26710536826544024  1.0000
  C   C17       1.0  0.2710109927569703  0.23495290545058367  0.8957550985437592  1.0000
  C   C18       1.0  0.16648511790072704  0.10422266107070748  0.7349410542691359  1.0000
  C   C19       1.0  0.9016910271903813  0.26499459667680003  0.6041329214648671  1.0000
  C   C20       1.0  0.5059093373996859  0.39583615200947253  0.764939017491109  1.0000
  C   C21       1.0  0.7289918992161049  0.7650475983647596  0.10424199258894619  1.0000
  C   C22       1.0  0.8335110328180095  0.8957788441938348  0.26505919081456847  1.0000
  C   C23       1.0  0.0983064902762292  0.7350104178732195  0.3958657457817694  1.0000
  C   C24       1.0  0.4940923869481964  0.6041638501925348  0.23505949782426686  1.0000
  C   C25       1.0  0.19347104658189795  0.2448198940050119  0.8626323393618094  1.0000
  C   C26       1.0  0.05586358139399266  0.1373630758575715  0.7447781813296147  1.0000
  C   C27       1.0  0.8009546553377123  0.2550885846938513  0.6372709012775744  1.0000
  C   C28       1.0  0.4382557521726297  0.36264316859918466  0.7551802829549744  1.0000
  C   C29       1.0  0.8065321575796743  0.7551796069896283  0.1373664977446865  1.0000
  C   C30       1.0  0.9441352167636267  0.8626384298129323  0.2552209613625536  1.0000
  C   C31       1.0  0.1990450316937426  0.7449149264644674  0.3627263422171794  1.0000
  C   C32       1.0  0.561749484763446  0.6373563327794828  0.24481729091827018  1.0000
  C   C33       1.0  0.08401899186490146  0.2548341256967888  0.8991342652301668  1.0000
  C   C34       1.0  0.9828619973075874  0.10087276713957043  0.7548068520054728  1.0000
  C   C35       1.0  0.738020474889616  0.24501375247005797  0.6007775662743029  1.0000
  C   C36       1.0  0.3386937537929242  0.3990872748024329  0.7452755370020371  1.0000
  C   C37       1.0  0.9159838532878767  0.745166377701615  0.10086520719431037  1.0000
  C   C38       1.0  0.017136025670780135  0.899127735567596  0.24519435051043106  1.0000
  C   C39       1.0  0.2619797696445687  0.7549867509393166  0.39922062724994584  1.0000
  C   C40       1.0  0.6613106231645247  0.6009142314825197  0.2547226719737949  1.0000
  C   C41       1.0  0.052289571114677455  0.25426199844749675  0.9691077864957549  1.0000
  C   C42       1.0  0.020956599290492896  0.030893529161929195  0.754288831625189  1.0000
  C   C43       1.0  0.7756438861923128  0.24554475205023607  0.530804861501494  1.0000
  C   C44       1.0  0.30623255135860455  0.46906555940363154  0.7458564073091054  1.0000
  C   C45       1.0  0.9477159549141306  0.7457390064106448  0.030891854496225356  1.0000
  C   C46       1.0  0.9790437069472875  0.9691064726779998  0.24571110776515329  1.0000
  C   C47       1.0  0.22435660882678107  0.7544552501078812  0.4691933321304517  1.0000
  C   C48       1.0  0.6937725436164471  0.5309339420737801  0.2541405310307709  1.0000
  C   C49       1.0  0.12952385480959802  0.24667846981931515  0.0014299725935131874  1.0000
  C   C50       1.0  0.130498240581673  0.9985528308211542  0.746673866425688  1.0000
  C   C51       1.0  0.8775348315359394  0.2532335934077992  0.4984748274453068  1.0000
  C   C52       1.0  0.3758756297457777  0.5014385203500992  0.753322718197353  1.0000
  C   C53       1.0  0.8704811419829281  0.7533245401645557  0.998569193276019  1.0000
  C   C54       1.0  0.8694978247089437  0.0014466692957170997  0.25332669293874943  1.0000
  C   C55       1.0  0.12246636357566125  0.7467684139199376  0.5015232127476281  1.0000
  C   C56       1.0  0.6241282976040806  0.4985604795139764  0.24667564432519373  1.0000
  C   C57       1.0  0.23840395613274976  0.23744146886338774  0.9657417560316759  1.0000
  C   C58       1.0  0.20373431846060427  0.0342382173129607  0.7374277962058571  1.0000
  C   C59       1.0  0.9414653607405654  0.26255172793416637  0.5341523076335761  1.0000
  C   C60       1.0  0.47564906473890994  0.46582016169391216  0.762442724321808  1.0000
  C   C61       1.0  0.7616024535992028  0.7625600378055921  0.034255189710897596  1.0000
  C   C62       1.0  0.7962631366736658  0.9657622857891967  0.2625708641765598  1.0000
  C   C63       1.0  0.05853081887337916  0.7374537877244761  0.4658466733553084  1.0000
  C   C64       1.0  0.5243534162343906  0.5341798404312925  0.23755658736865118  1.0000
  C   C65       1.0  0.04856743792529982  0.3110934631616402  0.1046149337793167  1.0000
  C   C66       1.0  0.15303218697315643  0.8952970809323091  0.8110936537103582  1.0000
  C   C67       1.0  0.9640800432261827  0.18883309162377768  0.39527433280392904  1.0000
  C   C68       1.0  0.3592298733765347  0.6046962540622473  0.6888887088522467  1.0000
  C   C69       1.0  0.9514277628447656  0.6889115512018547  0.8953837256338276  1.0000
  C   C70       1.0  0.8469721848136158  0.104702921675667  0.18890375921347402  1.0000
  C   C71       1.0  0.035919738945999174  0.8111704190188576  0.6047259275159648  1.0000
  C   C72       1.0  0.6407718509713475  0.3953037481397601  0.3111098064631291  1.0000
  C   C73       1.0  0.11251793740468946  0.18521453184802533  0.10630586501201832  1.0000
  C   C74       1.0  0.2186201716131819  0.8936991131903224  0.6852369994489819  1.0000
  C   C75       1.0  0.9042316412326485  0.3147043370336958  0.39357328697246885  1.0000
  C   C76       1.0  0.2973033727867218  0.6063040407102348  0.8147580753263455  1.0000
  C   C77       1.0  0.8874926953493231  0.8147914865211802  0.8936915779534047  1.0000
  C   C78       1.0  0.7813734350198729  0.10630038683876107  0.3147629165486023  1.0000
  C   C79       1.0  0.09577031567505416  0.685299173894215  0.6064263456475416  1.0000
  C   C80       1.0  0.7026960683017476  0.39369646235900285  0.18524170311458485  1.0000
  C   C81       1.0  0.08805718681433204  0.12741488841528079  0.21636780645337686  1.0000
  C   C82       1.0  0.304327075769379  0.7836709401788653  0.627464788192917  1.0000
  C   C83       1.0  0.9319461481494002  0.3724932138373518  0.2835259828069283  1.0000
  C   C84       1.0  0.2152479170830261  0.7163204802608547  0.8725249928155919  1.0000
  C   C85       1.0  0.9119434790609944  0.8725891240381854  0.7836297586171099  1.0000
  C   C86       1.0  0.6956724121393876  0.21632956330731898  0.37253260895624857  1.0000
  C   C87       1.0  0.06805030504521865  0.6275092942698421  0.7164726771447079  1.0000
  C   C88       1.0  0.7847553956024382  0.2836785195812722  0.12747320886523286  1.0000
  C   C89       1.0  0.07471242847130809  0.1870944128598779  0.18044063388273202  1.0000
  C   C90       1.0  0.25502874793934144  0.8195601643410557  0.6871373496162362  1.0000
  C   C91       1.0  0.94239290939565  0.3128134550141509  0.3194493893363273  1.0000
  C   C92       1.0  0.26145756735280623  0.6804345135596674  0.8128578691017623  1.0000
  C   C93       1.0  0.9252897506548476  0.8129095994399902  0.8195585239379285  1.0000
  C   C94       1.0  0.7449723617441462  0.1804398378390033  0.31286100485742446  1.0000
  C   C95       1.0  0.057607676222239806  0.6871900559686137  0.680549286066885  1.0000
  C   C96       1.0  0.7385453863238567  0.3195654886862299  0.1871409678970366  1.0000
  C   C97       1.0  0.9663977545584288  0.37164903557544443  0.21316552632463737  1.0000
  C   C98       1.0  0.17945918029615623  0.7866877311155136  0.871668379221383  1.0000
  C   C99       1.0  0.051260708696418036  0.12826890195896815  0.2867281283691128  1.0000
  C   C100      1.0  0.3378841312775266  0.7133100255356623  0.6283175169316308  1.0000
  C   C101      1.0  0.03359688808015428  0.6283539735196797  0.7868339220609004  1.0000
  C   C102      1.0  0.8205474279297249  0.21331177020829273  0.12833015186865987  1.0000
  C   C103      1.0  0.9487385338981225  0.871733606455443  0.7132700647243482  1.0000
  C   C104      1.0  0.6621149456314654  0.2866899762603765  0.3716821007752884  1.0000
  C   C105      1.0  0.012443103601150128  0.31107566037356793  0.1787844997813792  1.0000
  C   C106      1.0  0.19106525991841036  0.8211280154976207  0.8110963555774617  1.0000
  C   C107      1.0  0.002303166450708664  0.1888406432841307  0.3210996083224984  1.0000
  C   C108      1.0  0.3232200909311939  0.6788735030477682  0.6888911138042176  1.0000
  C   C109      1.0  0.9875493694725962  0.6889288521132569  0.8212163723560337  1.0000
  C   C110      1.0  0.8089368568754054  0.17887148535438505  0.1889027953789792  1.0000
  C   C111      1.0  0.9976963266287413  0.8111613638790233  0.6788985848786666  1.0000
  C   C112      1.0  0.6767781208284945  0.3211269999775864  0.31110834295328976  1.0000
  C   C113      1.0  0.025526146786717257  0.24951491645929008  0.2142857024397387  1.0000
  C   C114      1.0  0.2396303817852186  0.785665137708598  0.7495504410946056  1.0000
  C   C115      1.0  0.9894190048645511  0.25039728887534096  0.28559734068412  1.0000
  C   C116      1.0  0.27475284424696894  0.7143293722944434  0.7504294107173807  1.0000
  C   C117      1.0  0.974473932690664  0.7504880933490198  0.7857121766960874  1.0000
  C   C118      1.0  0.7603705056798162  0.2143343630995176  0.2504483881784054  1.0000
  C   C119      1.0  0.010579088658630371  0.7496057209658885  0.7143994203931855  1.0000
  C   C120      1.0  0.7252467336318417  0.2856696269990734  0.2495702072049255  1.0000
  C   C121      1.0  0.5036324593691432  0.06347861312550408  0.8214341966372489  1.0000
  C   C122      1.0  0.32518271355090167  0.17859332542809628  0.5634722616036996  1.0000
  C   C123      1.0  0.8886478697174598  0.43659747080913275  0.6784961456287419  1.0000
  C   C124      1.0  0.5670504678095439  0.3214557483822063  0.9363996871319175  1.0000
  C   C125      1.0  0.4963686548562762  0.9365178797142235  0.17856669289028554  1.0000
  C   C126      1.0  0.6748171534206479  0.821407177344902  0.4365294234373422  1.0000
  C   C127      1.0  0.11135091959894076  0.5634010261578695  0.321509184368118  1.0000
  C   C128      1.0  0.4329453284423294  0.6785432499457683  0.0636037283236419  1.0000
  C   C129      1.0  0.43736091598172055  0.0635532396494369  0.9439492455616688  1.0000
  C   C130      1.0  0.38100435984449615  0.056085577729525896  0.563489381460805  1.0000
  C   C131      1.0  0.9447835430428883  0.4364312876566316  0.5560067028439306  1.0000
  C   C132      1.0  0.5006786781761008  0.4439711671220934  0.9363534157556758  1.0000
  C   C133      1.0  0.5626352809285607  0.9364432530147295  0.05605035723214501  1.0000
  C   C134      1.0  0.6189968969706992  0.9439159280287654  0.43651040459822343  1.0000
  C   C135      1.0  0.05521642424007207  0.5635707182776598  0.44399879507425066  1.0000
  C   C136      1.0  0.49931856445233075  0.5560268289447521  0.06364905053197127  1.0000
  C   C137      1.0  0.3283356235212195  0.044824114747491706  0.8763159027365006  1.0000
  C   C138      1.0  0.20448630543017288  0.12399230468052017  0.5447075913566551  1.0000
  C   C139      1.0  0.7493989662852129  0.45538083305007854  0.6237160936123658  1.0000
  C   C140      1.0  0.3730372956101602  0.3762127003848903  0.9551967528582352  1.0000
  C   C141      1.0  0.6716667951197336  0.9551713759298507  0.12368340208973894  1.0000
  C   C142      1.0  0.7955148376904474  0.8760081985533074  0.455292034076045  1.0000
  C   C143      1.0  0.25059915183388876  0.5446196691413974  0.376288125728678  1.0000
  C   C144      1.0  0.6269578242737238  0.6237867994905882  0.044804755889515484  1.0000
  C   C145      1.0  0.7533518326051054  0.1492257403184496  0.9259412746774629  1.0000
  C   C146      1.0  0.6792431359462011  0.0738870296526954  0.649188580712604  1.0000
  C   C147      1.0  0.32873232383271744  0.35067932312027483  0.5739492392773684  1.0000
  C   C148      1.0  0.9028596276975024  0.4259738595823632  0.8507686985116791  1.0000
  C   C149      1.0  0.2466431215932374  0.8507712529386565  0.07406165868373901  1.0000
  C   C150      1.0  0.32075456904422583  0.9261079591808892  0.3508118187793912  1.0000
  C   C151      1.0  0.6712680678331749  0.649322683867332  0.426050385832248  1.0000
  C   C152      1.0  0.09714104789043881  0.5740281472077413  0.1492321976646807  1.0000
  C   C153      1.0  0.8143983831339127  0.0270275589316  0.9238875089729605  1.0000
  C   C154      1.0  0.738122880657876  0.07613163060928939  0.5270066364215324  1.0000
  C   C155      1.0  0.2651693923557801  0.472870758130959  0.5761515036307117  1.0000
  C   C156      1.0  0.84134691848093  0.4237902005350731  0.9729488156920779  1.0000
  C   C157      1.0  0.18560062690080076  0.9729714407569144  0.07610956681586604  1.0000
  C   C158      1.0  0.2618748763235317  0.9238648623182114  0.47299217783068304  1.0000
  C   C159      1.0  0.7348312914446282  0.5271292443453459  0.4238449442428376  1.0000
  C   C160      1.0  0.15865495299865984  0.5762113052451596  0.02705113120866542  1.0000
  C   C161      1.0  0.9211666552509853  0.08984908512474019  0.9525938997482654  1.0000
  C   C162      1.0  0.873660895405557  0.0472559796675753  0.5898061790262972  1.0000
  C   C163      1.0  0.4635527539572095  0.41033169877282205  0.5470705054362313  1.0000
  C   C164      1.0  0.010963380871870897  0.4525723502530709  0.9104610749467598  1.0000
  C   C165      1.0  0.07883110690111277  0.9101489114797305  0.047405710555949596  1.0000
  C   C166      1.0  0.12633711723145072  0.9527415156856378  0.4101934313856148  1.0000
  C   C167      1.0  0.5364478881935922  0.5896698069635278  0.45292911978108197  1.0000
  C   C168      1.0  0.9890368220127075  0.5474296564163479  0.08954029592125319  1.0000
  N   N1        1.0  0.09561707832009599  0.24778303277570052  0.07363891460826008  1.0000
  N   N2        1.0  0.1688383962100559  0.9263275281422239  0.7477903880368615  1.0000
  N   N3        1.0  0.9169435368592642  0.2521390021680999  0.42625814853039407  1.0000
  N   N4        1.0  0.34297550908723906  0.5736772994886579  0.7521934926779466  1.0000
  N   N5        1.0  0.9043878953766579  0.7522224835083621  0.9263605724062246  1.0000
  N   N6        1.0  0.8311625432459521  0.07367347675980078  0.25220685599637693  1.0000
  N   N7        1.0  0.08305400887380887  0.747865009758705  0.5737409936232895  1.0000
  N   N8        1.0  0.6570270804099465  0.4263222014840408  0.24780518358683418  1.0000
  N   N9        1.0  0.4274917495508672  0.056321909730662895  0.8785829713039064  1.0000
  N   N10       1.0  0.3059996238848868  0.12153379173904  0.5561984245060145  1.0000
  N   N11       1.0  0.862349430868619  0.44382856945514254  0.6213853209422383  1.0000
  N   N12       1.0  0.4836516437639912  0.37855810134552564  0.9436209260885278  1.0000
  N   N13       1.0  0.572507629205262  0.9436740818907196  0.12141680027281156  1.0000
  N   N14       1.0  0.6940023561185883  0.8784672128886865  0.4438008869690507  1.0000
  N   N15       1.0  0.13765053124366486  0.556171932802172  0.3786193809239436  1.0000
  N   N16       1.0  0.5163460433013539  0.6214408974652202  0.05638059060041198  1.0000
  N   N17       1.0  0.8268440863254795  0.09095053238169727  0.933619681029164  1.0000
  N   N18       1.0  0.7603669017176455  0.066277875847895  0.5909092457848288  1.0000
  N   N19       1.0  0.3514388065512362  0.40902750217816225  0.566248039494063  1.0000
  N   N20       1.0  0.91787693826398  0.4335902958732091  0.9091254453895915  1.0000
  N   N21       1.0  0.17315200206091677  0.9090464614349825  0.0663805571903353  1.0000
  N   N22       1.0  0.2396311109193618  0.9337196195053181  0.40909036462708315  1.0000
  N   N23       1.0  0.6485624502639595  0.5909740035801292  0.43375174656496546  1.0000
  N   N24       1.0  0.08212459730258098  0.56640970601061  0.09087481568418809  1.0000
  O   O1        1.0  0.42185419714034833  0.20391963702665086  0.7960760260418738  1.0000
  O   O2        1.0  0.21770392357555582  0.20393059763514287  0.7039213928128731  1.0000
  O   O3        1.0  0.9218042646263239  0.29602016928058095  0.7038464145038078  1.0000
  O   O4        1.0  0.6258161229307787  0.2961496100716801  0.7959759328160345  1.0000
  O   O5        1.0  0.5781512620141811  0.7960803657239663  0.20392107303201357  1.0000
  O   O6        1.0  0.782298949843678  0.7960689031400534  0.29607855451865106  1.0000
  O   O7        1.0  0.07819581422231175  0.7039778275104209  0.2961532036338923  1.0000
  O   O8        1.0  0.3741789218663598  0.7038508920100738  0.20402748231643386  1.0000
  O   O9        1.0  0.453655852110394  0.22243656594632455  0.8891965098754684  1.0000
  O   O10       1.0  0.34252603741484206  0.11082830006826334  0.7225647378298419  1.0000
  O   O11       1.0  0.0652715318158029  0.27746140819573367  0.6107766136101205  1.0000
  O   O12       1.0  0.676216407329264  0.38926161771843226  0.7772707999770108  1.0000
  O   O13       1.0  0.5463440334149894  0.7775649398668207  0.11080231896675485  1.0000
  O   O14       1.0  0.6574698205406264  0.8891701966902659  0.2774404234918181  1.0000
  O   O15       1.0  0.9347290249068864  0.7225380923929378  0.3892233258879187  1.0000
  O   O16       1.0  0.32378696188910555  0.6107353768772724  0.2227283515179153  1.0000
  O   O17       1.0  0.01878224983186509  0.2895627411989921  0.8049542805733125  1.0000
  O   O18       1.0  0.8235994542866223  0.19507532628277596  0.7895765469337378  1.0000
  O   O19       1.0  0.6132987635936046  0.21039152625124297  0.6950370001185534  1.0000
  O   O20       1.0  0.30832859857092365  0.30486833125673485  0.7105217706118055  1.0000
  O   O21       1.0  0.9812175034451156  0.7104367590495427  0.19504724384141525  1.0000
  O   O22       1.0  0.17639847505115813  0.8049251755905191  0.2104294181657025  1.0000
  O   O23       1.0  0.3867116873340637  0.7896024614513449  0.304961218306218  1.0000
  O   O24       1.0  0.6916751065604746  0.6951301672353905  0.2894770667100914  1.0000
  O   O25       1.0  0.9092667159896235  0.25676055485990895  0.8974966644507489  1.0000
  O   O26       1.0  0.8064956619845134  0.10262312239841256  0.756641548449423  1.0000
  O   O27       1.0  0.5634859982253173  0.24315261579764072  0.6024908825862668  1.0000
  O   O28       1.0  0.16592867721864468  0.39734621475969323  0.7433547275667395  1.0000
  O   O29       1.0  0.09073159608147573  0.7432414513267387  0.1025066051838905  1.0000
  O   O30       1.0  0.1935023661645444  0.8973788839857237  0.2433604501184732  1.0000
  O   O31       1.0  0.4365232072327672  0.7568318478128189  0.3975063650009645  1.0000
  O   O32       1.0  0.8340730100215623  0.602651781362013  0.2566495001462741  1.0000
  O   O33       1.0  0.03870563593653032  0.3628813442458138  0.0710379147687377  1.0000
  O   O34       1.0  0.1097541622250872  0.9288437166381485  0.8628676503259954  1.0000
  O   O35       1.0  0.9721953065046732  0.1370445686458055  0.4288454454734349  1.0000
  O   O36       1.0  0.40108111577120537  0.5711404789132786  0.6371195590893209  1.0000
  O   O37       1.0  0.9612880047624087  0.6371236698543468  0.9289615331860048  1.0000
  O   O38       1.0  0.890248564062439  0.0711542805588223  0.1371308654201613  1.0000
  O   O39       1.0  0.027809326108368258  0.8629579400648666  0.5711535596620863  1.0000
  O   O40       1.0  0.5989182918801318  0.4288595231021972  0.362878948392563  1.0000
  O   O41       1.0  0.1557622049861038  0.13273248239482166  0.0740536334421833  1.0000
  O   O42       1.0  0.2297038035386337  0.9259814823000806  0.632749814827477  1.0000
  O   O43       1.0  0.8630209715263036  0.36719106521788797  0.4258119209649963  1.0000
  O   O44       1.0  0.2880478965128503  0.5740032742304351  0.8672371254688686  1.0000
  O   O45       1.0  0.8442617229954049  0.8672715314082495  0.9259470267883148  1.0000
  O   O46       1.0  0.770281982684793  0.07401701472176109  0.3672491206682409  1.0000
  O   O47       1.0  0.13697953383415729  0.6328119442941827  0.5741878647709343  1.0000
  O   O48       1.0  0.7119514257103673  0.42599472263736976  0.1327616962937554  1.0000
  O   O49       1.0  0.5886987079606953  0.0761767400939561  0.8183447597275092  1.0000
  O   O50       1.0  0.4071835251729892  0.18151114707570307  0.5762624749730634  1.0000
  O   O51       1.0  0.9833792189044102  0.4237575422281663  0.6815091934112019  1.0000
  O   O52       1.0  0.6647710844853946  0.3184793123902168  0.9236347171015141  1.0000
  O   O53       1.0  0.4113007896606933  0.9238217577288593  0.18165596852752233  1.0000
  O   O54       1.0  0.5928179635732815  0.8184888543911837  0.42374016739247367  1.0000
  O   O55       1.0  0.01662026533382031  0.5762414562314787  0.3184951870946406  1.0000
  O   O56       1.0  0.3352258459545327  0.6815196864973314  0.07636600321233541  1.0000
  O   O57       1.0  0.6699599834849367  0.15394914614628866  0.9105113591632373  1.0000
  O   O58       1.0  0.5804201161748633  0.0893544508348327  0.6539271972877786  1.0000
  O   O59       1.0  0.23468967673653637  0.34584676254425517  0.5895187311085976  1.0000
  O   O60       1.0  0.8242894662534747  0.4105336800179061  0.8458978786718349  1.0000
  O   O61       1.0  0.3300335191661643  0.8460473456949701  0.08949172731389152  1.0000
  O   O62       1.0  0.41957917198246963  0.9106380319618947  0.34607209251767296  1.0000
  O   O63       1.0  0.7653118640007083  0.6541547430165406  0.41048232601717427  1.0000
  O   O64       1.0  0.17571388503981203  0.589467324554967  0.15410239002003584  1.0000
