data_image0
_chemical_formula_structural       Zn2C18N2O8F12
_chemical_formula_sum              "Zn2 C18 N2 O8 F12"
_cell_length_a       8.241706299413195
_cell_length_b       9.277698433362582
_cell_length_c       16.09569657400666
_cell_angle_alpha    89.99984038232411
_cell_angle_beta     89.99998743000744
_cell_angle_gamma    90.09902795314856

_space_group_name_H-M_alt    "P 1"
_space_group_IT_number       1

loop_
  _space_group_symop_operation_xyz
  'x, y, z'

loop_
  _atom_site_type_symbol
  _atom_site_label
  _atom_site_symmetry_multiplicity
  _atom_site_fract_x
  _atom_site_fract_y
  _atom_site_fract_z
  _atom_site_occupancy
  Zn  Zn1       1.0  0.6606554621613514  0.5001833314568814  0.4999997417872208  1.0000
  Zn  Zn2       1.0  0.33940113559364704  0.4998307674276176  0.4999992811968355  1.0000
  C   C1        1.0  0.5000069127246789  0.7789082027500456  0.5000019412683656  1.0000
  C   C2        1.0  0.33765188107433625  0.5664314804485289  0.049340227118932496  1.0000
  C   C3        1.0  0.6461974959740289  0.5916825996827768  0.9506455495024538  1.0000
  C   C4        1.0  0.3376471370865844  0.5664263702862018  0.9506600260756455  1.0000
  C   C5        1.0  0.5000963905442505  0.4997729863797461  0.7511650939078789  1.0000
  C   C6        1.0  0.5000992941814317  0.499776665305987  0.24883517218447787  1.0000
  C   C7        1.0  0.4999308244474108  0.5002207559986261  0.08388859806002097  1.0000
  C   C8        1.0  0.49992719311944006  0.5002167855042501  0.9161116670355368  1.0000
  C   C9        1.0  0.5160154428396382  0.34199811767029337  0.9505981032294882  1.0000
  C   C10       1.0  0.5160165428328867  0.3419989134807936  0.04940380366393529  1.0000
  C   C11       1.0  0.5000287222597919  0.49994747990246696  0.8263765015839437  1.0000
  C   C12       1.0  0.5000362598987352  0.49995345081938336  0.17362438539667824  1.0000
  C   C13       1.0  0.5000982795215805  0.49984556792753654  0.3386678794491189  1.0000
  C   C14       1.0  0.5000914713623389  0.4998420444600812  0.6613317651810604  1.0000
  C   C15       1.0  0.49993125183829074  0.06537531369207268  0.5000003925663704  1.0000
  C   C16       1.0  0.5000246395425805  0.9346397849602898  0.5000004943188401  1.0000
  C   C17       1.0  0.5000375547264826  0.22110912028749397  0.5000008094219766  1.0000
  C   C18       1.0  0.6462010225038028  0.5916833974635125  0.0493506019151013  1.0000
  N   N1        1.0  0.06719892610009032  0.49985468292810953  0.5000019020672042  1.0000
  N   N2        1.0  0.9328588611293327  0.5001346262340363  0.5000020912214109  1.0000
  O   O1        1.0  0.6384376439526777  0.7178042130644544  0.5000000885605758  1.0000
  O   O2        1.0  0.36144120327020346  0.7174967436838317  0.5000014696888824  1.0000
  O   O3        1.0  0.6386025861524374  0.4999658628520365  0.3738250335955583  1.0000
  O   O4        1.0  0.36153957563959693  0.4998286427835266  0.3738170952724785  1.0000
  O   O5        1.0  0.6385956744808396  0.499962401329242  0.6261750938402171  1.0000
  O   O6        1.0  0.36153387941023146  0.4998273378967468  0.6261833088997192  1.0000
  O   O7        1.0  0.6385534839260316  0.28248604943072314  0.500000659787524  1.0000
  O   O8        1.0  0.3615643876542478  0.28224541268963327  0.5000001769722288  1.0000
  F   F1        1.0  0.6555795633131468  0.28110272480065385  0.07761570265262209  1.0000
  F   F2        1.0  0.7887714668926266  0.5366196524515987  0.0776339394185754  1.0000
  F   F3        1.0  0.20856537965757133  0.48917352564288313  0.922349518989186  1.0000
  F   F4        1.0  0.788767862274945  0.5366242937804772  0.922359729161272  1.0000
  F   F5        1.0  0.3910126438920755  0.2594310495355359  0.07763885056127859  1.0000
  F   F6        1.0  0.6555820223607257  0.28110413722877337  0.922387467418275  1.0000
  F   F7        1.0  0.39101630998234077  0.2594259958187592  0.9223621551767562  1.0000
  F   F8        1.0  0.6358640891004796  0.729697040974486  0.9223284878439485  1.0000
  F   F9        1.0  0.3200039464915464  0.7038024436045094  0.9222907810382563  1.0000
  F   F10       1.0  0.6358725534119217  0.729698870479659  0.0776679329184944  1.0000
  F   F11       1.0  0.32001484486290377  0.7038118199092125  0.07770415890692557  1.0000
  F   F12       1.0  0.20857021115712374  0.4891828973394468  0.077654172147291  1.0000
