data_image0
_chemical_formula_structural       Zn6H126C182N10O26
_chemical_formula_sum              "Zn6 H126 C182 N10 O26"
_cell_length_a       17.90471574317845
_cell_length_b       20.39151798560123
_cell_length_c       21.983219449213063
_cell_angle_alpha    63.49711701215537
_cell_angle_beta     75.73750020890981
_cell_angle_gamma    85.16334872343015

_space_group_name_H-M_alt    "P 1"
_space_group_IT_number       1

loop_
  _space_group_symop_operation_xyz
  'x, y, z'

loop_
  _atom_site_type_symbol
  _atom_site_label
  _atom_site_symmetry_multiplicity
  _atom_site_fract_x
  _atom_site_fract_y
  _atom_site_fract_z
  _atom_site_occupancy
  Zn  Zn1       1.0  0.5357685735761635  0.10217704031596499  0.05132868308188427  1.0000
  Zn  Zn2       1.0  0.46423318905721084  0.8978216554456039  0.9486734665773399  1.0000
  Zn  Zn3       1.0  0.7263777633040222  0.11383143518788329  0.08491045732559847  1.0000
  Zn  Zn4       1.0  0.2736222545118991  0.886165599658469  0.9150899934660613  1.0000
  Zn  Zn5       1.0  0.907023145428049  0.04646662860795199  0.08891772454532543  1.0000
  Zn  Zn6       1.0  0.0929798687549734  0.9535353594337723  0.9110805386151596  1.0000
  H   H1        1.0  0.003969166709964601  0.022846712680731695  0.18450905514790608  1.0000
  H   H2        1.0  0.9960307971495441  0.977147578483695  0.8154911812505646  1.0000
  H   H3        1.0  0.2446317413024488  0.13180044399678786  0.1249825800102826  1.0000
  H   H4        1.0  0.7553676289447183  0.8681949495061687  0.8750223182635679  1.0000
  H   H5        1.0  0.1440019567349609  0.0325439512844454  0.1814573419419219  1.0000
  H   H6        1.0  0.8559962371317624  0.9674497867285864  0.8185466540639511  1.0000
  H   H7        1.0  0.38564516780417074  0.1435926305178512  0.11630466044873343  1.0000
  H   H8        1.0  0.6143536062682529  0.8564027636646755  0.8837026284309389  1.0000
  H   H9        1.0  0.30602524547748533  0.002775354690797399  0.009012959961872045  1.0000
  H   H10       1.0  0.6939776343361858  0.9972217029214079  0.9909891972524248  1.0000
  H   H11       1.0  0.054449682940799  0.07040213668063439  0.9743625969940554  1.0000
  H   H12       1.0  0.9455550511221986  0.9295993133189882  0.025635099070179083  1.0000
  H   H13       1.0  0.7030039675979012  0.9009007319144046  0.2365511416169071  1.0000
  H   H14       1.0  0.2969989227032456  0.0990974256125128  0.7634523762368276  1.0000
  H   H15       1.0  0.8801378061741544  0.8147429464266764  0.14797939816207167  1.0000
  H   H16       1.0  0.11987091767328914  0.1852563347435776  0.8520175102999089  1.0000
  H   H17       1.0  0.19503451377720893  0.0797204835973631  0.9625590491198396  1.0000
  H   H18       1.0  0.8049701622479263  0.920279876953018  0.037442750085652614  1.0000
  H   H19       1.0  0.5892859148251476  0.1265608539261294  0.8326020400161765  1.0000
  H   H20       1.0  0.4107112724554299  0.8734394578985273  0.16740078627116617  1.0000
  H   H21       1.0  0.6807776550320599  0.23823963783457452  0.5984180881157783  1.0000
  H   H22       1.0  0.31922596313184937  0.761764001143895  0.4015807360281584  1.0000
  H   H23       1.0  0.7076092355656983  0.7657411083010004  0.30256448706122563  1.0000
  H   H24       1.0  0.2923930758109563  0.23425594388591253  0.6974368735534853  1.0000
  H   H25       1.0  0.5281527199873324  0.6428283506423327  0.2726336308910433  1.0000
  H   H26       1.0  0.47184562794248575  0.3571719668001663  0.7273680567051243  1.0000
  H   H27       1.0  0.5304509149854582  0.5076940981058797  0.3363550611791268  1.0000
  H   H28       1.0  0.46954918184327  0.49230622601915286  0.6636440077501504  1.0000
  H   H29       1.0  0.6905814041466911  0.2950904537342822  0.47222897080966675  1.0000
  H   H30       1.0  0.3094256721897182  0.7049132073304702  0.5277691691510853  1.0000
  H   H31       1.0  0.5685715045975358  0.7401705029864232  0.17899130431863602  1.0000
  H   H32       1.0  0.4314245312400828  0.2598303523056202  0.821012885664551  1.0000
  H   H33       1.0  0.4427017126979251  0.021256779012091397  0.004042620766817596  1.0000
  H   H34       1.0  0.5573011130404096  0.9787391882787448  0.9959631842736769  1.0000
  H   H35       1.0  0.9732278603813853  0.1401294788115024  0.8708906387517318  1.0000
  H   H36       1.0  0.026772142984526688  0.8598664569922575  0.1291089067155511  1.0000
  H   H37       1.0  0.5537700467938224  0.2334891974655307  0.37824010376954936  1.0000
  H   H38       1.0  0.4462347044005171  0.7665127998750875  0.6217569066692262  1.0000
  H   H39       1.0  0.588792109057252  0.4902197013806031  0.4828570827974018  1.0000
  H   H40       1.0  0.4112016465073581  0.5097800314234392  0.5171421048329562  1.0000
  H   H41       1.0  0.6901792440894995  0.2651801585558076  0.08705451674722307  1.0000
  H   H42       1.0  0.3098155496425932  0.7348146468201904  0.9129460603005839  1.0000
  H   H43       1.0  0.6920455526259702  0.474745233180407  0.259769019743743  1.0000
  H   H44       1.0  0.30795632596421996  0.5252572948402162  0.7402287858523521  1.0000
  H   H45       1.0  0.7500798100614716  0.5246613007988187  0.3758161936380162  1.0000
  H   H46       1.0  0.2499220382285827  0.47534013166769273  0.624182527893929  1.0000
  H   H47       1.0  0.6106319726908183  0.1847616987456178  0.7037346841220752  1.0000
  H   H48       1.0  0.3893634578847056  0.8152369547801969  0.2962678092428773  1.0000
  H   H49       1.0  0.580984835385472  0.4339257669189962  0.6083432801395786  1.0000
  H   H50       1.0  0.41900486198827747  0.5660722919898901  0.3916555753754524  1.0000
  H   H51       1.0  0.5917616545982227  0.33791587454761174  0.8295384489837971  1.0000
  H   H52       1.0  0.4082367394818576  0.6620855349605037  0.17046050141627936  1.0000
  H   H53       1.0  0.7450614893673233  0.19735658103041934  0.7671763301233909  1.0000
  H   H54       1.0  0.2549390325606566  0.8026349622840172  0.2328194800158342  1.0000
  H   H55       1.0  0.5600205017436152  0.8746481961867332  0.11788491532804815  1.0000
  H   H56       1.0  0.4399755208062858  0.12535376425276468  0.8821233671849312  1.0000
  H   H57       1.0  0.4934902313935082  0.22637301851581532  0.3045236913190479  1.0000
  H   H58       1.0  0.5065087850800012  0.7736311400995248  0.6954762700738044  1.0000
  H   H59       1.0  0.5684900936191754  0.29632789074583593  0.447242658933483  1.0000
  H   H60       1.0  0.43151519967457125  0.7036730155938499  0.5527556087256756  1.0000
  H   H61       1.0  0.8041796510213644  0.40025853947587103  0.3740731460640348  1.0000
  H   H62       1.0  0.19582000649595702  0.599746159696025  0.6259205518921291  1.0000
  H   H63       1.0  0.8762770872583162  0.7050403468821427  0.40098737992494904  1.0000
  H   H64       1.0  0.12371844470509073  0.2949626932206896  0.5990137262718918  1.0000
  H   H65       1.0  0.7274571553409857  0.13221364874168268  0.8960691884410393  1.0000
  H   H66       1.0  0.2725405360516504  0.8677811715510515  0.10392899719387577  1.0000
  H   H67       1.0  0.7492384556155969  0.6593703957284589  0.3104235147765381  1.0000
  H   H68       1.0  0.2507610924698582  0.3406315719712295  0.6895763431972598  1.0000
  H   H69       1.0  0.6734443481129234  0.4136414648312224  0.1903584135000855  1.0000
  H   H70       1.0  0.32655698441531916  0.5863621550624529  0.809638590190687  1.0000
  H   H71       1.0  0.7373857899565479  0.21394695871297387  0.33271355356994553  1.0000
  H   H72       1.0  0.2626160227896293  0.7860528282420846  0.6672854035781342  1.0000
  H   H73       1.0  0.4772940111270855  0.1647671849404233  0.23318954640357256  1.0000
  H   H74       1.0  0.5227025273035437  0.8352309347113548  0.7668165917311853  1.0000
  H   H75       1.0  0.8009418927921672  0.1815706740082135  0.660655771345084  1.0000
  H   H76       1.0  0.19906157539011102  0.8184247313080986  0.3393410436741178  1.0000
  H   H77       1.0  0.8927881793056613  0.6806211821734252  0.21302433923207095  1.0000
  H   H78       1.0  0.10721471763935142  0.3193764227797686  0.7869771323567747  1.0000
  H   H79       1.0  0.6253260641150149  0.3969510558727123  0.6995476503069611  1.0000
  H   H80       1.0  0.3746677138246639  0.6030497742296745  0.3004515320176536  1.0000
  H   H81       1.0  0.7175612668077207  0.15946588887205587  0.25624101894018736  1.0000
  H   H82       1.0  0.2824417803567627  0.8405366430221619  0.7437547373346193  1.0000
  H   H83       1.0  0.7034683630109414  0.2580514603361054  0.9533647914780871  1.0000
  H   H84       1.0  0.29652308850545955  0.7419471552126637  0.046632125689775754  1.0000
  H   H85       1.0  0.7070577173120896  0.32710375032675637  0.157224597304122  1.0000
  H   H86       1.0  0.29293839381364956  0.6728970883949542  0.8427709416929617  1.0000
  H   H87       1.0  0.9908140400629789  0.2070294770989136  0.7420442813552057  1.0000
  H   H88       1.0  0.009187101577097696  0.7929653670243438  0.2579541307266311  1.0000
  H   H89       1.0  0.8636375003848045  0.8396028451260377  0.3343524994850569  1.0000
  H   H90       1.0  0.1363632505376202  0.16040022112922964  0.6656439379165349  1.0000
  H   H91       1.0  0.980437688733879  0.3990206419050181  0.5313042654130057  1.0000
  H   H92       1.0  0.0195651950423255  0.6009764148350599  0.4686974364862308  1.0000
  H   H93       1.0  0.8199507865882724  0.2523444422738875  0.5323348163188583  1.0000
  H   H94       1.0  0.18005277109428872  0.7476553522358174  0.4676619774773911  1.0000
  H   H95       1.0  0.9670332681548288  0.5926570609447451  0.2587527425234271  1.0000
  H   H96       1.0  0.03296573246855421  0.40734710115908257  0.7412490401296593  1.0000
  H   H97       1.0  0.9754878515084683  0.4584182765369321  0.3189412257181274  1.0000
  H   H98       1.0  0.024510575434156603  0.5415853301842475  0.6810590800156575  1.0000
  H   H99       1.0  0.7825817329581781  0.3315411190926554  0.31109474347044136  1.0000
  H   H100      1.0  0.21741719401504875  0.668458650329292  0.6889052391453561  1.0000
  H   H101      1.0  0.9623425982744251  0.3277642771125286  0.6590664222938826  1.0000
  H   H102      1.0  0.0376602486767013  0.6722305832866053  0.340934379586706  1.0000
  H   H103      1.0  0.9622945741241437  0.1590958315005935  0.1798088456897774  1.0000
  H   H104      1.0  0.03770909287135991  0.8409083478418894  0.8201856503082466  1.0000
  H   H105      1.0  0.9833709815836829  0.21243129896816978  0.25689914453688806  1.0000
  H   H106      1.0  0.0166319878491947  0.787568494476858  0.7430991292350696  1.0000
  H   H107      1.0  0.8299957787032923  0.5918072816629446  0.4501734221702095  1.0000
  H   H108      1.0  0.1700026020890633  0.40819523299261823  0.5498296207596597  1.0000
  H   H109      1.0  0.8395195249508164  0.4579347057510646  0.5104591702367073  1.0000
  H   H110      1.0  0.1604840220064219  0.5420672955650546  0.4895439873588927  1.0000
  H   H111      1.0  0.9892554765851073  0.25868210330753527  0.4420998071892512  1.0000
  H   H112      1.0  0.010747140355313396  0.7413270060793521  0.5578946653364909  1.0000
  H   H113      1.0  0.9683561266431655  0.1898355394839868  0.3782753699124869  1.0000
  H   H114      1.0  0.031646945458796  0.8101691913675424  0.6217226523261346  1.0000
  H   H115      1.0  0.8065434501737414  0.33230806664645485  0.7898297053852944  1.0000
  H   H116      1.0  0.1934560558429013  0.6676911547549338  0.21016857225014018  1.0000
  H   H117      1.0  0.7905110798931787  0.40705648910132197  0.8130117506933062  1.0000
  H   H118      1.0  0.20948960122269972  0.592943836960508  0.18698629357533028  1.0000
  H   H119      1.0  0.7172309672125295  0.3372613158920572  0.8452980644546102  1.0000
  H   H120      1.0  0.28276580325064066  0.6627428149172518  0.15469552333449588  1.0000
  H   H121      1.0  0.9096669219357167  0.3674389992981801  0.8728789882579023  1.0000
  H   H122      1.0  0.0903250044359609  0.6325568867151786  0.12712306426693945  1.0000
  H   H123      1.0  0.9240863064312277  0.29764778978059064  0.8428607089157013  1.0000
  H   H124      1.0  0.07590559488405552  0.7023475506360272  0.15714293986471245  1.0000
  H   H125      1.0  0.9072932303782367  0.2725257640617542  0.9344675751329915  1.0000
  H   H126      1.0  0.09269698928226691  0.7274712082068149  0.0655348141777098  1.0000
  C   C1        1.0  0.04882714240790161  0.0366905327649576  0.136611698427231  1.0000
  C   C2        1.0  0.9511733819635566  0.9633037655690018  0.8633902452009465  1.0000
  C   C3        1.0  0.2868683721894456  0.1055743753134237  0.09855439360717361  1.0000
  C   C4        1.0  0.7131315625322117  0.8944210244869454  0.9014517565813237  1.0000
  C   C5        1.0  0.1262315007678154  0.0423878280044008  0.1341889634621651  1.0000
  C   C6        1.0  0.8737684616915689  0.9576075656911059  0.8658139995209239  1.0000
  C   C7        1.0  0.36470632892367416  0.11287011394104243  0.09375170923331673  1.0000
  C   C8        1.0  0.6352947888222861  0.8871263887755205  0.9062532969582618  1.0000
  C   C9        1.0  0.6403842982247241  0.5075995387032393  0.35982612905961986  1.0000
  C   C10       1.0  0.35961698162830663  0.4924018883379802  0.640171795872746  1.0000
  C   C11       1.0  0.6389945788544154  0.6617766738030255  0.28579978673647594  1.0000
  C   C12       1.0  0.36100380730060516  0.33822473744933745  0.7142000742937215  1.0000
  C   C13       1.0  0.18120799320463732  0.058625535158952906  0.0712302772091178  1.0000
  C   C14       1.0  0.8187931364289156  0.9413709649412424  0.9287733630372869  1.0000
  C   C15       1.0  0.6250425041984045  0.9778708908559466  0.13667026012964106  1.0000
  C   C16       1.0  0.374959260997379  0.022128906564582003  0.8633341607991412  1.0000
  C   C17       1.0  0.6379236839754725  0.7423182908578311  0.2463374107924423  1.0000
  C   C18       1.0  0.3620763930405957  0.25768203762781633  0.7536639347121293  1.0000
  C   C19       1.0  0.5679012539337477  0.19508960051004462  0.9175547799294465  1.0000
  C   C20       1.0  0.4321000245191584  0.8049129290622686  0.08244587158753088  1.0000
  C   C21       1.0  0.638468527657821  0.3963909207614336  0.467983047354842  1.0000
  C   C22       1.0  0.3615333350822354  0.6036116107476772  0.5320165795014873  1.0000
  C   C23       1.0  0.32069155549174166  0.0352697731037566  0.03281067710764057  1.0000
  C   C24       1.0  0.6793113045092626  0.9647272888690637  0.9671937566819508  1.0000
  C   C25       1.0  0.07654023863771901  0.0624322478466368  0.019086902890784088  1.0000
  C   C26       1.0  0.9234633084384429  0.937568100108912  0.980912392485422  1.0000
  C   C27       1.0  0.6013858139275925  0.2819444950061794  0.23613813782590404  1.0000
  C   C28       1.0  0.398612022202947  0.7180580089913632  0.7638613766140309  1.0000
  C   C29       1.0  0.5821684221837984  0.21148276126282178  0.15534818947022447  1.0000
  C   C30       1.0  0.4178297729641329  0.7885115275796863  0.8446569421704309  1.0000
  C   C31       1.0  0.8755037214910432  0.9171033421821306  0.1964039128526096  1.0000
  C   C32       1.0  0.1245033299078884  0.0828981199253107  0.8035919611443205  1.0000
  C   C33       1.0  0.6732793917854137  0.8648466190576442  0.22500444619065266  1.0000
  C   C34       1.0  0.3267200047993555  0.1351498708715297  0.7749999914624012  1.0000
  C   C35       1.0  0.6199576313795205  0.29560285748503656  0.6910498581051385  1.0000
  C   C36       1.0  0.38003957571372377  0.7043974499790051  0.30895069160691696  1.0000
  C   C37       1.0  0.8799681877757236  0.24950934313978473  0.6694353520865591  1.0000
  C   C38       1.0  0.1200347421507431  0.7504888056659028  0.3305636126165935  1.0000
  C   C39       1.0  0.572409175524335  0.17340110534843228  0.11389099873213843  1.0000
  C   C40       1.0  0.427585011426615  0.8265942541529794  0.8861144705014397  1.0000
  C   C41       1.0  0.2636268866407718  0.06629265266779778  0.06736935554538805  1.0000
  C   C42       1.0  0.7363736574244302  0.933703294666117  0.9326341737268888  1.0000
  C   C43       1.0  0.8795511194813698  0.7901393690591617  0.20342669960610502  1.0000
  C   C44       1.0  0.1204535855627  0.20986153621583978  0.7965730480287547  1.0000
  C   C45       1.0  0.6321649661927395  0.3902043262680692  0.35889500475933295  1.0000
  C   C46       1.0  0.36783918754564854  0.6097971209226287  0.641103260650489  1.0000
  C   C47       1.0  0.630610062788314  0.896325569019588  0.1735765966765683  1.0000
  C   C48       1.0  0.3693916944824097  0.10367423014518809  0.8264287348823274  1.0000
  C   C49       1.0  0.1552488035836603  0.06790139579641163  0.01277416253623189  1.0000
  C   C50       1.0  0.8447558184850691  0.9320962210720436  0.987227422276071  1.0000
  C   C51       1.0  0.6121388155285743  0.3182767635372201  0.2783669144945691  1.0000
  C   C52       1.0  0.3878642448047103  0.6817263165701135  0.721628611469832  1.0000
  C   C53       1.0  0.827343595282798  0.13046898248602187  0.1624572834197124  1.0000
  C   C54       1.0  0.1726589018572042  0.8695346421533757  0.8375381262648246  1.0000
  C   C55       1.0  0.5969121335040697  0.18591068943631936  0.8029213392793011  1.0000
  C   C56       1.0  0.40308566440126015  0.8140907207513662  0.1970800017265973  1.0000
  C   C57       1.0  0.8407675520031219  0.09996185773449179  0.9684661931702506  1.0000
  C   C58       1.0  0.15923141843904895  0.9000395554546686  0.03153264319929855  1.0000
  C   C59       1.0  0.6595105767505203  0.29335557995344164  0.5737450103777064  1.0000
  C   C60       1.0  0.3404907043837184  0.706646397917261  0.4262540501894352  1.0000
  C   C61       1.0  0.6761662412192067  0.7890490437805512  0.26125633836765877  1.0000
  C   C62       1.0  0.32383555695804495  0.2109512974924783  0.7387455756754377  1.0000
  C   C63       1.0  0.5777959329221076  0.6173877446361472  0.2938032499552747  1.0000
  C   C64       1.0  0.42220246243918075  0.38261421570145154  0.7061968360795775  1.0000
  C   C65       1.0  0.5895341299249566  0.22861295656851152  0.839265747685765  1.0000
  C   C66       1.0  0.4104665577158642  0.7713884702801579  0.16073411253736938  1.0000
  C   C67       1.0  0.5783121913486937  0.5415625161895292  0.3302991692100292  1.0000
  C   C68       1.0  0.42168619876885327  0.4584388941907064  0.6697002365051078  1.0000
  C   C69       1.0  0.6649421935507577  0.3251970469954344  0.5021942978125935  1.0000
  C   C70       1.0  0.3350631221180578  0.6748049566425962  0.4978039645408217  1.0000
  C   C71       1.0  0.5973655192960905  0.7746104848732643  0.19306877934666034  1.0000
  C   C72       1.0  0.40263167450943643  0.22539092773823194  0.8069358628951804  1.0000
  C   C73       1.0  0.8719157306718799  0.8355209762745089  0.2370842830396852  1.0000
  C   C74       1.0  0.1280890442976528  0.1644810158333669  0.7629099955087426  1.0000
  C   C75       1.0  0.39743682887884546  0.04467241442414149  0.030830130554455992  1.0000
  C   C76       1.0  0.602564869191731  0.955324091101346  0.969174306291535  1.0000
  C   C77       1.0  0.9236130554009347  0.15321867799944042  0.8475976307937075  1.0000
  C   C78       1.0  0.07638700064018879  0.8467794506567756  0.15240099343198923  1.0000
  C   C79       1.0  0.8971344029860688  0.6032711996739903  0.3493275579922966  1.0000
  C   C80       1.0  0.10286052231511891  0.3967307411936929  0.6506745781709284  1.0000
  C   C81       1.0  0.5836156686574937  0.2869339883302758  0.3514018891462883  1.0000
  C   C82       1.0  0.4163873442443204  0.7130674488819649  0.6485952383794213  1.0000
  C   C83       1.0  0.8871458534961789  0.6826589017239968  0.31172901031723643  1.0000
  C   C84       1.0  0.11285307603945684  0.3173419693569103  0.6882732435681191  1.0000
  C   C85       1.0  0.8387235316958837  0.15722156499254683  0.2126083237954291  1.0000
  C   C86       1.0  0.1612795325999343  0.8427815142426668  0.7873867468539189  1.0000
  C   C87       1.0  0.6096713341902174  0.43503495157521144  0.5079087577181342  1.0000
  C   C88       1.0  0.3903247096913915  0.5649642486120214  0.4920906594155454  1.0000
  C   C89       1.0  0.9006828041892945  0.3306999397077561  0.5232459358797428  1.0000
  C   C90       1.0  0.09932022584385437  0.6693020448454731  0.4767505060205082  1.0000
  C   C91       1.0  0.8618017367342006  0.21770945926498084  0.2995279132905325  1.0000
  C   C92       1.0  0.1382000944245121  0.7822914258605421  0.7004714938668712  1.0000
  C   C93       1.0  0.6465434540666521  0.25793243839438423  0.13408617408361312  1.0000
  C   C94       1.0  0.3534525200084104  0.742064021599404  0.865914849917111  1.0000
  C   C95       1.0  0.6617894088905417  0.42163475783967636  0.28591070761167003  1.0000
  C   C96       1.0  0.3382124696996486  0.5783677701809395  0.7140870979844323  1.0000
  C   C97       1.0  0.7014624275990897  0.5507228672039375  0.3530547592183381  1.0000
  C   C98       1.0  0.2985371323739656  0.44927909787938347  0.6469437328102856  1.0000
  C   C99       1.0  0.6103097511792086  0.21895658766403867  0.7302966061791809  1.0000
  C   C100      1.0  0.38968686638315114  0.7810431679058496  0.26970428787380024  1.0000
  C   C101      1.0  0.8495772563297734  0.1325161310144409  0.8915351386415297  1.0000
  C   C102      1.0  0.1504216614371856  0.8674830893222705  0.10846461896960592  1.0000
  C   C103      1.0  0.6060282225119948  0.40288957234300676  0.5791551922599754  1.0000
  C   C104      1.0  0.39396611862096614  0.5971107132273089  0.4208441063445036  1.0000
  C   C105      1.0  0.5990491862705198  0.3049406925069107  0.8008491449239159  1.0000
  C   C106      1.0  0.40094860639108293  0.695060167723412  0.19915151576226717  1.0000
  C   C107      1.0  0.629512254521714  0.3307792459313675  0.6145722645603584  1.0000
  C   C108      1.0  0.37048552368987947  0.669220515256363  0.38542749080144034  1.0000
  C   C109      1.0  0.7952724623928732  0.1840374706411296  0.7897834115049636  1.0000
  C   C110      1.0  0.20472981880256924  0.8159568326311087  0.21021500282621028  1.0000
  C   C111      1.0  0.5930335297011382  0.8502928160389872  0.15786604519952602  1.0000
  C   C112      1.0  0.40696248900514587  0.14970749191206778  0.8421388304091195  1.0000
  C   C113      1.0  0.5370980201263366  0.234976224670973  0.25700627532488346  1.0000
  C   C114      1.0  0.4629014897339161  0.7650246492188587  0.7429954092148846  1.0000
  C   C115      1.0  0.5927007769164235  0.3218943079359065  0.3910438742724764  1.0000
  C   C116      1.0  0.40730282947880886  0.6781076802983677  0.6089524535972473  1.0000
  C   C117      1.0  0.8402475731933806  0.3542218636182355  0.37476138059027875  1.0000
  C   C118      1.0  0.15975200391100225  0.6457806488060738  0.6252364258128864  1.0000
  C   C119      1.0  0.8757763437989041  0.7283785661046167  0.34576850190628505  1.0000
  C   C120      1.0  0.12421973166404142  0.27162228046619674  0.6542311349263201  1.0000
  C   C121      1.0  0.7852291158641477  0.1475855822083147  0.8620761172809354  1.0000
  C   C122      1.0  0.2147709639521693  0.8524125412151519  0.13791977505440667  1.0000
  C   C123      1.0  0.7003571220692706  0.6267511900182328  0.31669680471469525  1.0000
  C   C124      1.0  0.2996418061851642  0.3732491302331978  0.6833043135358849  1.0000
  C   C125      1.0  0.8691727937296179  0.2074553386790683  0.7456828077328908  1.0000
  C   C126      1.0  0.13082783214864688  0.792541692871346  0.2543138865077808  1.0000
  C   C127      1.0  0.6514992321145741  0.38659514623634544  0.2469208209340223  1.0000
  C   C128      1.0  0.34850269915082077  0.6134095746367265  0.7530760634204795  1.0000
  C   C129      1.0  0.7869113769154197  0.20188460204703768  0.29930577442043943  1.0000
  C   C130      1.0  0.21309163598639463  0.798116835165203  0.7006913531052703  1.0000
  C   C131      1.0  0.527325948930276  0.2006926194390104  0.21710444155027633  1.0000
  C   C132      1.0  0.47267176203718736  0.7993055032142421  0.7828991919481252  1.0000
  C   C133      1.0  0.8402897001002857  0.22933073901208453  0.6324174096206931  1.0000
  C   C134      1.0  0.159713831244666  0.770667959071389  0.36757984479635303  1.0000
  C   C135      1.0  0.8876206684416843  0.7151219574316484  0.23999144398720781  1.0000
  C   C136      1.0  0.11237998365526639  0.2848778239055605  0.7600086518520542  1.0000
  C   C137      1.0  0.6160020426060555  0.337625495759724  0.7281799486042573  1.0000
  C   C138      1.0  0.3839934525322732  0.6623753480021718  0.2718202575739355  1.0000
  C   C139      1.0  0.7754507191647664  0.17148634551996617  0.25674657899009656  1.0000
  C   C140      1.0  0.2245517384688327  0.8285156344800908  0.7432495216256355  1.0000
  C   C141      1.0  0.7647696314994478  0.2598104467345975  0.9542283196314472  1.0000
  C   C142      1.0  0.2352194895122182  0.7401876084932368  0.045770649914118236  1.0000
  C   C143      1.0  0.6555439725010288  0.2928760743189827  0.1736260477739507  1.0000
  C   C144      1.0  0.34445379650429697  0.7071231377835119  0.8263734825831931  1.0000
  C   C145      1.0  0.8985751628949927  0.33405853072016356  0.411660856614475  1.0000
  C   C146      1.0  0.10142334446057077  0.6659472627486023  0.588335340672309  1.0000
  C   C147      1.0  0.9332123646198056  0.19091523952199196  0.775691540060116  1.0000
  C   C148      1.0  0.0667882282769909  0.8090812481759285  0.2243076610662413  1.0000
  C   C149      1.0  0.8687023106673025  0.8036381075386104  0.30894752138087955  1.0000
  C   C150      1.0  0.13129899680453858  0.1963649667583169  0.6910510785654722  1.0000
  C   C151      1.0  0.9411822765216371  0.35123548570543056  0.5595759571351592  1.0000
  C   C152      1.0  0.05881953750574811  0.648764852079111  0.4404241356476959  1.0000
  C   C153      1.0  0.874033607733459  0.2558044924831577  0.3398286561532374  1.0000
  C   C154      1.0  0.1259688300874799  0.7441974918775144  0.6601697210377822  1.0000
  C   C155      1.0  0.8508251661601419  0.2687434901485587  0.5604735937661758  1.0000
  C   C156      1.0  0.14917899154077216  0.731257956170026  0.4395242163285858  1.0000
  C   C157      1.0  0.9381770274750565  0.5635389842727817  0.3138673742336379  1.0000
  C   C158      1.0  0.0618208020116171  0.43646407229848444  0.6861341864711932  1.0000
  C   C159      1.0  0.9438066495629233  0.48804955166463765  0.3475703127625353  1.0000
  C   C160      1.0  0.05619230759151609  0.5119529666719772  0.6524326161368065  1.0000
  C   C161      1.0  0.82805607183262  0.315249873639651  0.3397127410803904  1.0000
  C   C162      1.0  0.1719440592587773  0.6847515451673517  0.6602849565979766  1.0000
  C   C163      1.0  0.9077589183575512  0.44854206407488567  0.418817410106037  1.0000
  C   C164      1.0  0.09223829922316902  0.5514593433038755  0.581184500245456  1.0000
  C   C165      1.0  0.9308443764263503  0.3109293392367221  0.6315184465453996  1.0000
  C   C166      1.0  0.0691590863932703  0.6890671694827973  0.36848155037347413  1.0000
  C   C167      1.0  0.9136187489547184  0.17054836949372998  0.21429123176730505  1.0000
  C   C168      1.0  0.0863831638981409  0.8294552532088629  0.7857052025778798  1.0000
  C   C169      1.0  0.9250066498795206  0.19993980476564843  0.2575649251759203  1.0000
  C   C170      1.0  0.07499694066558502  0.8000621869571205  0.7424332239540375  1.0000
  C   C171      1.0  0.863965166309143  0.5634262346787651  0.4212006351824298  1.0000
  C   C172      1.0  0.13603434879484413  0.43657518916842974  0.5788017296770533  1.0000
  C   C173      1.0  0.8686525518013967  0.48765246149972086  0.4555477000275586  1.0000
  C   C174      1.0  0.13134701201526872  0.512351156072043  0.5444541989053918  1.0000
  C   C175      1.0  0.9446272058500397  0.2747040448704183  0.41254693481484134  1.0000
  C   C176      1.0  0.05537419776594991  0.725302866046178  0.587449597643669  1.0000
  C   C177      1.0  0.9325523603712041  0.23630804981088716  0.37681363813697294  1.0000
  C   C178      1.0  0.06744899056957368  0.76369666825326  0.6231838155631237  1.0000
  C   C179      1.0  0.7795301675872749  0.34802584499781375  0.8319389589728986  1.0000
  C   C180      1.0  0.22046705011236872  0.6519739090203772  0.1680590891592004  1.0000
  C   C181      1.0  0.8928561140634628  0.3113139954487848  0.8853311217712803  1.0000
  C   C182      1.0  0.10713465562151471  0.6886818840745974  0.11467161412968344  1.0000
  N   N1        1.0  0.41935643765300773  0.08269860711705232  0.0605243383213292  1.0000
  N   N2        1.0  0.5806452524925022  0.9172979001526755  0.9394810091547753  1.0000
  N   N3        1.0  0.0243429553882066  0.0473464215017501  0.0796617003179776  1.0000
  N   N4        1.0  0.9756605390127503  0.952651733601357  0.9203385162998146  1.0000
  N   N5        1.0  0.6408972562390077  0.4293356873473755  0.3959587567484489  1.0000
  N   N6        1.0  0.35910516841313006  0.570665748800181  0.6040398507529687  1.0000
  N   N7        1.0  0.9091768966530439  0.3715967096048232  0.45030938425779243  1.0000
  N   N8        1.0  0.0908221172580568  0.6284063473515572  0.5496883058655087  1.0000
  N   N9        1.0  0.8102361018397275  0.305625106101175  0.8932437639213759  1.0000
  N   N10       1.0  0.1897552784700096  0.6943718717852363  0.10675748669815016  1.0000
  O   O1        1.0  0.7585526469163214  0.1183959111952575  0.1627212884571421  1.0000
  O   O2        1.0  0.2414521240906708  0.8816060817847459  0.837273445406346  1.0000
  O   O3        1.0  0.9029089493021729  0.09113954111432317  0.9896231909837353  1.0000
  O   O4        1.0  0.0970879552925012  0.908872826845638  0.010374227190347118  1.0000
  O   O5        1.0  0.5765804647959384  0.0021229352475344997  0.09769592692519782  1.0000
  O   O6        1.0  0.42342535078456217  0.9978768844518267  0.9023058745296313  1.0000
  O   O7        1.0  0.772949407423532  0.084077769716238  0.008195986536136951  1.0000
  O   O8        1.0  0.22704832079418943  0.9159192469174398  0.9918030991174192  1.0000
  O   O9        1.0  0.6681269218716467  0.016273404238688696  0.1470950864659742  1.0000
  O   O10       1.0  0.3318736471310331  0.9837247420525299  0.8529107087701179  1.0000
  O   O11       1.0  0.6293926456305458  0.17027610538373486  0.0662316560111051  1.0000
  O   O12       1.0  0.37060145834506397  0.8297159657111237  0.9337756503999158  1.0000
  O   O13       1.0  0.8732832101718841  0.942819767270258  0.1307550557660664  1.0000
  O   O14       1.0  0.1267261282628454  0.05718061139089769  0.8692399120994166  1.0000
  O   O15       1.0  0.5075083791882804  0.1439483581778163  0.12489440769614654  1.0000
  O   O16       1.0  0.49248702236830877  0.8560497506233773  0.8751101372394388  1.0000
  O   O17       1.0  0.5770064316906841  0.1247465482892736  0.9502469097665127  1.0000
  O   O18       1.0  0.4229919425767362  0.8752548655794569  0.04975431720885835  1.0000
  O   O19       1.0  0.8880049615829577  0.1228859078482998  0.12145774562925037  1.0000
  O   O20       1.0  0.1119980724127245  0.8771160758328023  0.8785382409559475  1.0000
  O   O21       1.0  0.788692049559579  0.22165559507960353  0.008236829159216105  1.0000
  O   O22       1.0  0.21129585544632332  0.7783408133795361  0.9917657912689534  1.0000
  O   O23       1.0  0.8847098068389414  0.9568721385162103  0.2240550618305905  1.0000
  O   O24       1.0  0.11529952238952036  0.04312769105970919  0.7759396810302305  1.0000
  O   O25       1.0  0.5417043953360476  0.23409797885496877  0.9483230525987736  1.0000
  O   O26       1.0  0.4583026611877017  0.7659056865703988  0.051677363937265894  1.0000
