data_image0
_chemical_formula_structural       Zn6H36C30N48
_chemical_formula_sum              "Zn6 H36 C30 N48"
_cell_length_a       9.576072126381899
_cell_length_b       9.57605878349108
_cell_length_c       20.388165290699188
_cell_angle_alpha    89.99678729510818
_cell_angle_beta     90.00330226074574
_cell_angle_gamma    120.00071111789325

_space_group_name_H-M_alt    "P 1"
_space_group_IT_number       1

loop_
  _space_group_symop_operation_xyz
  'x, y, z'

loop_
  _atom_site_type_symbol
  _atom_site_label
  _atom_site_symmetry_multiplicity
  _atom_site_fract_x
  _atom_site_fract_y
  _atom_site_fract_z
  _atom_site_occupancy
  Zn  Zn1       1.0  0.9346592076079361  0.509871068944946  0.4171867549831559  1.0000
  Zn  Zn2       1.0  0.4900857237104574  0.42475321011545475  0.7505168411101408  1.0000
  Zn  Zn3       1.0  0.5752237075079378  0.06533601557907079  0.0838502628049369  1.0000
  Zn  Zn4       1.0  0.5098726549020043  0.9346572747435573  0.5828120382406751  1.0000
  Zn  Zn5       1.0  0.06533351095844606  0.5752241718300724  0.9161506913225922  1.0000
  Zn  Zn6       1.0  0.4247562279521802  0.4900895537225338  0.24948372198422672  1.0000
  H   H1        1.0  0.9867452471352178  0.64042626903705  0.5603388723733786  1.0000
  H   H2        1.0  0.3595633739716319  0.3463153974275385  0.8936952399774825  1.0000
  H   H3        1.0  0.6536945701080653  0.013273242907686748  0.22704392758714684  1.0000
  H   H4        1.0  0.6404265755254172  0.986743410299809  0.43965998703272646  1.0000
  H   H5        1.0  0.013270586888019402  0.6536924958561415  0.7729580171054592  1.0000
  H   H6        1.0  0.34631466290250756  0.3595656691148577  0.10630524734514071  1.0000
  H   H7        1.0  0.14282781770289413  0.8060656397908373  0.5993967768797859  1.0000
  H   H8        1.0  0.1939463350731074  0.3367650155703714  0.93277606415203  1.0000
  H   H9        1.0  0.6632516422486887  0.85719615977996  0.2661216467943603  1.0000
  H   H10       1.0  0.8060657676522142  0.14282517204564016  0.4006023271631065  1.0000
  H   H11       1.0  0.8571951075936254  0.663249553244853  0.7338791358353377  1.0000
  H   H12       1.0  0.33676341043875624  0.19394880260681194  0.0672253406255052  1.0000
  H   H13       1.0  0.9354854050233641  0.05784305363916781  0.24183175366150778  1.0000
  H   H14       1.0  0.942158662201969  0.8776665149131304  0.5751549662780846  1.0000
  H   H15       1.0  0.1223306707376537  0.064504703841223  0.9084876636511436  1.0000
  H   H16       1.0  0.05784639406162714  0.9354799841344598  0.758167366568614  1.0000
  H   H17       1.0  0.06450169269909617  0.12232900130579338  0.0915116545967791  1.0000
  H   H18       1.0  0.8776692607676039  0.9421618551952661  0.4248459248470553  1.0000
  H   H19       1.0  0.1309182155146401  0.16716852190243256  0.215166545970078  1.0000
  H   H20       1.0  0.832820532730814  0.9637653874323533  0.548479000651966  1.0000
  H   H21       1.0  0.03620465408241078  0.8690745325164497  0.8818083115919747  1.0000
  H   H22       1.0  0.16716859033567738  0.13091370009739484  0.784830850760315  1.0000
  H   H23       1.0  0.8690715223989756  0.03620485896255589  0.11819126704180859  1.0000
  H   H24       1.0  0.9637696089276487  0.832823973921151  0.4515223725472949  1.0000
  H   H25       1.0  0.27309082741284385  0.763848963480264  0.31089548133751777  1.0000
  H   H26       1.0  0.2361115551127638  0.5091716905726997  0.6442304764143287  1.0000
  H   H27       1.0  0.4907948747621091  0.7268993951017819  0.9775862171708309  1.0000
  H   H28       1.0  0.7638488956322362  0.2730928910300465  0.689104635514802  1.0000
  H   H29       1.0  0.726897189870094  0.4907973804771474  0.022414946124733597  1.0000
  H   H30       1.0  0.5091742325058205  0.23611354599626105  0.3557685537981569  1.0000
  H   H31       1.0  0.41777098347207425  0.7123059960448684  0.33710109935031346  1.0000
  H   H32       1.0  0.2876632118239398  0.7053781855080103  0.6704462249043034  1.0000
  H   H33       1.0  0.29457368512983334  0.5822764422233389  0.0037960197757555994  1.0000
  H   H34       1.0  0.7123033784451779  0.41777178979733537  0.6628975798009549  1.0000
  H   H35       1.0  0.5822734279090297  0.29457506506048486  0.9962055104602355  1.0000
  H   H36       1.0  0.7053824110749076  0.2876671164839594  0.32955338559004593  1.0000
  C   C1        1.0  0.1929101154497417  0.7603918544314254  0.5072617787533673  1.0000
  C   C2        1.0  0.23960482531884958  0.43252287809435336  0.8406273459458403  1.0000
  C   C3        1.0  0.5674988237653339  0.8071148273216125  0.17397146499495617  1.0000
  C   C4        1.0  0.7603928655401477  0.1929095628739221  0.49273830783287303  1.0000
  C   C5        1.0  0.8071101925503185  0.5674966340544642  0.8260302456884077  1.0000
  C   C6        1.0  0.43252188932407876  0.23960924653040647  0.15937263863070678  1.0000
  C   C7        1.0  0.28459744095327005  0.7333053889584136  0.41427268571304404  1.0000
  C   C8        1.0  0.2666713524348695  0.5512315894494864  0.7476094252867823  1.0000
  C   C9        1.0  0.4487450645437646  0.71544977646964  0.0809626913392734  1.0000
  C   C10       1.0  0.7333058045605371  0.28459635296595553  0.5857264433264929  1.0000
  C   C11       1.0  0.7154459564902423  0.44874469999020056  0.9190384525807928  1.0000
  C   C12       1.0  0.5512335717402693  0.26667526273519837  0.25239012169514297  1.0000
  C   C13       1.0  0.29337396306990365  0.6859820385284366  0.3450116880622928  1.0000
  C   C14       1.0  0.3140155373802287  0.6073295262443565  0.6783382567895657  1.0000
  C   C15       1.0  0.3926592939363829  0.7066687931922075  0.011689989795243601  1.0000
  C   C16       1.0  0.685984269204397  0.29337586023983425  0.6549864460291558  1.0000
  C   C17       1.0  0.7066674210432139  0.39265890520248786  0.9883126020886266  1.0000
  C   C18       1.0  0.6073339318403869  0.31401955542085586  0.32166181819894046  1.0000
  C   C19       1.0  0.1772523063727789  0.5126287433558475  0.32865439068076807  1.0000
  C   C20       1.0  0.48735880458957576  0.6645759169687365  0.6619759643200424  1.0000
  C   C21       1.0  0.3354305990821444  0.8227797207077999  0.9952989672236326  1.0000
  C   C22       1.0  0.5126291548085505  0.17725211534141033  0.6713441289696434  1.0000
  C   C23       1.0  0.8227783392296432  0.3354314616565263  0.004702174544306099  1.0000
  C   C24       1.0  0.6645799909666578  0.48736149940690865  0.3380246847429262  1.0000
  C   C25       1.0  0.06909678158788778  0.2747717300363206  0.2862559948890109  1.0000
  C   C26       1.0  0.725189635309178  0.7943005335237813  0.6195671055802094  1.0000
  C   C27       1.0  0.20569895111458436  0.9309032853922473  0.9528829048101384  1.0000
  C   C28       1.0  0.2747723459196436  0.06909285611582307  0.7137419089159351  1.0000
  C   C29       1.0  0.9308994753643204  0.20569977684937868  0.0471162671703169  1.0000
  C   C30       1.0  0.7943057745974829  0.7251938386424828  0.38043416718529954  1.0000
  N   N1        1.0  0.35450105594137693  0.8395724287534565  0.5104392898853688  1.0000
  N   N2        1.0  0.16044059721572523  0.5149496771934352  0.843787288838868  1.0000
  N   N3        1.0  0.485064990970123  0.6455104292181557  0.17713658241465416  1.0000
  N   N4        1.0  0.8395734321134967  0.3545007193061379  0.489560883969176  1.0000
  N   N5        1.0  0.6455088603726864  0.48506202313397745  0.8228635684239051  1.0000
  N   N6        1.0  0.5149500983388506  0.160445225559755  0.1562126969368194  1.0000
  N   N7        1.0  0.41347037318525537  0.8230215166997965  0.45050603965882624  1.0000
  N   N8        1.0  0.17696997417307606  0.5904192872190066  0.7838404568582932  1.0000
  N   N9        1.0  0.40957998001708523  0.5865690877244276  0.11719764021897557  1.0000
  N   N10       1.0  0.8230229690209327  0.4134681133672869  0.5494931686414972  1.0000
  N   N11       1.0  0.5865655101703668  0.4095772902126599  0.8828024618634628  1.0000
  N   N12       1.0  0.5904226385159176  0.17697400073534195  0.2161590718314059  1.0000
  N   N13       1.0  0.14416805380984937  0.6922493523080391  0.4470305091168356  1.0000
  N   N14       1.0  0.30774097863725547  0.451882619146751  0.7803965107966988  1.0000
  N   N15       1.0  0.5481177758543011  0.8558755813830603  0.11373315168178519  1.0000
  N   N16       1.0  0.6922496033900742  0.14416663269288682  0.552968554142751  1.0000
  N   N17       1.0  0.8558726882018844  0.5481161492538789  0.8862680791864362  1.0000
  N   N18       1.0  0.4518851550283571  0.30774659416095324  0.2196035055264502  1.0000
  N   N19       1.0  0.08901541273701227  0.7533298620621095  0.5554222123044567  1.0000
  N   N20       1.0  0.24667564546080467  0.3357148822870855  0.8887954037080802  1.0000
  N   N21       1.0  0.6643042308968674  0.9109849808176447  0.22213415051548682  1.0000
  N   N22       1.0  0.7533312303885255  0.08901390855714206  0.4445768531202035  1.0000
  N   N23       1.0  0.9109823307770951  0.664301800725383  0.7778676329361999  1.0000
  N   N24       1.0  0.33571347625763076  0.24667836014855743  0.11120552932016639  1.0000
  N   N25       1.0  0.20988419294081237  0.42084426637413946  0.28745814337739267  1.0000
  N   N26       1.0  0.5791016508819593  0.7889804397191115  0.6207717559296171  1.0000
  N   N27       1.0  0.2110398957810344  0.7901439003674752  0.9540845725589477  1.0000
  N   N28       1.0  0.4208408403693511  0.20988010941444205  0.7125413357928566  1.0000
  N   N29       1.0  0.7901415585978029  0.21103965221624327  0.04591602181331209  1.0000
  N   N30       1.0  0.7889855509460446  0.5791055837414376  0.37922897147694096  1.0000
  N   N31       1.0  0.027053154603414942  0.4284014961042857  0.3505882395402935  1.0000
  N   N32       1.0  0.5715898048529623  0.5986197067172654  0.683910331134065  1.0000
  N   N33       1.0  0.40139036720233195  0.9729809448457446  0.0172284952115689  1.0000
  N   N34       1.0  0.4284034978435259  0.027053130211044198  0.6494106856389193  1.0000
  N   N35       1.0  0.9729799501270265  0.4013930231769648  0.9827727248885623  1.0000
  N   N36       1.0  0.5986206131556954  0.5715917607173607  0.3160903245193083  1.0000
  N   N37       1.0  0.955244182121554  0.27434097484445646  0.32441528093509936  1.0000
  N   N38       1.0  0.725635009585986  0.6808680537871512  0.6577240944247293  1.0000
  N   N39       1.0  0.31912917698952736  0.04477453625935369  0.9910453808122242  1.0000
  N   N40       1.0  0.2743433300246138  0.955242818863887  0.6755824534203185  1.0000
  N   N41       1.0  0.04476861333325382  0.31912837764548385  0.0089549825265181  1.0000
  N   N42       1.0  0.6808712888187357  0.7256371019434553  0.34227664690693155  1.0000
  N   N43       1.0  0.051440278159681385  0.1437097515279433  0.2522578759968965  1.0000
  N   N44       1.0  0.8562558963843613  0.9077213056027489  0.585571686194413  1.0000
  N   N45       1.0  0.09227580002389847  0.9485512759585006  0.9189011070518162  1.0000
  N   N46       1.0  0.14370966480633027  0.051435511836707797  0.7477409548656125  1.0000
  N   N47       1.0  0.9485471625023507  0.09227261590318388  0.08109803026285078  1.0000
  N   N48       1.0  0.9077250865526733  0.856257660996192  0.4144286942404207  1.0000
