data_image0
_chemical_formula_structural       Al6H50C101O33
_chemical_formula_sum              "Al6 H50 C101 O33"
_cell_length_a       12.825249550052042
_cell_length_b       12.728008556655904
_cell_length_c       27.629516241794477
_cell_angle_alpha    89.10605337646685
_cell_angle_beta     88.21211408944761
_cell_angle_gamma    61.40427198001734

_space_group_name_H-M_alt    "P 1"
_space_group_IT_number       1

loop_
  _space_group_symop_operation_xyz
  'x, y, z'

loop_
  _atom_site_type_symbol
  _atom_site_label
  _atom_site_symmetry_multiplicity
  _atom_site_fract_x
  _atom_site_fract_y
  _atom_site_fract_z
  _atom_site_occupancy
  Al  Al1       1.0  0.42417220574688486  0.1814523863094664  0.5031086256933435  1.0000
  Al  Al2       1.0  0.6594725773965564  0.9239360840096257  0.501316723835977  1.0000
  Al  Al3       1.0  0.4221069522462882  0.9315576596142991  0.5010301578402334  1.0000
  Al  Al4       1.0  0.9119871591210041  0.1601886656013889  0.017080874011355697  1.0000
  Al  Al5       1.0  0.9122033860491072  0.4119883958454481  0.017831340530982204  1.0000
  Al  Al6       1.0  0.6771732433576291  0.4156725733301272  0.0179155554689032  1.0000
  H   H1        1.0  0.8211967765627789  0.710155141982348  0.7871821068444333  1.0000
  H   H2        1.0  0.3061314326657296  0.22686181993585558  0.7927648822981369  1.0000
  H   H3        1.0  0.13442550184398533  0.3582607146870487  0.7222661920927322  1.0000
  H   H4        1.0  0.9620243900066184  0.3271745983622623  0.7786871602597287  1.0000
  H   H5        1.0  0.4718106516243382  0.3270766416828507  0.7833632291747961  1.0000
  H   H6        1.0  0.6269721027211617  0.34894071140553967  0.7131166414008447  1.0000
  H   H7        1.0  0.5201902102427524  0.10650269939003458  0.7407391318063574  1.0000
  H   H8        1.0  0.7120995379677172  0.984677008858206  0.8048526923374907  1.0000
  H   H9        1.0  0.8673950459244822  0.006403343857101596  0.7345893424764115  1.0000
  H   H10       1.0  0.818915754301379  0.22736574400252613  0.7772466949956396  1.0000
  H   H11       1.0  0.8883407162093774  0.5692559337774767  0.1426378151884364  1.0000
  H   H12       1.0  0.8480513912939216  0.5366614301870101  0.7176177710367782  1.0000
  H   H13       1.0  0.814617954558294  0.7066378565293192  0.3820230669124315  1.0000
  H   H14       1.0  0.9694928592896725  0.5948247769399302  0.21960991611472022  1.0000
  H   H15       1.0  0.9455322664860403  0.6386386295778124  0.3069357098902331  1.0000
  H   H16       1.0  0.5262446245694007  0.6386288260801578  0.1383101444821619  1.0000
  H   H17       1.0  0.36961912839313976  0.759423990377698  0.30069748806769075  1.0000
  H   H18       1.0  0.45170895085541196  0.7782096240929519  0.3766903192710416  1.0000
  H   H19       1.0  0.01268751558053079  0.08873226794266031  0.1539563700202748  1.0000
  H   H20       1.0  0.1904944448183129  0.9966517728865726  0.38629662062215436  1.0000
  H   H21       1.0  0.022555349731128136  0.9912397722250361  0.2342694060328867  1.0000
  H   H22       1.0  0.6118408411515475  0.8792930555856343  0.7413391921857624  1.0000
  H   H23       1.0  0.08476748919264314  0.9594209706676152  0.31929885892153465  1.0000
  H   H24       1.0  0.10671641747686775  0.369611379328397  0.14041105083394  1.0000
  H   H25       1.0  0.17402047115168529  0.4347336117484133  0.21270808016750922  1.0000
  H   H26       1.0  0.22626010945821662  0.4094882924091792  0.299042600721954  1.0000
  H   H27       1.0  0.26997477506606776  0.28772407258630045  0.37523844715895655  1.0000
  H   H28       1.0  0.4898647042483049  0.2815223935543187  0.3815433525084231  1.0000
  H   H29       1.0  0.3972963120392095  0.43464783552863656  0.22093088605303282  1.0000
  H   H30       1.0  0.40037801959495306  0.4070686616981902  0.3094164825116579  1.0000
  H   H31       1.0  0.8196474758579769  0.04064702423747239  0.12447411835330512  1.0000
  H   H32       1.0  0.4754342024791994  0.8075817274202352  0.802864466261248  1.0000
  H   H33       1.0  0.885381921272554  0.8595341042680786  0.283707801965285  1.0000
  H   H34       1.0  0.7973997409713506  0.9362793286839591  0.366236605105172  1.0000
  H   H35       1.0  0.5022700069377136  0.6339364421144821  0.7333531366035544  1.0000
  H   H36       1.0  0.7117008102342125  0.46495215212452473  0.7791964840345714  1.0000
  H   H37       1.0  0.19501997942288093  0.981692067216393  0.797253167889437  1.0000
  H   H38       1.0  0.023466120806482107  0.11307799251821388  0.7268809643326294  1.0000
  H   H39       1.0  0.3675224218282551  0.012676631873510799  0.7409258411346188  1.0000
  H   H40       1.0  0.20177797010788356  0.7745879178894131  0.19912511264889335  1.0000
  H   H41       1.0  0.24077397887195667  0.8293530654680906  0.2501855348449595  1.0000
  H   H42       1.0  0.2395634842964754  0.5936851842638049  0.23664719638090764  1.0000
  H   H43       1.0  0.35225534240201034  0.5915068391765316  0.2727030567874777  1.0000
  H   H44       1.0  0.19995140629715266  0.7448405731831543  0.32825186648706517  1.0000
  H   H45       1.0  0.17086483333540065  0.62292667214718  0.32268003776021464  1.0000
  H   H46       1.0  0.0847002702664951  0.7573225551489815  0.2902890267832917  1.0000
  H   H47       1.0  0.37570848572465104  0.5595057396498008  0.1290965993207038  1.0000
  H   H48       1.0  0.9444132884686806  0.7800760689973031  0.1287105546422822  1.0000
  H   H49       1.0  0.39032661375013317  0.37786030199583115  0.4886878789980643  1.0000
  H   H50       1.0  0.045431751834300434  0.9631881693540975  0.9943364032031428  1.0000
  C   C1        1.0  0.6300760623121562  0.0916634053245531  0.5702873739976155  1.0000
  C   C2        1.0  0.6214834880954923  0.7397917296576466  0.6177880073574046  1.0000
  C   C3        1.0  0.6894549262909848  0.5571437347764243  0.7701581609094958  1.0000
  C   C4        1.0  0.6748559820463738  0.6536367717163926  0.809486884082979  1.0000
  C   C5        1.0  0.5731039827780221  0.650790919586356  0.7456781500212912  1.0000
  C   C6        1.0  0.6485006733343682  0.6906347291190045  0.7110130614442343  1.0000
  C   C7        1.0  0.5579786835736298  0.7475561386736159  0.7834648723570652  1.0000
  C   C8        1.0  0.6340259294556957  0.7870936994517023  0.7503429533595707  1.0000
  C   C9        1.0  0.6889681219419398  0.6300014022580528  0.8597615203121765  1.0000
  C   C10       1.0  0.6345827718479811  0.7146644644273651  0.6607538997797135  1.0000
  C   C11       1.0  0.08604484632321166  0.1384082364511912  0.7420053191802012  1.0000
  C   C12       1.0  0.6009459155584195  0.7905599129895933  0.5699653820404222  1.0000
  C   C13       1.0  0.18183763104524792  0.06505412897768541  0.7801666017172408  1.0000
  C   C14       1.0  0.10392653265807884  0.21862123713184195  0.9029314255530352  1.0000
  C   C15       1.0  0.23161966234699344  0.12384995484557489  0.6170359072856614  1.0000
  C   C16       1.0  0.05222907480281685  0.2572101917003593  0.7696103098474439  1.0000
  C   C17       1.0  0.1479280345075934  0.18390749836164136  0.8091680247983392  1.0000
  C   C18       1.0  0.14771964491289674  0.274962078902881  0.7394475633086303  1.0000
  C   C19       1.0  0.18179741645083408  0.15606969061688863  0.7104679310163178  1.0000
  C   C20       1.0  0.24360156141312223  0.20158669159189196  0.7775512901191349  1.0000
  C   C21       1.0  0.27738515601001973  0.0827364371094674  0.7500169150607974  1.0000
  C   C22       1.0  0.1264831214704571  0.2017354708427419  0.8596427798785697  1.0000
  C   C23       1.0  0.28465831488758647  0.10121584202095592  0.5691271047592181  1.0000
  C   C24       1.0  0.20523653916172438  0.1388421968605797  0.6600764403431896  1.0000
  C   C25       1.0  0.645854857022961  0.2685585801241146  0.7341262720358941  1.0000
  C   C26       1.0  0.5596279267223495  0.25585922782827447  0.7721548232452876  1.0000
  C   C27       1.0  0.6835081446948124  0.2255727755524788  0.8995771895956042  1.0000
  C   C28       1.0  0.6628887440851158  0.1088944317281531  0.6175867634879709  1.0000
  C   C29       1.0  0.7527169711877235  0.2003192916799463  0.7683229403821559  1.0000
  C   C30       1.0  0.6661351085681132  0.18839340516261419  0.8076496834848754  1.0000
  C   C31       1.0  0.7797013476851474  0.07770575815631281  0.7458685011267291  1.0000
  C   C32       1.0  0.6734178439046801  0.14513916249595846  0.7103000972919844  1.0000
  C   C33       1.0  0.6934131351193501  0.06507237874657791  0.7838782472659531  1.0000
  C   C34       1.0  0.6321785341122066  0.08960300177474069  0.4313131770815701  1.0000
  C   C35       1.0  0.5866228696160931  0.133288553053525  0.7496039082540803  1.0000
  C   C36       1.0  0.6705386685082854  0.2093082959697341  0.8573697484558381  1.0000
  C   C37       1.0  0.6714333866728878  0.12452971093333079  0.6603609412946199  1.0000
  C   C38       1.0  0.7423851985462804  0.7098497080219914  0.36117706649524456  1.0000
  C   C39       1.0  0.7594628764997892  0.6815325407369386  0.3116504901646167  1.0000
  C   C40       1.0  0.7884469881599543  0.6283108498495408  0.2103952881276996  1.0000
  C   C41       1.0  0.884392334772066  0.6210739548197708  0.23812396867020885  1.0000
  C   C42       1.0  0.8708296600243198  0.64603848469298  0.28649266616191943  1.0000
  C   C43       1.0  0.8024689341307861  0.5990180946258477  0.1610591006855628  1.0000
  C   C44       1.0  0.7084461596305829  0.6019929295545977  0.1354777461229375  1.0000
  C   C45       1.0  0.6081961326670182  0.7869036969641882  0.4349291210946333  1.0000
  C   C46       1.0  0.5370776759409566  0.7499488151195524  0.35806283963267305  1.0000
  C   C47       1.0  0.5501579262019546  0.7239901126171445  0.30844069458909473  1.0000
  C   C48       1.0  0.6623958398752092  0.68951976142386  0.28477284054893204  1.0000
  C   C49       1.0  0.4537179377160781  0.7321223017708008  0.2813147176880477  1.0000
  C   C50       1.0  0.4666439584016543  0.7063779391896503  0.2326728887560847  1.0000
  C   C51       1.0  0.5797242444676982  0.6696284800280947  0.2075856053997711  1.0000
  C   C52       1.0  0.6762377165494654  0.663185667616041  0.23442679934714047  1.0000
  C   C53       1.0  0.597578518352087  0.6382445089054086  0.1585390859596885  1.0000
  C   C54       1.0  0.6317163740760634  0.743987623479171  0.3841167757995906  1.0000
  C   C55       1.0  0.19005130736191939  0.0697334885721119  0.36503043270543156  1.0000
  C   C56       1.0  0.2964811884401897  0.10707861062117269  0.43223969638879833  1.0000
  C   C57       1.0  0.1442408645850151  0.09333649205914438  0.3182889545866132  1.0000
  C   C58       1.0  0.07243467482457076  0.12999681407682576  0.2200411617172691  1.0000
  C   C59       1.0  0.05914273896356549  0.04412279405107711  0.250097041829612  1.0000
  C   C60       1.0  0.0937819225681977  0.026383511798926  0.2970857493338102  1.0000
  C   C61       1.0  0.04474242834487541  0.1441860995738296  0.1709377525061484  1.0000
  C   C62       1.0  0.05738359807594407  0.22982966986925388  0.1426034416606186  1.0000
  C   C63       1.0  0.23533057670469051  0.23429106731473578  0.3584366851389689  1.0000
  C   C64       1.0  0.19359938561595413  0.25870434426838773  0.3111270763203535  1.0000
  C   C65       1.0  0.15040735942685754  0.185565506084771  0.290091881053563  1.0000
  C   C66       1.0  0.19669998228855687  0.3518019953735346  0.2822412657022895  1.0000
  C   C67       1.0  0.7654745750758066  0.596670291668694  0.7370147906885833  1.0000
  C   C68       1.0  0.1670570157389903  0.36621540528387425  0.2346774900638522  1.0000
  C   C69       1.0  0.12697759530212946  0.29171712159369184  0.21209303062110513  1.0000
  C   C70       1.0  0.11590867516517273  0.20306033159234724  0.24097562063974465  1.0000
  C   C71       1.0  0.09760224563659385  0.30341511831589674  0.16306808789526175  1.0000
  C   C72       1.0  0.23722005214352745  0.1382305381776447  0.3846041577205028  1.0000
  C   C73       1.0  0.5580103080539514  0.21426912550238347  0.35791276873914063  1.0000
  C   C74       1.0  0.556449956623794  0.23217575469068658  0.307842581920525  1.0000
  C   C75       1.0  0.5560930467284348  0.26646472408778266  0.2058990183319267  1.0000
  C   C76       1.0  0.4656291048808185  0.3533651466200141  0.2370207814814975  1.0000
  C   C77       1.0  0.46726778413222564  0.3382648814363803  0.28590294288905943  1.0000
  C   C78       1.0  0.7503469029177126  0.693406567129756  0.7748052215807492  1.0000
  C   C79       1.0  0.5613503972896864  0.2871460693893297  0.15585078245366904  1.0000
  C   C80       1.0  0.6607679374175319  0.20683417535595078  0.1282687942459688  1.0000
  C   C81       1.0  0.7321168243572131  0.018861535100470003  0.349473480745182  1.0000
  C   C82       1.0  0.734083956432947  0.0339082582749413  0.29903141781633746  1.0000
  C   C83       1.0  0.6451857449785906  0.14140003663208492  0.2776560903577163  1.0000
  C   C84       1.0  0.8203393392757689  0.9437388983081191  0.2679225677717341  1.0000
  C   C85       1.0  0.8220471727954646  0.9585864303785953  0.2185799885127651  1.0000
  C   C86       1.0  0.7374811739305399  0.06965062752748  0.19651995782180626  1.0000
  C   C87       1.0  0.6461947003734064  0.1584233378587783  0.22670627089081563  1.0000
  C   C88       1.0  0.7454810638791116  0.09906355809179251  0.14802746717141702  1.0000
  C   C89       1.0  0.7028652024550792  0.6056997921611114  0.9027905390571791  1.0000
  C   C90       1.0  0.6444623378831481  0.10855436732261842  0.37859398460923194  1.0000
  C   C91       1.0  0.053815889148289366  0.2425494547518454  0.9513379351743083  1.0000
  C   C92       1.0  0.7266879629937151  0.554854021163422  0.9505640603474674  1.0000
  C   C93       1.0  0.7168840557333311  0.24529421735520876  0.9463463779422199  1.0000
  C   C94       1.0  0.02034656526816287  0.24471373053971493  0.0912531965560959  1.0000
  C   C95       1.0  0.731025266969631  0.5538133394614276  0.0853494956435412  1.0000
  C   C96       1.0  0.6903888722180154  0.240702937961629  0.0800919272300646  1.0000
  C   C97       1.0  0.26460271054202167  0.7488828176150689  0.22856819186397107  1.0000
  C   C98       1.0  0.2623226939257605  0.6491840142552618  0.2595874960551257  1.0000
  C   C99       1.0  0.1744341834769614  0.6964099967567421  0.30260567921767034  1.0000
  C   C100      1.0  0.45756473528434316  0.39015267412666793  0.1327890456432144  1.0000
  C   C101      1.0  0.9131577919373653  0.8558078026893907  0.18993181854052216  1.0000
  O   O1        1.0  0.3114866817489528  0.17739111429702353  0.5514265050511611  1.0000
  O   O2        1.0  0.6875258235783621  0.8013443358967435  0.4563655021227362  1.0000
  O   O3        1.0  0.5056844721447079  0.8142544400423259  0.4538997532548876  1.0000
  O   O4        1.0  0.3110905530970527  0.009309277286739397  0.453005792475068  1.0000
  O   O5        1.0  0.5033646933819612  0.0103352928813578  0.5018051203015474  1.0000
  O   O6        1.0  0.8207633644394433  0.17215032048311943  0.9590954944766636  1.0000
  O   O7        1.0  0.03275509789322939  0.1644189718623323  0.9712905862172647  1.0000
  O   O8        1.0  0.02913312219403958  0.3449347907498037  0.9696331281162005  1.0000
  O   O9        1.0  0.8268168260842329  0.5286065728220635  0.9684006000393666  1.0000
  O   O10       1.0  0.6467241292513746  0.5340843300246547  0.9706314327658705  1.0000
  O   O11       1.0  0.6397955126868167  0.33750877228604986  0.9702187465139502  1.0000
  O   O12       1.0  0.5268153732002006  0.1661150482620997  0.5576159270943677  1.0000
  O   O13       1.0  0.7843555601040036  0.1659529194339626  0.058614520877881694  1.0000
  O   O14       1.0  0.9883971447295465  0.1723841023809101  0.0752001790604169  1.0000
  O   O15       1.0  0.019485870287375865  0.3326532049298478  0.0668644485194889  1.0000
  O   O16       1.0  0.830446368903139  0.5313753596904718  0.06440452355490581  1.0000
  O   O17       1.0  0.6543398894001199  0.530527346442703  0.06665386324282  1.0000
  O   O18       1.0  0.6223149784038354  0.348644393097551  0.0654611778568324  1.0000
  O   O19       1.0  0.8329106334868823  0.3313609383713185  0.016930312290597303  1.0000
  O   O20       1.0  0.706328557717846  0.9998840735977976  0.545741493674072  1.0000
  O   O21       1.0  0.6807224801073275  0.8141368150880341  0.5519859060176344  1.0000
  O   O22       1.0  0.5035950682453462  0.8137238306914653  0.5501243311778411  1.0000
  O   O23       1.0  0.3050422720266823  0.0018349324913983986  0.5491650756323736  1.0000
  O   O24       1.0  0.3324180549530524  0.17597463406054464  0.4484768552068204  1.0000
  O   O25       1.0  0.5460866308110398  0.1714643889741367  0.4547223644760906  1.0000
  O   O26       1.0  0.7067066285242659  0.9875372072707834  0.4491024969532447  1.0000
  O   O27       1.0  0.37855540030133017  0.7129170859313162  0.20469018649658471  1.0000
  O   O28       1.0  0.3852960652300582  0.37809279124438416  0.10914806380041851  1.0000
  O   O29       1.0  0.44743839467678015  0.4977662393996311  0.14431013942589035  1.0000
  O   O30       1.0  0.01096165679106045  0.7833170056610544  0.20491921220234843  1.0000
  O   O31       1.0  0.8773255622722258  0.8469520900492569  0.14527811165189772  1.0000
  O   O32       1.0  0.35033281074355216  0.3383554306734524  0.5044716929479094  1.0000
  O   O33       1.0  0.9848763441517221  0.002891691785372102  0.0192391650829791  1.0000
