data_image0
_chemical_formula_structural       Ag8H56C48Br8N8
_chemical_formula_sum              "Ag8 H56 C48 Br8 N8"
_cell_length_a       8.683218967
_cell_length_b       9.693617751495651
_cell_length_c       17.8849
_cell_angle_alpha    90.0
_cell_angle_beta     90.0
_cell_angle_gamma    99.6258262794396

_space_group_name_H-M_alt    "P 1"
_space_group_IT_number       1

loop_
  _space_group_symop_operation_xyz
  'x, y, z'

loop_
  _atom_site_type_symbol
  _atom_site_label
  _atom_site_symmetry_multiplicity
  _atom_site_fract_x
  _atom_site_fract_y
  _atom_site_fract_z
  _atom_site_occupancy
  Ag  Ag1       1.0  0.14085542146435873  0.6005479234719147  0.5171999843443373  1.0000
  Ag  Ag2       1.0  0.6408544827483524  0.1005489191673803  0.9828000156556627  1.0000
  Ag  Ag3       1.0  0.8591476705001072  0.3994553168283375  0.4828000156556628  1.0000
  Ag  Ag4       1.0  0.3591463059228205  0.8994543211328717  0.0171994252134482  1.0000
  Ag  Ag5       1.0  0.35683094819947314  0.3934734011306986  0.4892138060598583  1.0000
  Ag  Ag6       1.0  0.8568258570064557  0.8934703127587582  0.0107873122019129  1.0000
  Ag  Ag7       1.0  0.6431744470582856  0.6065298391695535  0.5107867530710238  1.0000
  Ag  Ag8       1.0  0.14316915315544074  0.1065266495120696  0.9892143651907475  1.0000
  H   H1        1.0  0.4226732046263991  0.8442306816908954  0.4938344637096108  1.0000
  H   H2        1.0  0.9226764818560725  0.3442295847098862  0.0061666545521675  1.0000
  H   H3        1.0  0.5773233680990871  0.1557746512858316  0.5061660954212783  1.0000
  H   H4        1.0  0.07732737111413711  0.6557715629138912  0.9938344637096108  1.0000
  H   H5        1.0  0.5345588049328995  0.0263687698961164  0.4009846294919157  1.0000
  H   H6        1.0  0.034560329610265214  0.5263709132153593  0.09901537050808433  1.0000
  H   H7        1.0  0.465439094483628  0.9736313313894271  0.599013693115424  1.0000
  H   H8        1.0  0.9654437186803977  0.4736312807466518  0.9009846294919157  1.0000
  H   H9        1.0  0.12288453678216632  0.900785263369599  0.2666025529916283  1.0000
  H   H10       1.0  0.6228845543923498  0.4007852127268308  0.23339632874659344  1.0000
  H   H11       1.0  0.8771131673139224  0.0992137915777036  0.7333957696157114  1.0000
  H   H12       1.0  0.37711719060501986  0.5992169812351875  0.7666014347298571  1.0000
  H   H13       1.0  0.025032989238774003  0.727673833844463  0.3663962336943456  1.0000
  H   H14       1.0  0.5250351148218045  0.22767273686345393  0.1336032071747653  1.0000
  H   H15       1.0  0.9749629975253598  0.2723283601175481  0.6336043254365435  1.0000
  H   H16       1.0  0.47496893346885843  0.7723294570985573  0.8663945563016853  1.0000
  H   H17       1.0  0.5191667253464871  0.0577076464152455  0.2477598421014378  1.0000
  H   H18       1.0  0.0191655560896535  0.5577076970580137  0.2522407170294514  1.0000
  H   H19       1.0  0.48083193507579136  0.9422903621938231  0.7522390396367911  1.0000
  H   H20       1.0  0.9808336902939773  0.44229345056576364  0.7477592829705487  1.0000
  H   H21       1.0  0.42607462847794153  0.1880123323500484  0.2887961352873063  1.0000
  H   H22       1.0  0.9260747298328553  0.6880123829928166  0.21120330558180464  1.0000
  H   H23       1.0  0.5739251835909799  0.8119856762590203  0.7112021873200263  1.0000
  H   H24       1.0  0.07392662452361523  0.3119877182927198  0.7887966944181954  1.0000
  H   H25       1.0  0.3290178957707255  0.0753373993607482  0.2175142159028027  1.0000
  H   H26       1.0  0.8290158891527996  0.5753384963417574  0.2824852249663152  1.0000
  H   H27       1.0  0.6709819162981959  0.9246606092483205  0.7824841067045369  1.0000
  H   H28       1.0  0.17098431355702812  0.42466160494378613  0.7175136567719136  1.0000
  H   H29       1.0  0.3679716554643022  0.3281191148836697  0.6594831394081027  1.0000
  H   H30       1.0  0.8679759727648958  0.8281170728499632  0.8405179788536685  1.0000
  H   H31       1.0  0.6320320021854613  0.6718809864018738  0.3405168605918973  1.0000
  H   H32       1.0  0.1320301632225522  0.1718777967443899  0.15948481680076304  1.0000
  H   H33       1.0  0.2828575623796894  0.1396903399155249  0.7539220236065063  1.0000
  H   H34       1.0  0.7828622703211894  0.6396903905582931  0.7460774172626046  1.0000
  H   H35       1.0  0.7171426403301313  0.8603097613700186  0.2460779763934937  1.0000
  H   H36       1.0  0.21714080136722205  0.3603065717125347  0.2539242601300558  1.0000
  H   H37       1.0  0.08069623941043605  0.8778966144478276  0.5721810018507228  1.0000
  H   H38       1.0  0.5806970180263704  0.3778944711285845  0.9278178798875062  1.0000
  H   H39       1.0  0.9193020506469978  0.12210557951418369  0.4278195572801664  1.0000
  H   H40       1.0  0.41929779681507284  0.6221014448040094  0.07218212011249392  1.0000
  H   H41       1.0  0.16913805111886407  0.0782483123344804  0.48598035214062923  1.0000
  H   H42       1.0  0.6691387181590756  0.57824522396254  0.0140179704667034  1.0000
  H   H43       1.0  0.8308633032376067  0.9217517889510631  0.5140196478593708  1.0000
  H   H44       1.0  0.33085800933475445  0.4217485992935792  0.9859820295332966  1.0000
  H   H45       1.0  0.15577870345419606  0.9060954299194536  0.7825310736990403  1.0000
  H   H46       1.0  0.6557789163848327  0.4060964256149191  0.7174678080391815  1.0000
  H   H47       1.0  0.8442207382498809  0.0939067640425648  0.2174689263009597  1.0000
  H   H48       1.0  0.34421937367259414  0.5939057683470992  0.2825321919608186  1.0000
  H   H49       1.0  0.1700225164689542  0.7821409707415015  0.7098530044898227  1.0000
  H   H50       1.0  0.6700225340791378  0.2821409200987333  0.7901458772484062  1.0000
  H   H51       1.0  0.8299759689089329  0.2178622695587435  0.2901469955101775  1.0000
  H   H52       1.0  0.3299751700169439  0.7178581348485693  0.2098530044898226  1.0000
  H   H53       1.0  0.9935963422067076  0.8451441349712923  0.7225570173721962  1.0000
  H   H54       1.0  0.493596436172247  0.3451451306667579  0.7774424234969147  1.0000
  H   H55       1.0  0.006401752530273101  0.1548570126524851  0.2774435417586929  1.0000
  H   H56       1.0  0.5063989646305417  0.6548539242805447  0.2225564582413071  1.0000
  C   C1        1.0  0.3587131988382026  0.8622831552839116  0.4432515697599655  1.0000
  C   C2        1.0  0.858716476067876  0.3622820583029025  0.05674843024003451  1.0000
  C   C3        1.0  0.641282397285039  0.1377169460016319  0.5567484302400347  1.0000
  C   C4        1.0  0.1412888989138281  0.6377149039679253  0.943249333236416  1.0000
  C   C5        1.0  0.4206624615634311  0.9625663045392443  0.39121549463514077  1.0000
  C   C6        1.0  0.9206638261407107  0.4625673002347099  0.10878506449574843  1.0000
  C   C7        1.0  0.5793331345598106  0.0374337967462992  0.6087850644957484  1.0000
  C   C8        1.0  0.07933752821575982  0.5374328010508336  0.8912143763733625  1.0000
  C   C9        1.0  0.33799922205651717  0.9788023349538336  0.3253722413879885  1.0000
  C   C10       1.0  0.8379990443462547  0.4788012379728244  0.17462719948112954  1.0000
  C   C11       1.0  0.6620009806533105  0.02119776633171  0.674625522088462  1.0000
  C   C12       1.0  0.16200576495015892  0.5211988633127191  0.8253711231262103  1.0000
  C   C13       1.0  0.19221624727741474  0.8933834666851368  0.3168751292990209  1.0000
  C   C14       1.0  0.6922162648876053  0.3933834160423686  0.1831254298318683  1.0000
  C   C15       1.0  0.8077828037857628  0.10661663460040671  0.6831248707009792  1.0000
  C   C16       1.0  0.30778182984937535  0.6066177315814087  0.8168728927754715  1.0000
  C   C17       1.0  0.13744673662829146  0.7963104831391519  0.3720496060922898  1.0000
  C   C18       1.0  0.6374467542384822  0.2963104324963837  0.1279487165150499  1.0000
  C   C19       1.0  0.8625527050757853  0.2036917108228593  0.6279492756459392  1.0000
  C   C20       1.0  0.36255575176463867  0.7036896687891598  0.8720479286996294  1.0000
  C   C21       1.0  0.40554938937185636  0.080735458322458  0.2664750711494079  1.0000
  C   C22       1.0  0.9055496860472161  0.5807365553034671  0.2335249288505921  1.0000
  C   C23       1.0  0.5944504226970724  0.9192625502866107  0.7335238105888209  1.0000
  C   C24       1.0  0.09445205895015361  0.419265638658544  0.76647563028029  1.0000
  C   C25       1.0  0.3026760859612949  0.22676451527424038  0.642763448495657  1.0000
  C   C26       1.0  0.8026792516152457  0.7267624732405409  0.857236551504343  1.0000
  C   C27       1.0  0.6973275716884687  0.7732355860113032  0.3572365515043431  1.0000
  C   C28       1.0  0.19732342943226663  0.2732323963538192  0.1427656850192065  1.0000
  C   C29       1.0  0.2550290143508747  0.1216933222490368  0.6948291575574929  1.0000
  C   C30       1.0  0.7550323753252713  0.6216923265535712  0.8051714015733965  1.0000
  C   C31       1.0  0.7449717743203054  0.8783099180512154  0.3051708424425073  1.0000
  C   C32       1.0  0.2449681977494009  0.3783035893790299  0.1948313940810422  1.0000
  C   C33       1.0  0.17339763998904092  0.9923555541302279  0.6710319878780453  1.0000
  C   C34       1.0  0.6733997655720715  0.4923544571492187  0.8289668938601837  1.0000
  C   C35       1.0  0.8266019970354892  0.0076476861700243  0.3289685712528438  1.0000
  C   C36       1.0  0.326598894850207  0.5076435514598501  0.1710331061398165  1.0000
  C   C37       1.0  0.14284332029647123  0.9767902265251891  0.5941257709017123  1.0000
  C   C38       1.0  0.6428427519453095  0.4767870368677052  0.9058731108365166  1.0000
  C   C39       1.0  0.8571561214076056  0.0232119674368292  0.4058731108365166  1.0000
  C   C40       1.0  0.35715147693478144  0.5232057400501802  0.09412800742525462  1.0000
  C   C41       1.0  0.1925300688838476  0.087686283227022  0.5458431414209741  1.0000
  C   C42       1.0  0.6925274763045692  0.5876842411933225  0.9541562994481368  1.0000
  C   C43       1.0  0.8074728277601652  0.9123159107349892  0.45415685857902593  1.0000
  C   C44       1.0  0.307469446509714  0.4123106284010376  0.0458453779445236  1.0000
  C   C45       1.0  0.12117030572505885  0.8758824133427155  0.7250513002588761  1.0000
  C   C46       1.0  0.6211714749818924  0.3758823626999401  0.7749475814793458  1.0000
  C   C47       1.0  0.878826637365279  0.1241187342810619  0.2749492588720059  1.0000
  C   C48       1.0  0.3788262291141963  0.6241166922473624  0.22505185938976524  1.0000
  Br  Br1       1.0  0.4028400254917131  0.6073710951116382  0.6040218284698257  1.0000
  Br  Br2       1.0  0.9028375444881505  0.10736999813062909  0.8959781715301744  1.0000
  Br  Br3       1.0  0.5971611335443116  0.3926279598356714  0.3959776123992853  1.0000
  Br  Br4       1.0  0.09716207226031771  0.8926269641402058  0.1040223876007147  1.0000
  Br  Br5       1.0  0.10765883075139021  0.4008050931533234  0.3963857779467617  1.0000
  Br  Br6       1.0  0.607658932106297  0.9008051437960916  0.1036147811841275  1.0000
  Br  Br7       1.0  0.8923413719584374  0.5991950081322202  0.6036153403150166  1.0000
  Br  Br8       1.0  0.3923412706035236  0.099194957489452  0.8963857779467618  1.0000
  N   N1        1.0  0.21913716583948434  0.7795826737534455  0.434288142511278  1.0000
  N   N2        1.0  0.7191415947158006  0.2795815767724434  0.06571241661960411  1.0000
  N   N3        1.0  0.7808592115655557  0.22042161288504053  0.5657124166196041  1.0000
  N   N4        1.0  0.280863605221505  0.7204206171895748  0.9342875833803959  1.0000
  N   N5        1.0  0.2718257843331884  0.21161249127258944  0.5692869403798753  1.0000
  N   N6        1.0  0.7718264513733928  0.711609402900649  0.9307130596201246  1.0000
  N   N7        1.0  0.7281767216699324  0.7883876100129541  0.4307125004892427  1.0000
  N   N8        1.0  0.22817257941373012  0.2883844203554773  0.06928917690342472  1.0000
