data_image0
_chemical_formula_structural       Zn2H28C28S2N8O8
_chemical_formula_sum              "Zn2 H28 C28 S2 N8 O8"
_cell_length_a       8.589820967001591
_cell_length_b       10.377945065529609
_cell_length_c       10.377951671534287
_cell_angle_alpha    105.6162077137482
_cell_angle_beta     90.00005818928045
_cell_angle_gamma    90.00002242393307

_space_group_name_H-M_alt    "P 1"
_space_group_IT_number       1

loop_
  _space_group_symop_operation_xyz
  'x, y, z'

loop_
  _atom_site_type_symbol
  _atom_site_label
  _atom_site_symmetry_multiplicity
  _atom_site_fract_x
  _atom_site_fract_y
  _atom_site_fract_z
  _atom_site_occupancy
  Zn  Zn1       1.0  0.3605785485485242  0.044770014337046894  0.9552300241138028  1.0000
  Zn  Zn2       1.0  0.8605781432268175  0.9552301768952985  0.0447706915415438  1.0000
  H   H1        1.0  0.22657344798074064  0.8990169819856462  0.6626835004739888  1.0000
  H   H2        1.0  0.7265741655087724  0.1009831462090673  0.337316123267236  1.0000
  H   H3        1.0  0.7265734822947965  0.6626870716999137  0.8990166416164629  1.0000
  H   H4        1.0  0.2265741311959601  0.3373160576487138  0.10098383657279442  1.0000
  H   H5        1.0  0.43370333967757096  0.8194308968628333  0.4463478905361669  1.0000
  H   H6        1.0  0.9337055271813169  0.18056832106324092  0.5536535718879138  1.0000
  H   H7        1.0  0.9337022622466834  0.4463487251549766  0.8194304323442696  1.0000
  H   H8        1.0  0.433705440442644  0.5536525418857962  0.18056872235671054  1.0000
  H   H9        1.0  0.688565720779124  0.9853003761416234  0.8009693686864879  1.0000
  H   H10       1.0  0.18856633866035113  0.014697696603128895  0.1990315659940904  1.0000
  H   H11       1.0  0.18856584773357812  0.8009688273776021  0.985303212968475  1.0000
  H   H12       1.0  0.6885638833678913  0.1990302779816133  0.0146960882905987  1.0000
  H   H13       1.0  0.7367003671467033  0.9220652242884243  0.44842203283510434  1.0000
  H   H14       1.0  0.2367026161194374  0.0779338933885469  0.5515782752446299  1.0000
  H   H15       1.0  0.23669827667429638  0.4484215280506517  0.9220671463457607  1.0000
  H   H16       1.0  0.736701214085585  0.5515765892406533  0.07793287691622915  1.0000
  H   H17       1.0  0.8391833871749412  0.9218735009023434  0.5976687251903244  1.0000
  H   H18       1.0  0.3391842870624089  0.07812669380809469  0.4023310101452964  1.0000
  H   H19       1.0  0.3391835677508723  0.5976684286078183  0.9218752358524045  1.0000
  H   H20       1.0  0.8391852706554418  0.40232973310317977  0.07812584808812766  1.0000
  H   H21       1.0  0.876558999272362  0.6926905527945023  0.6506212975769616  1.0000
  H   H22       1.0  0.37656110606553733  0.3073086474931728  0.3493791490999456  1.0000
  H   H23       1.0  0.3765579075208123  0.650621753548613  0.6926932990833876  1.0000
  H   H24       1.0  0.8765587053112398  0.34937744673803195  0.30730714759178573  1.0000
  H   H25       1.0  0.935513541442667  0.45271664140058476  0.5472819565085913  1.0000
  H   H26       1.0  0.4355100689738975  0.5472845944775883  0.4527191182204008  1.0000
  H   H27       1.0  0.6992174752669557  0.7271331303966946  0.27286505155607443  1.0000
  H   H28       1.0  0.19921654153476004  0.27286599736970624  0.7271333011408885  1.0000
  C   C1        1.0  0.3527506977403547  0.9010629794413347  0.6591876560961297  1.0000
  C   C2        1.0  0.8527514186346183  0.0989362067830086  0.34081276698651664  1.0000
  C   C3        1.0  0.852749570009685  0.6591879072553937  0.9010628794479275  1.0000
  C   C4        1.0  0.3527502180281132  0.3408143123526841  0.09893647984523568  1.0000
  C   C5        1.0  0.4528493324691425  0.861029337748768  0.5526267529694239  1.0000
  C   C6        1.0  0.9528490402202083  0.13897090798548814  0.44737405412457326  1.0000
  C   C7        1.0  0.9528470660737585  0.5526280388437641  0.8610287840229419  1.0000
  C   C8        1.0  0.4528489782775936  0.4473732395049553  0.1389703896495433  1.0000
  C   C9        1.0  0.5890432255456021  0.9489919449121872  0.7366375445818393  1.0000
  C   C10       1.0  0.0890439403430534  0.05100706943196087  0.2633635762899118  1.0000
  C   C11       1.0  0.0890445274100813  0.7366368674647675  0.9489921569097037  1.0000
  C   C12       1.0  0.5890438026464225  0.2633631794948742  0.05100733054226943  1.0000
  C   C13       1.0  0.7476249629240003  0.8715962563141063  0.5281302031175842  1.0000
  C   C14       1.0  0.2476259727871905  0.12840388431526154  0.4718694414854312  1.0000
  C   C15       1.0  0.24762398671526142  0.5281311625221435  0.8715973834124143  1.0000
  C   C16       1.0  0.7476257848274984  0.47186796160698924  0.12840293549219695  1.0000
  C   C17       1.0  0.7839388029716544  0.7255569146355538  0.46825783105040847  1.0000
  C   C18       1.0  0.2839399561131017  0.27444223094357056  0.5317425238411816  1.0000
  C   C19       1.0  0.28393895789788104  0.4682583825796626  0.7255572126475374  1.0000
  C   C20       1.0  0.7839398011868682  0.5317407629994689  0.2744431422440456  1.0000
  C   C21       1.0  0.850055460554934  0.6477021507899821  0.545211221233295  1.0000
  C   C22       1.0  0.3500553909516526  0.35229704995737166  0.45478824005984825  1.0000
  C   C23       1.0  0.3500555561359704  0.5452125678336089  0.647705647887719  1.0000
  C   C24       1.0  0.8500564595402409  0.45478761718347016  0.35229505734019284  1.0000
  C   C25       1.0  0.8826556065417179  0.5126895718757466  0.48731022666751045  1.0000
  C   C26       1.0  0.3826556725605741  0.487310600166552  0.5126924291023869  1.0000
  C   C27       1.0  0.7512302238694704  0.6668555100255203  0.3331432260257259  1.0000
  C   C28       1.0  0.2512269155838354  0.33314363234746486  0.6668561373318838  1.0000
  S   S1        1.0  0.015290764569940104  0.11961700394778059  0.88038358307152  1.0000
  S   S2        1.0  0.5152915808025256  0.8803839998325812  0.11961611610865223  1.0000
  N   N1        1.0  0.4393893742263373  0.9560888656151999  0.773401562078952  1.0000
  N   N2        1.0  0.9393899275204024  0.04391135605362  0.22660019079508237  1.0000
  N   N3        1.0  0.9393905521434007  0.7734025879413267  0.9560898655203119  1.0000
  N   N4        1.0  0.4393899137701851  0.22659768207359576  0.0439090099997514  1.0000
  N   N5        1.0  0.6008932021785044  0.89246235749723  0.603758387542051  1.0000
  N   N6        1.0  0.1008941084248676  0.10753567957705458  0.3962415011386966  1.0000
  N   N7        1.0  0.10089336914458613  0.6037593288418889  0.8924632327592549  1.0000
  N   N8        1.0  0.6008939414590275  0.3962407251169324  0.10753626643533212  1.0000
  O   O1        1.0  0.1303676951255071  0.04950131702308618  0.9505017575203284  1.0000
  O   O2        1.0  0.6303684575970722  0.9504997224996076  0.04949997393522661  1.0000
  O   O3        1.0  0.8579602649526451  0.0763003963896765  0.92369966657445  1.0000
  O   O4        1.0  0.35796116054905974  0.9236998094117579  0.0763000873686933  1.0000
  O   O5        1.0  0.0303340493575561  0.07008160378371998  0.7345698347385082  1.0000
  O   O6        1.0  0.5303350697665935  0.9299183923824756  0.265430553651548  1.0000
  O   O7        1.0  0.5303337383311586  0.7345689994483776  0.07008167959823203  1.0000
  O   O8        1.0  0.030333052455162608  0.2654310128323871  0.9299177496724836  1.0000
