data_image0
_chemical_formula_structural       Tb4Ag4H32C56N8O32
_chemical_formula_sum              "Tb4 Ag4 H32 C56 N8 O32"
_cell_length_a       9.499748049
_cell_length_b       12.003027816159207
_cell_length_c       16.788
_cell_angle_alpha    96.40930570002494
_cell_angle_beta     90.0
_cell_angle_gamma    113.31062067124391

_space_group_name_H-M_alt    "P 1"
_space_group_IT_number       1

loop_
  _space_group_symop_operation_xyz
  'x, y, z'

loop_
  _atom_site_type_symbol
  _atom_site_label
  _atom_site_symmetry_multiplicity
  _atom_site_fract_x
  _atom_site_fract_y
  _atom_site_fract_z
  _atom_site_occupancy
  Tb  Tb1       1.0  0.2922990895690276  0.9901512681926546  0.5674419623870576  1.0000
  Tb  Tb2       1.0  0.3020530818110174  0.0098295299964306  0.9325250540208073  1.0000
  Tb  Tb3       1.0  0.7077029098410108  0.0098487229420314  0.432555773383811  1.0000
  Tb  Tb4       1.0  0.6979420059490806  0.9901713750880459  0.06747632867662648  1.0000
  Ag  Ag1       1.0  0.9557080315882446  0.6789221181467084  0.414199374788481  1.0000
  Ag  Ag2       1.0  0.27698354163032946  0.32111625887917933  0.08579844636077638  1.0000
  Ag  Ag3       1.0  0.04429231946933499  0.3210787869377683  0.5858008165818162  1.0000
  Ag  Ag4       1.0  0.723017405120217  0.6788837322555068  0.9142010764008006  1.0000
  H   H1        1.0  0.5111876805769029  0.6413012029218805  0.3777287803429487  1.0000
  H   H2        1.0  0.8699453080484646  0.3587426578027504  0.12227126546790858  1.0000
  H   H3        1.0  0.4888122135141444  0.3586987882128128  0.6222713380822  1.0000
  H   H4        1.0  0.13005760529464544  0.6412591612315168  0.8777295945111021  1.0000
  H   H5        1.0  0.11690346408340702  0.09042162251945739  0.3354899995745199  1.0000
  H   H6        1.0  0.026781912005873182  0.9096368614018218  0.1645421878643063  1.0000
  H   H7        1.0  0.8830932720291571  0.9095783686152287  0.6645071405327768  1.0000
  H   H8        1.0  0.9732231066562207  0.0903649576324526  0.8354574807875677  1.0000
  H   H9        1.0  0.16138271775447066  0.5883158777695741  0.5489477973108876  1.0000
  H   H10       1.0  0.5729151893380191  0.41141632607650536  0.9510309481857603  1.0000
  H   H11       1.0  0.838617037610142  0.4116859412646932  0.4510518713409865  1.0000
  H   H12       1.0  0.4270880014579532  0.5885818371585998  0.0489684286855194  1.0000
  H   H13       1.0  0.089632452974989  0.2014628662615507  0.22280262672322945  1.0000
  H   H14       1.0  0.8883161912528407  0.7985389527727165  0.2771339015903038  1.0000
  H   H15       1.0  0.9103678980825975  0.7985380388229258  0.7771951819927878  1.0000
  H   H16       1.0  0.1116862651237369  0.2014619523117602  0.7228656941164218  1.0000
  H   H17       1.0  0.5917042989647215  0.1902404767844601  0.279737526526354  1.0000
  H   H18       1.0  0.40171187893487575  0.809840855881582  0.2204162129186003  1.0000
  H   H19       1.0  0.4082945424668268  0.8097595143502332  0.7202625918987877  1.0000
  H   H20       1.0  0.598286782983017  0.1901545655041517  0.7795817537900972  1.0000
  H   H21       1.0  0.5494044954664616  0.3038334683415229  0.1728470974444676  1.0000
  H   H22       1.0  0.24567318695296342  0.6962003389354123  0.3272391128508616  1.0000
  H   H23       1.0  0.4505969082506169  0.6961674367429538  0.8271530939258226  1.0000
  H   H24       1.0  0.7543262501715517  0.3037987382494833  0.6727609326291384  1.0000
  H   H25       1.0  0.2378460721904148  0.2851386253776056  0.4495340609018754  1.0000
  H   H26       1.0  0.9523418526000784  0.714787335824056  0.050429174460646195  1.0000
  H   H27       1.0  0.7621521735481736  0.7148622797068711  0.5504661304684149  1.0000
  H   H28       1.0  0.0476559361719779  0.2852126553106302  0.9495703483009308  1.0000
  H   H29       1.0  0.4406746029012965  0.41166217857013976  0.363654215891735  1.0000
  H   H30       1.0  0.028801298498059725  0.5883853379536532  0.1362883423335006  1.0000
  H   H31       1.0  0.5593237815637266  0.5883368986147559  0.6363446382611214  1.0000
  H   H32       1.0  0.9712020718115753  0.4116173950304116  0.8637131862542302  1.0000
  C   C1        1.0  0.42005418138153056  0.5800510298144204  0.4111390001757441  1.0000
  C   C2        1.0  0.8399748856988297  0.4199050917303282  0.0888218770681206  1.0000
  C   C3        1.0  0.5799457127095167  0.4199489613202658  0.5888611182494043  1.0000
  C   C4        1.0  0.1600280276442732  0.580096727303939  0.9111771959201815  1.0000
  C   C5        1.0  0.3562529285653468  0.1292169632250335  0.3152417242946868  1.0000
  C   C6        1.0  0.22739461747476497  0.8709320017254994  0.1848572510707669  1.0000
  C   C7        1.0  0.6437463698327406  0.8707839418594431  0.6847572757484739  1.0000
  C   C8        1.0  0.7726060110356842  0.1290652475598151  0.8151426485189361  1.0000
  C   C9        1.0  0.3749225591273984  0.7638152583836515  0.475121371952511  1.0000
  C   C10       1.0  0.6111605238216954  0.2360823703745041  0.024852706708934098  1.0000
  C   C11       1.0  0.6250710190066685  0.2361847327510347  0.5248793421362021  1.0000
  C   C12       1.0  0.3888324586194046  0.7639185347099797  0.9751516543063445  1.0000
  C   C13       1.0  0.3777725531372981  0.0557107234274667  0.3783224273136696  1.0000
  C   C14       1.0  0.32225060490362983  0.9443980277322908  0.12169888051909077  1.0000
  C   C15       1.0  0.62221828319759  0.9442837840084835  0.6216748707863076  1.0000
  C   C16       1.0  0.6777449398230004  0.0556037913019765  0.8783007881327762  1.0000
  C   C17       1.0  0.21497931098939202  0.1356648789967494  0.300164262729183  1.0000
  C   C18       1.0  0.07964497621877328  0.8644676348575543  0.19991731670722857  1.0000
  C   C19       1.0  0.7850171068830676  0.8643323702885652  0.6998350411969482  1.0000
  C   C20       1.0  0.920355056598716  0.1355305283775508  0.8000820601640513  1.0000
  C   C21       1.0  0.3384699066314596  0.6290890058217116  0.4632807729972939  1.0000
  C   C22       1.0  0.709357237336441  0.37081136478581556  0.0366905461817524  1.0000
  C   C23       1.0  0.661532549745111  0.3709118992627651  0.53672060970014  1.0000
  C   C24       1.0  0.29064219978807426  0.6291877123990801  0.9633100949618123  1.0000
  C   C25       1.0  0.22511351104039792  0.551342952946186  0.5076212488288334  1.0000
  C   C26       1.0  0.673618246827438  0.4484861295776881  0.992352124255028  1.0000
  C   C27       1.0  0.7748872969837137  0.4486588660880813  0.49237841982304065  1.0000
  C   C28       1.0  0.3263819655037068  0.5515166034063697  0.007648213005566598  1.0000
  C   C29       1.0  0.1994458085204514  0.19833624402837557  0.23812908804182334  1.0000
  C   C30       1.0  0.0013335174722116359  0.8017386909891258  0.26189905143755954  1.0000
  C   C31       1.0  0.8005540855705959  0.8016637471063105  0.7618698390561817  1.0000
  C   C32       1.0  0.9986686206642617  0.1982594722459794  0.7381003254337201  1.0000
  C   C33       1.0  0.9655729518243915  0.9300837461140574  0.4884060681192324  1.0000
  C   C34       1.0  0.035485044574492995  0.0699208147695813  0.0116206242286978  1.0000
  C   C35       1.0  0.0344346291232256  0.0699189868700003  0.5115990344499082  1.0000
  C   C36       1.0  0.9645120097781614  0.9300819182144764  0.9883797130318897  1.0000
  C   C37       1.0  0.4795088837176706  0.1921104180557478  0.2696097887403965  1.0000
  C   C38       1.0  0.2876814248258626  0.8080385468947853  0.2305338613927432  1.0000
  C   C39       1.0  0.5204889050543855  0.8078895730789454  0.7303897340211803  1.0000
  C   C40       1.0  0.7123187467180542  0.1919577884407389  0.7694647739246674  1.0000
  C   C41       1.0  0.4559992498228667  0.254714150802883  0.20969454372701074  1.0000
  C   C42       1.0  0.20144992723278685  0.7453836329593884  0.2904188122807696  1.0000
  C   C43       1.0  0.5439995916086815  0.7452858403318103  0.7903061703617025  1.0000
  C   C44       1.0  0.7985496486181631  0.2546136163259263  0.7095804916453614  1.0000
  C   C45       1.0  0.2690685944014248  0.3830811407227799  0.45146242474486087  1.0000
  C   C46       1.0  0.885664387640752  0.616842078629503  0.0484857001929839  1.0000
  C   C47       1.0  0.7309302470301232  0.6169188504119063  0.5485365023531443  1.0000
  C   C48       1.0  0.11433491075733572  0.3831588264549737  0.95151568250445  1.0000
  C   C49       1.0  0.38209773209987213  0.45461873267169034  0.40416872463332243  1.0000
  C   C50       1.0  0.9273025586368037  0.5453593236680234  0.09575637648924129  1.0000
  C   C51       1.0  0.6179026189577073  0.5453821724127863  0.5958302754098311  1.0000
  C   C52       1.0  0.0727014073657983  0.4546424953662438  0.9042444834897694  1.0000
  C   C53       1.0  0.22061083877284912  0.9289358251772342  0.7447196193725674  1.0000
  C   C54       1.0  0.2915243092803195  0.0710047592210685  0.7552328698409452  1.0000
  C   C55       1.0  0.7793899692512626  0.071065993857033  0.2552788579521703  1.0000
  C   C56       1.0  0.7084748096041055  0.9289915761144555  0.2447651698128936  1.0000
  N   N1        1.0  0.3178816709806114  0.2561874378651083  0.19267191210211368  1.0000
  N   N2        1.0  0.06182096419418303  0.7438509391607794  0.30738071009550777  1.0000
  N   N3        1.0  0.6821171704509439  0.7438125532695778  0.807328206323028  1.0000
  N   N4        1.0  0.9381814921823876  0.2561499659236972  0.6926182899476458  1.0000
  N   N5        1.0  0.1927561879374835  0.4308688334167243  0.5031059096755256  1.0000
  N   N6        1.0  0.761582430205003  0.5689794420527504  0.9968558906579332  1.0000
  N   N7        1.0  0.8072452157795951  0.5691320716677595  0.496893090367628  1.0000
  N   N8        1.0  0.2384219927641311  0.43102329093130715  0.0031432552755176982  1.0000
  O   O1        1.0  0.2715489546683614  0.0161494927974815  0.4264420263103617  1.0000
  O   O2        1.0  0.2553745333226017  0.9838111984962125  0.0735853343154318  1.0000
  O   O3        1.0  0.7284495685230895  0.9838477564878332  0.5735554906250613  1.0000
  O   O4        1.0  0.7446288369870331  0.0161915344878452  0.9264173855994356  1.0000
  O   O5        1.0  0.031505921482192924  0.8710197409053819  0.5198148137287717  1.0000
  O   O6        1.0  0.16041769034714554  0.1290094966225936  0.9801667907162042  1.0000
  O   O7        1.0  0.9684927812229207  0.1289820781288853  0.4801854505866743  1.0000
  O   O8        1.0  0.839571677148939  0.8709904945120925  0.019836306026789423  1.0000
  O   O9        1.0  0.2727327291871476  0.796711967141583  0.5049818893374364  1.0000
  O   O10       1.0  0.4760860360847446  0.2031180293320816  0.9949814304108956  1.0000
  O   O11       1.0  0.7272688132563657  0.2032871100433198  0.49501398649757533  1.0000
  O   O12       1.0  0.5239153268451062  0.7968764781038615  0.005023015651914926  1.0000
  O   O13       1.0  0.8497734782191346  0.8842509920219186  0.4398802521272458  1.0000
  O   O14       1.0  0.9655761590764911  0.1157252364182142  0.06020195828730119  1.0000
  O   O15       1.0  0.1502253632124209  0.1157489991127676  0.5601204619614746  1.0000
  O   O16       1.0  0.03441595021877927  0.8842802384152151  0.9398039587808567  1.0000
  O   O17       1.0  0.5022655321321919  0.0404578153744239  0.3778192463507182  1.0000
  O   O18       1.0  0.4620331208121442  0.9598026514505449  0.12216413463687559  1.0000
  O   O19       1.0  0.4977329910592587  0.9595394339108906  0.6221800575754131  1.0000
  O   O20       1.0  0.5379713021569899  0.0402000815335128  0.8778391809415637  1.0000
  O   O21       1.0  0.5057463640051765  0.8329327112874195  0.4549397311007509  1.0000
  O   O22       1.0  0.6729072360751688  0.1670115289100522  0.04504342873538289  1.0000
  O   O23       1.0  0.4942597073164166  0.1670691077468476  0.5450593418875513  1.0000
  O   O24       1.0  0.32709943093939126  0.8329893761744315  0.9549621236070321  1.0000
  O   O25       1.0  0.1781187433158138  0.875652552393241  0.6739360618451755  1.0000
  O   O26       1.0  0.3022842372398529  0.12425695771219128  0.8260056079433225  1.0000
  O   O27       1.0  0.8218814282281102  0.1243437829422831  0.3260607864815269  1.0000
  O   O28       1.0  0.697718178349497  0.8757375497237518  0.17399228582022627  1.0000
  O   O29       1.0  0.211526543867258  0.8780580682417423  0.8076615297684808  1.0000
  O   O30       1.0  0.3331962248269135  0.1219044509515399  0.6922807968572116  1.0000
  O   O31       1.0  0.7884679074126524  0.12193735314399129  0.1923382239309248  1.0000
  O   O32       1.0  0.6668033510240434  0.8780927983337746  0.30771791140534777  1.0000
