data_image0
_chemical_formula_structural       Na8H32C32O32
_chemical_formula_sum              "Na8 H32 C32 O32"
_cell_length_a       8.6762317350002
_cell_length_b       8.903130518000255
_cell_length_c       12.530635413000073
_cell_angle_alpha    90.00001222435527
_cell_angle_beta     89.99999833980277
_cell_angle_gamma    89.99997541222437

_space_group_name_H-M_alt    "P 1"
_space_group_IT_number       1

loop_
  _space_group_symop_operation_xyz
  'x, y, z'

loop_
  _atom_site_type_symbol
  _atom_site_label
  _atom_site_symmetry_multiplicity
  _atom_site_fract_x
  _atom_site_fract_y
  _atom_site_fract_z
  _atom_site_occupancy
  Na  Na1       1.0  0.9321558050237896  0.08088713925277352  0.3690914154710896  1.0000
  Na  Na2       1.0  0.5678420297705103  0.41911326537775295  0.8690916277770028  1.0000
  Na  Na3       1.0  0.9321567780239376  0.9191136110467539  0.1309088250056192  1.0000
  Na  Na4       1.0  0.5678419991897741  0.5808877871725643  0.6309089859728942  1.0000
  Na  Na5       1.0  0.0678437535403518  0.9191127434852577  0.630909016589996  1.0000
  Na  Na6       1.0  0.4321575287936311  0.580886617360278  0.1309088042840827  1.0000
  Na  Na7       1.0  0.06784278053994801  0.080887394891711  0.8690916070555517  1.0000
  Na  Na8       1.0  0.4321575593741116  0.4191132187658937  0.3690914460882765  1.0000
  H   H1        1.0  0.49576574538846074  0.7466328437834591  0.43434434641090996  1.0000
  H   H2        1.0  0.004234371501262  0.753366608060972  0.9343445348174555  1.0000
  H   H3        1.0  0.4957647092787525  0.25336584255064304  0.0656551046583473  1.0000
  H   H4        1.0  0.0042344909316441  0.2466335569078809  0.5656552920428837  1.0000
  H   H5        1.0  0.5042338131756736  0.2533670389545719  0.5656560856501756  1.0000
  H   H6        1.0  0.9957651870628934  0.24663327467693824  0.0656550991995033  1.0000
  H   H7        1.0  0.5042348492856518  0.7466329169868402  0.9343445293585262  1.0000
  H   H8        1.0  0.9957650676325114  0.7533663258300366  0.43434434197407507  1.0000
  H   H9        1.0  0.4309368826527376  0.8791536458384287  0.3417592677060952  1.0000
  H   H10       1.0  0.069063238163956  0.6208457782402449  0.8417594347145112  1.0000
  H   H11       1.0  0.4309370535673835  0.1208450675975854  0.15824098269033726  1.0000
  H   H12       1.0  0.0690632952898724  0.37915548282700223  0.6582403908628507  1.0000
  H   H13       1.0  0.5690626759116242  0.12084511369929633  0.6582419623990318  1.0000
  H   H14       1.0  0.9309363204001784  0.3791541044977933  0.1582409973465744  1.0000
  H   H15       1.0  0.5690625049967651  0.8791548151403248  0.8417586513266214  1.0000
  H   H16       1.0  0.930936263274056  0.620845523111214  0.34175844511006653  1.0000
  H   H17       1.0  0.6117425104208464  0.07321575514261272  0.42131941595674494  1.0000
  H   H18       1.0  0.88825647473233  0.42678466515044283  0.9213188250414888  1.0000
  H   H19       1.0  0.6117423296827551  0.9267851291075999  0.0786808308614368  1.0000
  H   H20       1.0  0.8882564497464642  0.5732151302482791  0.5786801862785751  1.0000
  H   H21       1.0  0.3882570481430392  0.9267852507958452  0.5786810161044258  1.0000
  H   H22       1.0  0.11174308383182559  0.5732152175874675  0.07868080897547  1.0000
  H   H23       1.0  0.38825722888113745  0.073215876830858  0.921319601199734  1.0000
  H   H24       1.0  0.1117431088176843  0.42678475248963105  0.4213194477383837  1.0000
  H   H25       1.0  0.7177284851419542  0.68296302133637  0.18997604527140058  1.0000
  H   H26       1.0  0.7822714421405407  0.8170383945966436  0.6899762378396375  1.0000
  H   H27       1.0  0.717728563193603  0.31703781860579744  0.3100241994491597  1.0000
  H   H28       1.0  0.7822715792542354  0.18296256831018104  0.8100235736222456  1.0000
  H   H29       1.0  0.2822710734219385  0.3170379846020878  0.8100243867897704  1.0000
  H   H30       1.0  0.21772811642334491  0.1829626113418144  0.3100241942215334  1.0000
  H   H31       1.0  0.2822709953705314  0.6829620641322337  0.6899762326119259  1.0000
  H   H32       1.0  0.21772797930966448  0.8170384376281563  0.18997606039479817  1.0000
  C   C1        1.0  0.6579248428478124  0.806637528239868  0.3138835785972276  1.0000
  C   C2        1.0  0.8420739266055788  0.6933616784516021  0.813882953165276  1.0000
  C   C3        1.0  0.6579272857837424  0.19336221350260271  0.1861166673068269  1.0000
  C   C4        1.0  0.84207401449369  0.3066381362540724  0.6861168571129426  1.0000
  C   C5        1.0  0.3420735631419731  0.19336347769883136  0.6861168534639503  1.0000
  C   C6        1.0  0.157925631958328  0.3066393274867353  0.18611668085176797  1.0000
  C   C7        1.0  0.3420757305026996  0.8066376692347035  0.8138837647542231  1.0000
  C   C8        1.0  0.1579255440704443  0.6933617464839585  0.313883574948143  1.0000
  C   C9        1.0  0.5312016147355862  0.8480555820150572  0.3908349879488923  1.0000
  C   C10       1.0  0.9687983040277642  0.6519447709540247  0.8908351517663391  1.0000
  C   C11       1.0  0.5312017740323965  0.15194421270519604  0.10916526046322869  1.0000
  C   C12       1.0  0.9687983769348136  0.34805611397441544  0.6091654540480249  1.0000
  C   C13       1.0  0.46879794382829926  0.15194542392340077  0.6091654441122784  1.0000
  C   C14       1.0  0.031201254536370005  0.34805511178400644  0.10916528029474647  1.0000
  C   C15       1.0  0.4687977845317378  0.8480556700328351  0.8908351715978569  1.0000
  C   C16       1.0  0.031201181629341993  0.6519437687634947  0.3908341799689339  1.0000
  C   C17       1.0  0.5719001290457796  0.9759678960608509  0.46765073470658786  1.0000
  C   C18       1.0  0.9280997864596969  0.5240313567444234  0.9676508799138757  1.0000
  C   C19       1.0  0.5719003479478602  0.024031881645164798  0.03234951290004769  1.0000
  C   C20       1.0  0.9280998062774798  0.47596842199782685  0.5323497267058811  1.0000
  C   C21       1.0  0.42809942951835467  0.024031986677187003  0.5323496973544977  1.0000
  C   C22       1.0  0.07189977210444451  0.47596852599360767  0.0323495521472097  1.0000
  C   C23       1.0  0.4280992106162742  0.9759680010928664  0.9676509191610378  1.0000
  C   C24       1.0  0.07189975228666161  0.5240314607402041  0.46765070535520437  1.0000
  C   C25       1.0  0.702523665805174  0.9294583968087481  0.5432478539547816  1.0000
  C   C26       1.0  0.7974762677010218  0.5705418519207941  0.04324764274412019  1.0000
  C   C27       1.0  0.7025249987920718  0.0705425994369193  0.95675275712955  1.0000
  C   C28       1.0  0.7974762900064007  0.42945783148198313  0.4567526003980261  1.0000
  C   C29       1.0  0.2974758927589606  0.07054148592928301  0.4567525781063039  1.0000
  C   C30       1.0  0.2025244434369711  0.4294591540174224  0.9567527893170364  1.0000
  C   C31       1.0  0.29747571234592124  0.929458406501297  0.0432476749316137  1.0000
  C   C32       1.0  0.20252442113183383  0.5705420512558064  0.5432478316630522  1.0000
  O   O1        1.0  0.7826978900490075  0.8741440935703367  0.309510300669416  1.0000
  O   O2        1.0  0.7173043373119156  0.6258562350094367  0.8095104655044025  1.0000
  O   O3        1.0  0.7826957522404143  0.12585671921126362  0.19048834667706419  1.0000
  O   O4        1.0  0.7173043952777504  0.37414250865627  0.6904885491989815  1.0000
  O   O5        1.0  0.2173039736633484  0.12585578916709753  0.6904893333475145  1.0000
  O   O6        1.0  0.28269637382633306  0.37414364772823216  0.1904891685125492  1.0000
  O   O7        1.0  0.21730265374940666  0.8741442867272015  0.8095104892958602  1.0000
  O   O8        1.0  0.2826963158607683  0.6258562508808511  0.3095102867737509  1.0000
  O   O9        1.0  0.6248506025827609  0.6941164298131569  0.24881025421812808  1.0000
  O   O10       1.0  0.8751493222045426  0.805883880563485  0.7488104432551381  1.0000
  O   O11       1.0  0.6248506880433168  0.30588332575666755  0.2511899923405423  1.0000
  O   O12       1.0  0.8751494569001962  0.1941159203149567  0.7511901644125913  1.0000
  O   O13       1.0  0.37514780340679715  0.30588569932584875  0.7511893797990083  1.0000
  O   O14       1.0  0.12485023635935025  0.1941171253749729  0.2511899888060327  1.0000
  O   O15       1.0  0.3751488705208175  0.6941165569813635  0.7488104397205432  1.0000
  O   O16       1.0  0.12485010166393806  0.8058839624230815  0.2488102676484942  1.0000
  O   O17       1.0  0.8331644693112281  0.9901628587461173  0.5363383912167876  1.0000
  O   O18       1.0  0.6668354644877823  0.5098385111117452  0.036338173377579594  1.0000
  O   O19       1.0  0.8331646761718899  0.009839206085032996  0.9636614192379296  1.0000
  O   O20       1.0  0.6668354597591984  0.49016235010641657  0.4636612743061049  1.0000
  O   O21       1.0  0.16683508925267884  0.009838147192226603  0.46366124280025633  1.0000
  O   O22       1.0  0.3331640940761175  0.4901624948265919  0.9636614606394645  1.0000
  O   O23       1.0  0.1668360349661313  0.9901617998529488  0.036337416734973295  1.0000
  O   O24       1.0  0.3331640988047226  0.509838655831807  0.5363375616668122  1.0000
  O   O25       1.0  0.6684132562069678  0.8276560204580079  0.6127814313591387  1.0000
  O   O26       1.0  0.8315866743497294  0.672345372324706  0.11278123492584767  1.0000
  O   O27       1.0  0.6684133947234018  0.17234611324837354  0.887219180400386  1.0000
  O   O28       1.0  0.8315867444502203  0.3276542968180324  0.38721900754119787  1.0000
  O   O29       1.0  0.33158630235667635  0.17234610868087685  0.3872190007021175  1.0000
  O   O30       1.0  0.16841403678850497  0.32765451041309035  0.8872191971352237  1.0000
  O   O31       1.0  0.3315861638402424  0.8276560158905113  0.11278125166086989  1.0000
  O   O32       1.0  0.1684139666880142  0.672345585919757  0.6127814245198735  1.0000
