data_image0
_chemical_formula_structural       Co2H40C32N4O12
_chemical_formula_sum              "Co2 H40 C32 N4 O12"
_cell_length_a       8.654974512685548
_cell_length_b       9.39039440327342
_cell_length_c       9.885117029217755
_cell_angle_alpha    103.15321795779953
_cell_angle_beta     90.5073301078584
_cell_angle_gamma    90.47065990441774

_space_group_name_H-M_alt    "P 1"
_space_group_IT_number       1

loop_
  _space_group_symop_operation_xyz
  'x, y, z'

loop_
  _atom_site_type_symbol
  _atom_site_label
  _atom_site_symmetry_multiplicity
  _atom_site_fract_x
  _atom_site_fract_y
  _atom_site_fract_z
  _atom_site_occupancy
  Co  Co1       1.0  0.0  0.0  0.0  1.0000
  Co  Co2       1.0  0.49999936770087333  0.4999997380216926  0.4999989793346912  1.0000
  H   H1        1.0  0.8894573867834199  0.8276455645756754  0.7907166421759156  1.0000
  H   H2        1.0  0.3827329301353971  0.667239242877436  0.7001355561608875  1.0000
  H   H3        1.0  0.11054251415919943  0.17235389773568238  0.20928334125574105  1.0000
  H   H4        1.0  0.617264654806185  0.33276021762446106  0.2998634062498268  1.0000
  H   H5        1.0  0.061577791779200204  0.8266707334305322  0.7274951528738284  1.0000
  H   H6        1.0  0.5608029470436479  0.6713551698445457  0.7617199413235624  1.0000
  H   H7        1.0  0.9384209465558371  0.1733265261186858  0.27250534330060816  1.0000
  H   H8        1.0  0.4391946429248321  0.3286442808995105  0.23828003058834915  1.0000
  H   H9        1.0  0.7156777190169735  0.05996670108990539  0.3723930440128597  1.0000
  H   H10       1.0  0.20776631120192957  0.45688792018104607  0.12483175973783736  1.0000
  H   H11       1.0  0.2843210425660986  0.940033829532446  0.6276091981605986  1.0000
  H   H12       1.0  0.7922335847137844  0.5431115518881597  0.8751672141926148  1.0000
  H   H13       1.0  0.718141132093905  0.7416271898058253  0.6251432493213542  1.0000
  H   H14       1.0  0.21549337874438382  0.7794227416542228  0.8757358191563325  1.0000
  H   H15       1.0  0.28185761943535687  0.2583733603322003  0.3748569738497024  1.0000
  H   H16       1.0  0.7845088392460797  0.2205778258347664  0.12426442129434177  1.0000
  H   H17       1.0  0.5399272982535805  0.7059978856850577  0.040468207910073786  1.0000
  H   H18       1.0  0.035188414373180904  0.8006631050451745  0.46137467614497735  1.0000
  H   H19       1.0  0.46007147547691574  0.2940048321579383  0.9595345252619366  1.0000
  H   H20       1.0  0.9648126370296028  0.1993363728076787  0.5386243035453474  1.0000
  H   H21       1.0  0.45761819686797633  0.8372604980702646  0.9640384184580167  1.0000
  H   H22       1.0  0.9476384571147635  0.664032275327031  0.5277967592212461  1.0000
  H   H23       1.0  0.5423817212489653  0.16274114170390416  0.03596306547338908  1.0000
  H   H24       1.0  0.0523625942880201  0.3359672025258292  0.47220222046907867  1.0000
  H   H25       1.0  0.43809944060960504  0.6653502786339162  0.2746831457655573  1.0000
  H   H26       1.0  0.9346707550867209  0.8492632682013267  0.22047551165059073  1.0000
  H   H27       1.0  0.5619016158200836  0.3346491894610964  0.7253168434259648  1.0000
  H   H28       1.0  0.06532913978218599  0.15073510049971617  0.7795242262817863  1.0000
  H   H29       1.0  0.8154180199695064  0.9764441675812208  0.5835767345788625  1.0000
  H   H30       1.0  0.3100545811726647  0.5449292851192384  0.9178010618546536  1.0000
  H   H31       1.0  0.1845818920737301  0.0235563785826258  0.4164245038532641  1.0000
  H   H32       1.0  0.6899453197699617  0.45507017719211956  0.08219892157699593  1.0000
  H   H33       1.0  0.37453697682079934  0.9124809382418134  0.1901207765628711  1.0000
  H   H34       1.0  0.8649388124058889  0.6014956105484403  0.29910940036079126  1.0000
  H   H35       1.0  0.6254629423429492  0.08752180490051839  0.809879943366603  1.0000
  H   H36       1.0  0.13506224507060688  0.39850496091473525  0.7008898248288061  1.0000
  H   H37       1.0  0.5334656219408417  0.030917275441503005  0.19017697860371638  1.0000
  H   H38       1.0  0.0190007337638747  0.47994658565016823  0.29885721368952284  1.0000
  H   H39       1.0  0.46653545669007473  0.9690843603584725  0.8098255205887596  1.0000
  H   H40       1.0  0.9809980177653871  0.5200539644878646  0.7011430094815339  1.0000
  C   C1        1.0  0.6999195137608467  0.8504922163200914  0.978639447542541  1.0000
  C   C2        1.0  0.1892651638590692  0.6468365485151537  0.5161607239984817  1.0000
  C   C3        1.0  0.3000792478222253  0.14950831430225256  0.021362794630917392  1.0000
  C   C4        1.0  0.8107347320566447  0.353162923554045  0.48383824993197777  1.0000
  C   C5        1.0  0.5697472276140234  0.8689201333426482  0.3060260777468428  1.0000
  C   C6        1.0  0.06354307075892511  0.6464398262150368  0.18970338438197118  1.0000
  C   C7        1.0  0.43025269050292547  0.13108150643151364  0.6939754061845633  1.0000
  C   C8        1.0  0.9364579745701539  0.353558558027494  0.8102953498090811  1.0000
  C   C9        1.0  0.6773691136065524  0.9567994891965411  0.39450176252671537  1.0000
  C   C10       1.0  0.17111949637255464  0.5604578881364334  0.10326757458541636  1.0000
  C   C11       1.0  0.32263079843668413  0.04320105696729829  0.6054994759054182  1.0000
  C   C12       1.0  0.8288815489565167  0.4395404961061047  0.8967311596056359  1.0000
  C   C13       1.0  0.6783814773065089  0.7807207441807121  0.5356923081693379  1.0000
  C   C14       1.0  0.17539616080941303  0.738943771304818  0.9638157631919028  1.0000
  C   C15       1.0  0.3216184336899205  0.21927869861496416  0.4643096942647205  1.0000
  C   C16       1.0  0.8246048956202757  0.2610556967901942  0.03618422599961948  1.0000
  C   C17       1.0  0.5454045908711936  0.8232110482475861  0.04079847380537415  1.0000
  C   C18       1.0  0.03667521015159281  0.6821109967651894  0.45469161830575183  1.0000
  C   C19       1.0  0.45459533227266047  0.1767905817687421  0.9592040196272293  1.0000
  C   C20       1.0  0.9633246868109282  0.31788957867217243  0.5453065916227755  1.0000
  C   C21       1.0  0.5227459073325708  0.7381266123847255  0.33881126443829146  1.0000
  C   C22       1.0  0.018185640633028303  0.7776154374996834  0.15765091946651202  1.0000
  C   C23       1.0  0.47725401078437113  0.26187502738943635  0.6611902194931076  1.0000
  C   C24       1.0  0.9818142542358786  0.2223829312013592  0.8423488184658723  1.0000
  C   C25       1.0  0.7317155391455686  0.9123534714253123  0.5111030495840649  1.0000
  C   C26       1.0  0.22702946257741272  0.6077600964596215  0.9891164947947714  1.0000
  C   C27       1.0  0.26828665559686016  0.08764382499055759  0.48889544486758035  1.0000
  C   C28       1.0  0.7729715877785638  0.3922382780250686  0.010883248897478385  1.0000
  C   C29       1.0  0.5013080952897795  0.9161953299014345  0.18304107231318767  1.0000
  C   C30       1.0  0.9913598645630377  0.595687050723832  0.3089405725579652  1.0000
  C   C31       1.0  0.49869298941484896  0.08380739950886348  0.8169616723785608  1.0000
  C   C32       1.0  0.0086400313526838  0.4043124213453666  0.6910584013724871  1.0000
  N   N1        1.0  0.575820596153946  0.6943604047795517  0.45121105544654927  1.0000
  N   N2        1.0  0.07206551137699792  0.823403847136568  0.046387124913344666  1.0000
  N   N3        1.0  0.4241793219629955  0.30564123499461726  0.5487904284848496  1.0000
  N   N4        1.0  0.9279355339520735  0.17659453710596298  0.9536116092777077  1.0000
  O   O1        1.0  0.7281991717112958  0.7700876111226407  0.8593342211087529  1.0000
  O   O2        1.0  0.22215465920529456  0.7223445925945811  0.6382814806298143  1.0000
  O   O3        1.0  0.27179958987177605  0.2299129194997036  0.14066802106470527  1.0000
  O   O4        1.0  0.7778463882173839  0.27765599838427585  0.3617157255573814  1.0000
  O   O5        1.0  0.7885018222903925  0.9516498400825381  0.047231757319160184  1.0000
  O   O6        1.0  0.2723309039201567  0.545116177930865  0.447638086662529  1.0000
  O   O7        1.0  0.21149808870603692  0.048349602713138005  0.9527702451148983  1.0000
  O   O8        1.0  0.7276689808949472  0.45488221028585235  0.5523596322674462  1.0000
  O   O9        1.0  0.9762258725379741  0.8903555837271496  0.770901924224553  1.0000
  O   O10       1.0  0.47519863164465903  0.6073865197147583  0.7146764751399457  1.0000
  O   O11       1.0  0.023772856790060404  0.10964279870591298  0.22909578894554974  1.0000
  O   O12       1.0  0.5248012602909569  0.3926140654804442  0.2853207252873843  1.0000
