data_image0
_chemical_formula_structural       Ga2H8C8N4Cl6
_chemical_formula_sum              "Ga2 H8 C8 N4 Cl6"
_cell_length_a       6.353413012522527
_cell_length_b       6.375696837127637
_cell_length_c       11.708349140323149
_cell_angle_alpha    100.14759315018699
_cell_angle_beta     89.9948919377558
_cell_angle_gamma    119.88708571607499

_space_group_name_H-M_alt    "P 1"
_space_group_IT_number       1

loop_
  _space_group_symop_operation_xyz
  'x, y, z'

loop_
  _atom_site_type_symbol
  _atom_site_label
  _atom_site_symmetry_multiplicity
  _atom_site_fract_x
  _atom_site_fract_y
  _atom_site_fract_z
  _atom_site_occupancy
  Ga  Ga1       1.0  0.28280728273072964  1.9396206702997104e-05  0.749983156884682  1.0000
  Ga  Ga2       1.0  0.7171952179156378  0.9999676986848128  0.2500119895138014  1.0000
  H   H1        1.0  0.6619135952015612  0.22211401373915143  0.9701655445433206  1.0000
  H   H2        1.0  0.43979031001864405  0.7778073337178738  0.5298096739814541  1.0000
  H   H3        1.0  0.3380891398825128  0.7778766994008562  0.029840203899141188  1.0000
  H   H4        1.0  0.5602107861800009  0.22222416689887572  0.4701812624225712  1.0000
  H   H5        1.0  0.20090563416303558  0.44190757709289846  0.8493687714849047  1.0000
  H   H6        1.0  0.759016665542994  0.5582664974186144  0.6506020788568352  1.0000
  H   H7        1.0  0.7991022319013511  0.5580776573698998  0.1506279015269172  1.0000
  H   H8        1.0  0.24095788538498658  0.4417465405559825  0.3493853493173021  1.0000
  C   C1        1.0  0.5884939246121166  0.34575199147258223  0.983960535874566  1.0000
  C   C2        1.0  0.2427120261137503  0.6541771576892471  0.5160296910477841  1.0000
  C   C3        1.0  0.4115380294054064  0.654240498506482  0.01605478021779311  1.0000
  C   C4        1.0  0.7572577636784034  0.3458358034398472  0.48396797890512755  1.0000
  C   C5        1.0  0.3347347284381641  0.4679975502450587  0.9167155346506137  1.0000
  C   C6        1.0  0.8667001166161299  0.5321132426159636  0.5832757418208631  1.0000
  C   C7        1.0  0.6652963050167386  0.5319930985806848  0.08329874779796143  1.0000
  C   C8        1.0  0.1332569137937014  0.46788679205088357  0.416719813613682  1.0000
  N   N1        1.0  0.4240279603357565  0.31481563549229463  0.901181488538207  1.0000
  N   N2        1.0  0.10915985837323211  0.6851883390404652  0.5987942249903215  1.0000
  N   N3        1.0  0.576024290532388  0.6851639341485907  0.09883085873482865  1.0000
  N   N4        1.0  0.890813646406471  0.31483205077350357  0.40119904482078556  1.0000
  Cl  Cl1       1.0  0.23389855841936943  0.22320673031129706  0.6391629478681369  1.0000
  Cl  Cl2       1.0  0.010778350653311002  0.776869967605819  0.8608208772765312  1.0000
  Cl  Cl3       1.0  0.7660993178568136  0.7768246293748576  0.3608467649920969  1.0000
  Cl  Cl4       1.0  0.9892133016685777  0.2230985812156305  0.13918185562916827  1.0000
  Cl  Cl5       1.0  0.6292294438970389  4.239135908079757e-05  0.749964186102176  1.0000
  Cl  Cl6       1.0  0.37078284292205405  0.9999485331363825  0.2500133975374936  1.0000
