data_image0
_chemical_formula_structural       Cd4H60C32S8N20
_chemical_formula_sum              "Cd4 H60 C32 S8 N20"
_cell_length_a       7.6622206775466255
_cell_length_b       7.759368159267531
_cell_length_c       22.247877817002415
_cell_angle_alpha    89.99996107854994
_cell_angle_beta     90.00004606422567
_cell_angle_gamma    105.54861203238846

_space_group_name_H-M_alt    "P 1"
_space_group_IT_number       1

loop_
  _space_group_symop_operation_xyz
  'x, y, z'

loop_
  _atom_site_type_symbol
  _atom_site_label
  _atom_site_symmetry_multiplicity
  _atom_site_fract_x
  _atom_site_fract_y
  _atom_site_fract_z
  _atom_site_occupancy
  Cd  Cd1       1.0  0.5233989392858119  0.2269582756149973  0.10943655117389278  1.0000
  Cd  Cd2       1.0  0.9765967650104342  0.7730429493388226  0.6094365982805029  1.0000
  Cd  Cd3       1.0  0.476597582465253  0.7730401890163209  0.8905640165204002  1.0000
  Cd  Cd4       1.0  0.023400824029202717  0.22695952839170266  0.3905630704513141  1.0000
  H   H1        1.0  0.5131200881782192  0.9039177574622881  0.18600377205324034  1.0000
  H   H2        1.0  0.9868761200706827  0.09608469604797419  0.6860044327094454  1.0000
  H   H3        1.0  0.48688201786494295  0.0960820750496225  0.813997245122742  1.0000
  H   H4        1.0  0.01312277610065152  0.903917789228224  0.31399478654148527  1.0000
  H   H5        1.0  0.6493264032578737  0.9330758334241408  0.12710198976532885  1.0000
  H   H6        1.0  0.8506713538867812  0.06692804929279822  0.6271021699753019  1.0000
  H   H7        1.0  0.35067546294217067  0.06692800464130498  0.8728985779290707  1.0000
  H   H8        1.0  0.14932623515372975  0.9330744284370807  0.37289839771866423  1.0000
  H   H9        1.0  0.8442607406936629  0.983555806180277  0.2137529721939656  1.0000
  H   H10       1.0  0.6557325512312104  0.016445254986678  0.7137508627654723  1.0000
  H   H11       1.0  0.15574207687579636  0.016446701730679098  0.7862480449817963  1.0000
  H   H12       1.0  0.34426658478368216  0.9835532247356581  0.28624925544811214  1.0000
  H   H13       1.0  0.7201240601886596  0.12826892647048277  0.2421944211506925  1.0000
  H   H14       1.0  0.7798673840456659  0.8717347544618333  0.7421939405216803  1.0000
  H   H15       1.0  0.27987875738035944  0.871733581440793  0.7578061465439914  1.0000
  H   H16       1.0  0.22013305910048336  0.12826373280649508  0.2578052787299398  1.0000
  H   H17       1.0  0.017367019780046202  0.2908782346372972  0.1968205380868255  1.0000
  H   H18       1.0  0.4826326746355605  0.70912310418786  0.696818354688993  1.0000
  H   H19       1.0  0.9826292621283342  0.7091242355472359  0.8031800296069632  1.0000
  H   H20       1.0  0.5173690756431454  0.2908753906254943  0.30318131404388277  1.0000
  H   H21       1.0  0.9460445794229597  0.1887849775073533  0.12626159007022858  1.0000
  H   H22       1.0  0.5539530601722831  0.8112135631565921  0.6262592630514872  1.0000
  H   H23       1.0  0.05395526811996386  0.8112161776127491  0.8737403260674268  1.0000
  H   H24       1.0  0.44604643160487706  0.1887862542659136  0.37373995619984146  1.0000
  H   H25       1.0  0.7839005556298558  0.43950602169074665  0.19005279053958896  1.0000
  H   H26       1.0  0.716097918956045  0.5604951034394784  0.690052815759209  1.0000
  H   H27       1.0  0.21609929191089358  0.5604951334309548  0.8099468781927043  1.0000
  H   H28       1.0  0.283903235715961  0.43950605922821495  0.3099459540111197  1.0000
  H   H29       1.0  0.9455538036963061  0.4378641165533423  0.07083065542226308  1.0000
  H   H30       1.0  0.5544466986474744  0.5621358559128068  0.5708310847412574  1.0000
  H   H31       1.0  0.05444438094917106  0.5621356933234907  0.9291690133099589  1.0000
  H   H32       1.0  0.44555576315709533  0.4378653142999127  0.4291681345103198  1.0000
  H   H33       1.0  0.026056363248869747  0.5997484734201846  0.12806248377361124  1.0000
  H   H34       1.0  0.4739421308049998  0.4002489503155147  0.6280630683969475  1.0000
  H   H35       1.0  0.9739401585008878  0.4002499912120995  0.8719367354774686  1.0000
  H   H36       1.0  0.5260586681055985  0.5997508746513701  0.37193749929777903  1.0000
  H   H37       1.0  0.721121515253465  0.6678717023195446  0.12764050965931517  1.0000
  H   H38       1.0  0.7788781456717613  0.33212951932115686  0.6276410562146209  1.0000
  H   H39       1.0  0.2788736993641621  0.33212675476738696  0.87235870959158  1.0000
  H   H40       1.0  0.22112134610627276  0.6678702981007021  0.3723590619988568  1.0000
  H   H41       1.0  0.8546258106444071  0.7370381507660111  0.062099437297867176  1.0000
  H   H42       1.0  0.645373607511104  0.2629578210477277  0.5620995136869096  1.0000
  H   H43       1.0  0.14537035534220882  0.2629589761667503  0.9378997819533123  1.0000
  H   H44       1.0  0.35462647987233  0.7370393285207583  0.4379001550458951  1.0000
  H   H45       1.0  0.7807573015032716  0.414649631459163  0.9903367638050395  1.0000
  H   H46       1.0  0.7192406869663444  0.5853470525325333  0.49033758482119766  1.0000
  H   H47       1.0  0.21923815295704688  0.585344820074553  0.009662455446360196  1.0000
  H   H48       1.0  0.2807580932853924  0.41465008949028  0.5096625333925002  1.0000
  H   H49       1.0  0.7425614243520042  0.6237235396615401  0.9690969549577415  1.0000
  H   H50       1.0  0.7574391372742041  0.37627318969707346  0.46909783639269864  1.0000
  H   H51       1.0  0.25743795150513904  0.37627093450790744  0.03090271377528349  1.0000
  H   H52       1.0  0.2425639201370657  0.623725312661314  0.530902281821426  1.0000
  H   H53       1.0  0.5339410579563619  0.7459803925344062  0.03087663833062489  1.0000
  H   H54       1.0  0.966056752796831  0.25401962179267196  0.5308781545441972  1.0000
  H   H55       1.0  0.46605510802937994  0.25401673439899497  0.9691216819584125  1.0000
  H   H56       1.0  0.03394440187691573  0.7459815408737426  0.46912241315042263  1.0000
  H   H57       1.0  0.43025750417127273  0.621659623795736  0.09483150270129669  1.0000
  H   H58       1.0  0.06974199285682661  0.3783418604073389  0.5948324295264482  1.0000
  H   H59       1.0  0.5697393733416336  0.37834017853606383  0.9051677165496697  1.0000
  H   H60       1.0  0.9302591618173608  0.6216593022587487  0.4051685876492427  1.0000
  C   C1        1.0  0.7686485213300854  0.08019600836423989  0.2005738346821956  1.0000
  C   C2        1.0  0.7313440335621452  0.9198023961893538  0.7005724301386989  1.0000
  C   C3        1.0  0.23135132621196428  0.9198051467565022  0.7994271824933177  1.0000
  C   C4        1.0  0.2686528439503276  0.0801974061427657  0.2994263396311893  1.0000
  C   C5        1.0  0.898440463722082  0.2364171023126076  0.16818108163303686  1.0000
  C   C6        1.0  0.601556661400906  0.7635840464493241  0.6681810266112789  1.0000
  C   C7        1.0  0.10156366097864127  0.763585413144341  0.8318190365807536  1.0000
  C   C8        1.0  0.3984424746148534  0.23641443327237247  0.3318199905644547  1.0000
  C   C9        1.0  0.9030811456598753  0.5088395645909286  0.10853670933854426  1.0000
  C   C10       1.0  0.5969147967370247  0.49115765609270307  0.6085362684177651  1.0000
  C   C11       1.0  0.09691573185390472  0.4911602377402317  0.8914634088745641  1.0000
  C   C12       1.0  0.4030854065660066  0.5088448367291605  0.3914625013522651  1.0000
  C   C13       1.0  0.77703856194713  0.6188971548146254  0.08747309663691988  1.0000
  C   C14       1.0  0.7229629239756505  0.3811014637743425  0.587473615967468  1.0000
  C   C15       1.0  0.2229592669347582  0.3811013173630045  0.9125261226143376  1.0000
  C   C16       1.0  0.27704215209361394  0.6188997215287557  0.4125260527655427  1.0000
  C   C17       1.0  0.679725211622987  0.49116658949488107  0.989248097475247  1.0000
  C   C18       1.0  0.8202770518991968  0.5088314563841861  0.4892489648323205  1.0000
  C   C19       1.0  0.32027321286473404  0.5088292148290562  0.010751121776408497  1.0000
  C   C20       1.0  0.17972861977677473  0.49116706106457286  0.5107516028632374  1.0000
  C   C21       1.0  0.4785785389638447  0.609558485429339  0.04897949709729229  1.0000
  C   C22       1.0  0.021420753401379534  0.39043772088069767  0.5489804075926938  1.0000
  C   C23       1.0  0.5214195297602942  0.39043598119539524  0.9510192726733988  1.0000
  C   C24       1.0  0.9785806411146182  0.6095594362328143  0.4510197106213594  1.0000
  C   C25       1.0  0.2580493396337147  0.947654443322996  0.011391121915927697  1.0000
  C   C26       1.0  0.24194702587493566  0.05234580703039169  0.511391275338191  1.0000
  C   C27       1.0  0.7419505079079015  0.05234671179805868  0.9886094457785074  1.0000
  C   C28       1.0  0.7580518702976987  0.94765667824484  0.4886092923559529  1.0000
  C   C29       1.0  0.3417554755847192  0.4911369048956684  0.19797617522367256  1.0000
  C   C30       1.0  0.1582482583873741  0.5088697981687601  0.6979770955985243  1.0000
  C   C31       1.0  0.6582448436405102  0.5088709311776469  0.802024392470031  1.0000
  C   C32       1.0  0.8417620462112793  0.4911314173150886  0.3020234720973605  1.0000
  S   S1        1.0  0.19995246882407966  0.027046992789578894  0.07413923076047269  1.0000
  S   S2        1.0  0.3000424791567653  0.9729424740673236  0.5741414285297137  1.0000
  S   S3        1.0  0.8000454839791615  0.9729421305827373  0.9258590895297655  1.0000
  S   S4        1.0  0.6999578480719605  0.027050669946021292  0.4258609370900358  1.0000
  S   S5        1.0  0.2763920006037566  0.6568044046361478  0.22570238640908963  1.0000
  S   S6        1.0  0.22360870108078504  0.34319556286395425  0.7257020159842181  1.0000
  S   S7        1.0  0.7236070114902091  0.3432034238911824  0.7742990802465853  1.0000
  S   S8        1.0  0.7763917420657973  0.6568029244040472  0.2742976527484727  1.0000
  N   N1        1.0  0.6105776940255936  0.9972169088263383  0.16276425457326124  1.0000
  N   N2        1.0  0.8894171621127568  0.002785570265643901  0.6627644608417211  1.0000
  N   N3        1.0  0.3894251235438659  0.0027855990846248004  0.8372367626025006  1.0000
  N   N4        1.0  0.1105800711637315  0.9972155697653587  0.3372352078902025  1.0000
  N   N5        1.0  0.8074666116234395  0.3741032742398359  0.15198310314044505  1.0000
  N   N6        1.0  0.6925325008074381  0.6259005805564755  0.6519822072641117  1.0000
  N   N7        1.0  0.19253168894292833  0.6259018788894082  0.8480170150722298  1.0000
  N   N8        1.0  0.3074686538650013  0.37410058211089847  0.3480170119872809  1.0000
  N   N9        1.0  0.622047634870242  0.5149413953439604  0.05136807075174228  1.0000
  N   N10       1.0  0.8779524740424237  0.4850572671655016  0.5513686084634485  1.0000
  N   N11       1.0  0.37794983824893075  0.4850557391338269  0.9486315979807001  1.0000
  N   N12       1.0  0.12205093913243566  0.5149425728920818  0.4486319592316404  1.0000
  N   N13       1.0  0.2987464907623832  0.8901139808731956  0.9658048620973855  1.0000
  N   N14       1.0  0.2012540880193825  0.10987362016467019  0.4658093871815792  1.0000
  N   N15       1.0  0.7012579976988889  0.10987518022778889  0.0341907613073147  1.0000
  N   N16       1.0  0.7987471905805065  0.8901181936929061  0.534195225843831  1.0000
  N   N17       1.0  0.3818437730903099  0.3643844640276085  0.17837252836319803  1.0000
  N   N18       1.0  0.11815897157168116  0.6356235971350158  0.6783734073962291  1.0000
  N   N19       1.0  0.6181579691875072  0.6356287228437977  0.8216280393300646  1.0000
  N   N20       1.0  0.8818472877066198  0.36438694452002096  0.3216253623736875  1.0000
