data_image0
_chemical_formula_structural       Ag4H56C32N12
_chemical_formula_sum              "Ag4 H56 C32 N12"
_cell_length_a       9.836620992097279
_cell_length_b       9.836610415444156
_cell_length_c       12.584867446102137
_cell_angle_alpha    113.24979475155547
_cell_angle_beta     113.24984778521369
_cell_angle_gamma    89.41665414417453

_space_group_name_H-M_alt    "P 1"
_space_group_IT_number       1

loop_
  _space_group_symop_operation_xyz
  'x, y, z'

loop_
  _atom_site_type_symbol
  _atom_site_label
  _atom_site_symmetry_multiplicity
  _atom_site_fract_x
  _atom_site_fract_y
  _atom_site_fract_z
  _atom_site_occupancy
  Ag  Ag1       1.0  0.21745847698275614  0.5176448271474071  0.9741374355169727  1.0000
  Ag  Ag2       1.0  0.4823524004874216  0.7825423509441194  0.02586273649977496  1.0000
  Ag  Ag3       1.0  0.7062880833486459  0.5065494545146336  0.474176245888927  1.0000
  Ag  Ag4       1.0  0.4934524868230667  0.2937136950702027  0.525825149045126  1.0000
  H   H1        1.0  0.19390342796541654  0.6753825841144943  0.8186995833348549  1.0000
  H   H2        1.0  0.32461462284493353  0.8060977514767133  0.181300599041741  1.0000
  H   H3        1.0  0.39248659939931235  0.3745778525183  0.3184167368502529  1.0000
  H   H4        1.0  0.6254162637354598  0.6075168450642892  0.6815818543985588  1.0000
  H   H5        1.0  0.9890421219652269  0.6075939013857338  0.5396517715315811  1.0000
  H   H6        1.0  0.39240260480764977  0.010957053760492396  0.4603464208124564  1.0000
  H   H7        1.0  0.18146046423147774  0.3008692642856162  0.03940622143075255  1.0000
  H   H8        1.0  0.699127663858789  0.818542404905756  0.9605914063132772  1.0000
  H   H9        1.0  0.14662224012975136  0.5224731040822732  0.5936565499033507  1.0000
  H   H10       1.0  0.47752181533049753  0.8533799375855224  0.4063432852857504  1.0000
  H   H11       1.0  0.3205958018190387  0.1972279085321915  0.09333161005006473  1.0000
  H   H12       1.0  0.8027644754056811  0.6794078588804878  0.9066657687429543  1.0000
  H   H13       1.0  0.17262327026862323  0.7165860229124945  0.6280849008891638  1.0000
  H   H14       1.0  0.2834119018974945  0.8273769307289031  0.3719159631231507  1.0000
  H   H15       1.0  0.1608165353940407  0.20548595716800122  0.12767785311773855  1.0000
  H   H16       1.0  0.7945091585184797  0.8391841552482262  0.872320160347549  1.0000
  H   H17       1.0  0.1159302770619349  0.9081650017972936  0.7983292665381188  1.0000
  H   H18       1.0  0.09183044546968236  0.8840734950875772  0.20167101632912235  1.0000
  H   H19       1.0  0.1394668877601646  0.4323642300121406  0.29810759148315213  1.0000
  H   H20       1.0  0.5676297388507691  0.860534490253258  0.7018901522849817  1.0000
  H   H21       1.0  0.03075302697162394  0.8549820760154319  0.8803351550209729  1.0000
  H   H22       1.0  0.14501757348639194  0.9692495711587201  0.11966287518816907  1.0000
  H   H23       1.0  0.2747034519518152  0.5994879624108406  0.38017852741216995  1.0000
  H   H24       1.0  0.40050624134455154  0.7252996807222518  0.6198206136866988  1.0000
  H   H25       1.0  0.9235573920373525  0.8209618173477155  0.7175625194244618  1.0000
  H   H26       1.0  0.17903929757349596  0.07644786252506458  0.28243965029636803  1.0000
  H   H27       1.0  0.14599810541582772  0.5440534830453246  0.2174084466861076  1.0000
  H   H28       1.0  0.4559422606928365  0.8540052246319548  0.7825896082960002  1.0000
  H   H29       1.0  0.9774500559281024  0.2694982612051291  0.8868607377459201  1.0000
  H   H30       1.0  0.730499780390467  0.022553798869083194  0.11313876016544104  1.0000
  H   H31       1.0  0.8671485812278945  0.6588374170434078  0.38696979749861554  1.0000
  H   H32       1.0  0.34116442332751257  0.13285449999839472  0.6130311811151827  1.0000
  H   H33       1.0  0.9103877940645049  0.5056859067574918  0.01647396965472572  1.0000
  H   H34       1.0  0.49430845253972666  0.0896125863877018  0.983526325284217  1.0000
  H   H35       1.0  0.7604741045987707  0.8550927667789878  0.5166610983660719  1.0000
  H   H36       1.0  0.1449082523478253  0.23952714292273214  0.48333889954978576  1.0000
  H   H37       1.0  0.8326547243733272  0.3429465406902922  0.01573172116935226  1.0000
  H   H38       1.0  0.6570470328009177  0.16734753660954746  0.9842689577690039  1.0000
  H   H39       1.0  0.922401509289358  0.9326326450912247  0.5161553990505894  1.0000
  H   H40       1.0  0.06737111228018479  0.07760011210491059  0.4838464048249308  1.0000
  H   H41       1.0  0.7162715062023962  0.42780715739993985  0.919194898440111  1.0000
  H   H42       1.0  0.5721880068996014  0.28372957848645086  0.08080501208698364  1.0000
  H   H43       1.0  0.7408990796131364  0.9522591553198723  0.41960248866525535  1.0000
  H   H44       1.0  0.04774253638917969  0.2591017868555383  0.5803975403417425  1.0000
  H   H45       1.0  0.6389772683594542  0.181273938881553  0.7122886181682945  1.0000
  H   H46       1.0  0.8187234543585759  0.3610258592204971  0.28771032398853447  1.0000
  H   H47       1.0  0.7811391642262963  0.8232194017768181  0.21274574109965996  1.0000
  H   H48       1.0  0.17678394579488096  0.2188599986445183  0.7872535648769984  1.0000
  H   H49       1.0  0.7464277989581802  0.09206307736880599  0.808551439772842  1.0000
  H   H50       1.0  0.9079321391273963  0.2535751828116943  0.1914476748204024  1.0000
  H   H51       1.0  0.9665614114741885  0.8120007341635543  0.3091530356784773  1.0000
  H   H52       1.0  0.18800351161634413  0.03344220704109801  0.6908472417957371  1.0000
  H   H53       1.0  0.7799598658371707  0.0847081270793453  0.6772602401185069  1.0000
  H   H54       1.0  0.9152902458055578  0.22004273212879613  0.3227381687333732  1.0000
  H   H55       1.0  0.8428032728716346  0.6472504441395229  0.17760963790809833  1.0000
  H   H56       1.0  0.35274976344445014  0.1571964576339084  0.8223889890897882  1.0000
  C   C1        1.0  0.9796001573556269  0.5484883919634598  0.734897303380926  1.0000
  C   C2        1.0  0.4515086924738653  0.0203989534641238  0.26510345788646833  1.0000
  C   C3        1.0  0.436024948964807  0.505252717759454  0.23487866105610075  1.0000
  C   C4        1.0  0.4947455316390688  0.5639799275081857  0.7651216171473865  1.0000
  C   C5        1.0  0.08316761980174901  0.6678624014812301  0.744139220070885  1.0000
  C   C6        1.0  0.332139469827645  0.9168320879456858  0.2558650813818774  1.0000
  C   C7        1.0  0.3256610417446026  0.4109942142389754  0.2439710908242888  1.0000
  C   C8        1.0  0.5890057040002077  0.674345489975572  0.7560294187382512  1.0000
  C   C9        1.0  0.0990651914037599  0.6256930343854421  0.6191161684245687  1.0000
  C   C10       1.0  0.37430415683219553  0.9009339625644514  0.3808841504469528  1.0000
  C   C11       1.0  0.24279566532312913  0.2701790752077001  0.11882166575157532  1.0000
  C   C12       1.0  0.7298189831108174  0.7572087679984493  0.8811784364945868  1.0000
  C   C13       1.0  0.035028035447709355  0.8221052757294275  0.7876917441999398  1.0000
  C   C14       1.0  0.17789533789124326  0.9649748489535382  0.21230907785759714  1.0000
  C   C15       1.0  0.21494848342781134  0.5026520253059419  0.2875147620512878  1.0000
  C   C16       1.0  0.4973412692214296  0.7850562713141896  0.7124846197621937  1.0000
  C   C17       1.0  0.8855418557914161  0.3881590964318491  0.7761344441974033  1.0000
  C   C18       1.0  0.6118417242809286  0.1144581481443367  0.22386620198538762  1.0000
  C   C19       1.0  0.6377790820109226  0.64021159974957  0.2761606306972057  1.0000
  C   C20       1.0  0.35978600280552087  0.36222083828621987  0.7238387330035466  1.0000
  C   C21       1.0  0.8670488683395945  0.3003809962596335  0.8449815721000961  1.0000
  C   C22       1.0  0.6996177747138006  0.13295416185219713  0.1550146455714057  1.0000
  C   C23       1.0  0.794432936860197  0.7274616604209426  0.34517769416481076  1.0000
  C   C24       1.0  0.2725377462647955  0.20556385483362757  0.6548228821373742  1.0000
  C   C25       1.0  0.8292472259222592  0.40019420391286076  0.9556438633370238  1.0000
  C   C26       1.0  0.5998017475766487  0.17075347378206368  0.04435783334841397  1.0000
  C   C27       1.0  0.805131764823237  0.8757393607595674  0.45594446029638663  1.0000
  C   C28       1.0  0.12426213836680229  0.19486876962429284  0.5440562719830526  1.0000
  C   C29       1.0  0.7515499438946093  0.15597201165895314  0.7552805011734736  1.0000
  C   C30       1.0  0.8440242536315807  0.2484519342495801  0.2447177717256964  1.0000
  C   C31       1.0  0.8493914650811333  0.7535687205629741  0.25570079923377886  1.0000
  C   C32       1.0  0.24643334268623107  0.1506084459421544  0.7442999995788002  1.0000
  N   N1        1.0  0.010997059792153187  0.49066510215723713  0.8222143784085318  1.0000
  N   N2        1.0  0.5093341743074831  0.9890022492298766  0.1777882506865041  1.0000
  N   N3        1.0  0.5811564075793713  0.5610147252075424  0.3222480337719065  1.0000
  N   N4        1.0  0.43898509905820043  0.4188465942545108  0.6777537860355595  1.0000
  N   N5        1.0  0.8423271169439489  0.4840253805410058  0.6407713778038658  1.0000
  N   N6        1.0  0.5159752491816435  0.157670317370787  0.3592315169422379  1.0000
  N   N7        1.0  0.4065861418492601  0.548340078821731  0.14075454813997376  1.0000
  N   N8        1.0  0.45165879695045424  0.593418073208035  0.859246476745604  1.0000
  N   N9        1.0  0.7822329434675909  0.38136350000712577  0.6664715471505717  1.0000
  N   N10       1.0  0.6186375701199723  0.21776584402480378  0.33353033812091587  1.0000
  N   N11       1.0  0.5350641031931715  0.6339392864423347  0.16646549832550764  1.0000
  N   N12       1.0  0.3660612871301225  0.46493646859072874  0.8335349431747049  1.0000
