data_image0
_chemical_formula_structural       Zn2H8C28Br4N2O12
_chemical_formula_sum              "Zn2 H8 C28 Br4 N2 O12"
_cell_length_a       11.813129924474199
_cell_length_b       12.21151524588955
_cell_length_c       13.250860107361154
_cell_angle_alpha    84.34811503994739
_cell_angle_beta     85.84806180200414
_cell_angle_gamma    87.09230652447575

_space_group_name_H-M_alt    "P 1"
_space_group_IT_number       1

loop_
  _space_group_symop_operation_xyz
  'x, y, z'

loop_
  _atom_site_type_symbol
  _atom_site_label
  _atom_site_symmetry_multiplicity
  _atom_site_fract_x
  _atom_site_fract_y
  _atom_site_fract_z
  _atom_site_occupancy
  Zn  Zn1       1.0  0.49703379752823895  0.6209728940283695  0.49001124398316165  1.0000
  Zn  Zn2       1.0  0.5029825086656599  0.3790288865189666  0.5099902790832759  1.0000
  H   H1        1.0  0.6781824919686484  0.6048841671021845  0.17513330569439492  1.0000
  H   H2        1.0  0.3218436842778941  0.39508306450279207  0.824856577885214  1.0000
  H   H3        1.0  0.3014072945521277  0.38356275970519965  0.013345170647461692  1.0000
  H   H4        1.0  0.6985994415683834  0.6164340161429678  0.9866458592336826  1.0000
  H   H5        1.0  0.40891590593292176  0.7520650109837845  0.6426348259075993  1.0000
  H   H6        1.0  0.5910419809683417  0.2479512448206478  0.35736697727691086  1.0000
  H   H7        1.0  0.5362690466415572  0.7821268912634805  0.21589646982105393  1.0000
  H   H8        1.0  0.46376708683909834  0.21783300407729198  0.7841676598430852  1.0000
  C   C1        1.0  0.4798336908830406  0.4913622837147286  0.6980767094315681  1.0000
  C   C2        1.0  0.528399392261498  0.9849355322138464  0.4526724648938014  1.0000
  C   C3        1.0  0.2824002534435833  0.5122843509877127  0.49321620333581256  1.0000
  C   C4        1.0  0.7176094169201401  0.4877190351642328  0.5067778912017076  1.0000
  C   C5        1.0  0.16024173387994264  0.509702791027749  0.4945742905036213  1.0000
  C   C6        1.0  0.839769678032212  0.49028742100728095  0.5054141215376903  1.0000
  C   C7        1.0  0.05698656000105727  0.503445921501708  0.4979613436935892  1.0000
  C   C8        1.0  0.9430291572278333  0.496513005951968  0.5020251727704591  1.0000
  C   C9        1.0  0.5260217630655362  0.5121515649592325  0.18801827926301226  1.0000
  C   C10       1.0  0.4739949737551468  0.4878428023882293  0.8119823816307346  1.0000
  C   C11       1.0  0.3724068645345326  0.42515073091607297  0.9718213325037156  1.0000
  C   C12       1.0  0.5201783231910964  0.5086386475396834  0.30192808108279223  1.0000
  C   C13       1.0  0.6276195457583497  0.5748247430090316  0.028173842070700103  1.0000
  C   C14       1.0  0.3835452735890356  0.4318268531958935  0.8673530437527007  1.0000
  C   C15       1.0  0.6164740486234236  0.5681535216104194  0.1326434842627435  1.0000
  C   C16       1.0  0.5534324615016004  0.5345648664542679  0.8643643282834433  1.0000
  C   C17       1.0  0.44657465570863036  0.4654368570471235  0.1356330371975929  1.0000
  C   C18       1.0  0.5469470511830818  0.528102649670231  0.972740578832074  1.0000
  C   C19       1.0  0.4530726502651133  0.4718867907594698  0.027255120876404217  1.0000
  C   C20       1.0  0.5861400725173097  0.826318973306762  0.33764301526449714  1.0000
  C   C21       1.0  0.41391072734565154  0.17367808467427182  0.6624020960622374  1.0000
  C   C22       1.0  0.5737822709529751  0.0723197674354452  0.38485501908267145  1.0000
  C   C23       1.0  0.42616627447074507  0.9276947775863604  0.6151231520652517  1.0000
  C   C24       1.0  0.5599541452207858  0.17953226277305132  0.4091681199293476  1.0000
  C   C25       1.0  0.440041361339425  0.8204743363702603  0.590839841385062  1.0000
  C   C26       1.0  0.4657228696894861  0.1282721887487739  0.5660661513855629  1.0000
  C   C27       1.0  0.5342933715225583  0.8717345403428569  0.43395606919813196  1.0000
  C   C28       1.0  0.4715781112424223  0.015079194876307194  0.5473279369022849  1.0000
  Br  Br1       1.0  0.3218273088335763  0.39497465814238103  0.2103366287377071  1.0000
  Br  Br2       1.0  0.6781559247627839  0.6050582313915314  0.7896656898471335  1.0000
  Br  Br3       1.0  0.6566748491227867  0.053893670616524496  0.2600693590403864  1.0000
  Br  Br4       1.0  0.34305116386847345  0.9461639833293416  0.7397953058343986  1.0000
  N   N1        1.0  0.49279855129498873  0.7935796312699422  0.5018350340972617  1.0000
  N   N2        1.0  0.5072355311019051  0.206423911757966  0.4981912893711496  1.0000
  O   O1        1.0  0.47305527641734085  0.5848273822128789  0.6477746726394074  1.0000
  O   O2        1.0  0.5079925083371036  0.8305835684801152  0.2680404957565089  1.0000
  O   O3        1.0  0.3187606750541362  0.2158954317330526  0.6693841900746379  1.0000
  O   O4        1.0  0.49204676450515444  0.16938623112785925  0.7320143156031024  1.0000
  O   O5        1.0  0.5269323235505395  0.4151808182188005  0.3522395005145995  1.0000
  O   O6        1.0  0.48878103193297295  0.39808001899854156  0.6626658731663824  1.0000
  O   O7        1.0  0.5112367426178962  0.6019275374780976  0.33733280829508777  1.0000
  O   O8        1.0  0.32490955369866736  0.6066148593695289  0.4880095949992765  1.0000
  O   O9        1.0  0.6751033684724915  0.3933885477054631  0.5119888975144136  1.0000
  O   O10       1.0  0.33517259125164844  0.4185360363716057  0.4978850237976999  1.0000
  O   O11       1.0  0.6648317553293593  0.5814673192868368  0.5021168356929238  1.0000
  O   O12       1.0  0.6813093556627547  0.7841462332381894  0.33064558259970067  1.0000
