data_image0
_chemical_formula_structural       Ca4H52C40S4N4O24
_chemical_formula_sum              "Ca4 H52 C40 S4 N4 O24"
_cell_length_a       6.543915914008594
_cell_length_b       10.474103377070406
_cell_length_c       18.471229804497664
_cell_angle_alpha    89.99963569320926
_cell_angle_beta     98.24096200321078
_cell_angle_gamma    89.99986502137372

_space_group_name_H-M_alt    "P 1"
_space_group_IT_number       1

loop_
  _space_group_symop_operation_xyz
  'x, y, z'

loop_
  _atom_site_type_symbol
  _atom_site_label
  _atom_site_symmetry_multiplicity
  _atom_site_fract_x
  _atom_site_fract_y
  _atom_site_fract_z
  _atom_site_occupancy
  Ca  Ca1       1.0  0.2511477945140895  0.9048479195387242  0.47603901690295203  1.0000
  Ca  Ca2       1.0  0.2488483666144461  0.4048448526136638  0.023959144468200605  1.0000
  Ca  Ca3       1.0  0.7488506445327731  0.09515318776701057  0.5239605751496867  1.0000
  Ca  Ca4       1.0  0.7511577589412539  0.5951552999670326  0.9760375797495798  1.0000
  H   H1        1.0  0.6319657999274924  0.08459576106153577  0.7038204483810304  1.0000
  H   H2        1.0  0.8680395468211015  0.5845977928347637  0.796174886961019  1.0000
  H   H3        1.0  0.36802948891195086  0.9154091652227622  0.2961730324833809  1.0000
  H   H4        1.0  0.13196203107497687  0.4154262280968836  0.20382973289648026  1.0000
  H   H5        1.0  0.5908449521064014  0.17931057504374337  0.8340687047456754  1.0000
  H   H6        1.0  0.9091768389061841  0.6793034885110456  0.6659265561992741  1.0000
  H   H7        1.0  0.40916424465886075  0.820692441749969  0.1659265473325675  1.0000
  H   H8        1.0  0.09082319494329738  0.32071193980113577  0.3340779872441217  1.0000
  H   H9        1.0  0.2183531174890447  0.59911097624191  0.3133944946864773  1.0000
  H   H10       1.0  0.28164018319213807  0.09911084037734948  0.186608976328408  1.0000
  H   H11       1.0  0.7816408022128127  0.4008758099733996  0.6866157014078169  1.0000
  H   H12       1.0  0.7183551677211  0.9008874027243506  0.8133904628677867  1.0000
  H   H13       1.0  0.396630394239132  0.4693602622301114  0.3327434083549221  1.0000
  H   H14       1.0  0.10335464482223239  0.9693612154065572  0.1672588385858234  1.0000
  H   H15       1.0  0.6033696565883417  0.5306360713598791  0.6672627601221067  1.0000
  H   H16       1.0  0.8966391845747878  0.030640846627271397  0.8327426908331077  1.0000
  H   H17       1.0  0.4735007021980805  0.612096276284035  0.29275277700864427  1.0000
  H   H18       1.0  0.026487859074379103  0.1121010334581598  0.20724716350623146  1.0000
  H   H19       1.0  0.5264792249441328  0.38789719314511467  0.7072475228824829  1.0000
  H   H20       1.0  0.9735121466033688  0.8879019833054326  0.7927546716349952  1.0000
  H   H21       1.0  0.5621650293669801  0.6802600967994222  0.5426129976514815  1.0000
  H   H22       1.0  0.9378367566891227  0.18025675490585505  0.9573883075874791  1.0000
  H   H23       1.0  0.4378550492238276  0.3197457841519834  0.45738983108770276  1.0000
  H   H24       1.0  0.062163254648851286  0.8197395787051176  0.0426140692322576  1.0000
  H   H25       1.0  0.8088107387631069  0.7233816476024442  0.5194627997461155  1.0000
  H   H26       1.0  0.6911922970391443  0.22338697838478072  0.980533536876564  1.0000
  H   H27       1.0  0.19121081059596887  0.27661182182288246  0.4805330637993208  1.0000
  H   H28       1.0  0.3088061532958192  0.776612219443642  0.019467138510492497  1.0000
  H   H29       1.0  0.7662866148125713  0.5653422052041248  0.5498754301007907  1.0000
  H   H30       1.0  0.7337111598086423  0.0653430405697435  0.9501233906687077  1.0000
  H   H31       1.0  0.23372416552921751  0.4346550831531744  0.4501236900770849  1.0000
  H   H32       1.0  0.266293455532427  0.9346542477874632  0.0498765071156484  1.0000
  H   H33       1.0  0.8064663515496092  0.4364066909349659  0.43964983378456424  1.0000
  H   H34       1.0  0.6935223810370559  0.9364106125544039  0.0603518641929952  1.0000
  H   H35       1.0  0.19351820217190147  0.5635839142857789  0.5603501537400251  1.0000
  H   H36       1.0  0.3064729867975515  0.06358858527396898  0.939649199997298  1.0000
  H   H37       1.0  0.9330632348280188  0.5820258528564891  0.4213631333040055  1.0000
  H   H38       1.0  0.5669289924063391  0.082032931394906  0.07863516354910871  1.0000
  H   H39       1.0  0.06692439576058008  0.4179618881603274  0.578635923757659  1.0000
  H   H40       1.0  0.4330709907140714  0.917967221173697  0.9213645049364558  1.0000
  H   H41       1.0  0.7418383081865156  0.5158822697520192  0.3538437653529698  1.0000
  H   H42       1.0  0.7581543095191775  0.015888341446334702  0.1461564173237377  1.0000
  H   H43       1.0  0.2581539489544298  0.4841121544129903  0.6461549793233345  1.0000
  H   H44       1.0  0.24184105266598266  0.9841137205920134  0.8538441051955844  1.0000
  H   H45       1.0  0.29341145037169974  0.11869429668222861  0.3726488310738603  1.0000
  H   H46       1.0  0.20658631553784798  0.6186850483201736  0.1273493753754593  1.0000
  H   H47       1.0  0.7065884989059652  0.8813039464330356  0.6273475874235075  1.0000
  H   H48       1.0  0.7934151890960874  0.38131224005196157  0.8726482028854862  1.0000
  H   H49       1.0  0.0558258927167614  0.1147064481586213  0.3870270857236733  1.0000
  H   H50       1.0  0.44417497820141694  0.6147018088188358  0.11297074763870539  1.0000
  H   H51       1.0  0.9441740509087636  0.8852956139022864  0.6129687911008331  1.0000
  H   H52       1.0  0.5558265377044479  0.38529929848994715  0.8870279139453743  1.0000
  C   C1        1.0  0.18218594836321236  0.2803265547699354  0.8530796843925543  1.0000
  C   C2        1.0  0.31782715509474  0.7803169385860046  0.6469177944907258  1.0000
  C   C3        1.0  0.8178093574191722  0.7196716883557526  0.1469154214810189  1.0000
  C   C4        1.0  0.6821790325158827  0.21968321396171572  0.3530848880456645  1.0000
  C   C5        1.0  0.27735832767037744  0.10035453620594836  0.5913603098053812  1.0000
  C   C6        1.0  0.2226449892855982  0.6003574322950695  0.9086378853893322  1.0000
  C   C7        1.0  0.7226416498302441  0.8996379784803706  0.40863881702991733  1.0000
  C   C8        1.0  0.7773642300450871  0.39964558448665594  0.0913595333502286  1.0000
  C   C9        1.0  0.3109544828293309  0.1370751275581767  0.6689266537129087  1.0000
  C   C10       1.0  0.18904711087051138  0.6370827457787199  0.8310740285668743  1.0000
  C   C11       1.0  0.6890316318978975  0.8629116587094571  0.3310750352462364  1.0000
  C   C12       1.0  0.8109590597836911  0.3629288636059157  0.1689270289509466  1.0000
  C   C13       1.0  0.491308453592559  0.1269459410296676  0.718335201468804  1.0000
  C   C14       1.0  0.008699334116819599  0.6269495774109826  0.7816620348283863  1.0000
  C   C15       1.0  0.5086915069705213  0.8730513473439454  0.2816623003610985  1.0000
  C   C16       1.0  0.9913068478093123  0.3730658509102867  0.21834010601255469  1.0000
  C   C17       1.0  0.4683976980421817  0.17706060323045134  0.7876164149283582  1.0000
  C   C18       1.0  0.0316128948285197  0.677049698490606  0.7123807766412114  1.0000
  C   C19       1.0  0.5316022511977465  0.8229510061840554  0.21238000354264844  1.0000
  C   C20       1.0  0.968390221513232  0.3229685940286018  0.287623377993306  1.0000
  C   C21       1.0  0.2707368481189504  0.22328997746851084  0.7904681284043917  1.0000
  C   C22       1.0  0.22927809894537887  0.723284563452914  0.7095274851540765  1.0000
  C   C23       1.0  0.7292615514330265  0.776713039329529  0.20952767198718192  1.0000
  C   C24       1.0  0.7707280604234156  0.2767280006733728  0.29047248903120254  1.0000
  C   C25       1.0  0.4407953544928559  0.6300055509984334  0.4074235697787216  1.0000
  C   C26       1.0  0.05919928757757019  0.13000484807562168  0.0925771475143478  1.0000
  C   C27       1.0  0.5592046624864793  0.36999078260954116  0.5925793487063375  1.0000
  C   C28       1.0  0.9407976186838384  0.8699953044899331  0.907423451439783  1.0000
  C   C29       1.0  0.379240778552024  0.5737176576822732  0.3323274557638811  1.0000
  C   C30       1.0  0.1207464666872937  0.07371795025895979  0.16767364299876422  1.0000
  C   C31       1.0  0.6207530847227858  0.42627390224130574  0.6676773236677249  1.0000
  C   C32       1.0  0.8792489011473135  0.9262812475694064  0.832327421191529  1.0000
  C   C33       1.0  0.6944375742541098  0.6463097418396871  0.5181542475725962  1.0000
  C   C34       1.0  0.8055628481717746  0.14631012867935309  0.9818460317745803  1.0000
  C   C35       1.0  0.3055763055067118  0.3536894559799889  0.4818461087942651  1.0000
  C   C36       1.0  0.1944386903048994  0.8536890691461206  0.0181547964745761  1.0000
  C   C37       1.0  0.7854264828361012  0.5300320529749526  0.4125193411312793  1.0000
  C   C38       1.0  0.7145691487535615  0.030034058971693894  0.0874814802836781  1.0000
  C   C39       1.0  0.21456423588073648  0.46996046171721423  0.5874798687830707  1.0000
  C   C40       1.0  0.2854292902959941  0.969966093598387  0.9125181117708435  1.0000
  S   S1        1.0  0.11289400114824127  0.20311219961928365  0.708539778308115  1.0000
  S   S2        1.0  0.3871118349048074  0.703117121771413  0.7914592478685237  1.0000
  S   S3        1.0  0.8870998000716523  0.7968793603372715  0.2914590428048811  1.0000
  S   S4        1.0  0.6128989341327014  0.29688780447715857  0.20853878896364364  1.0000
  N   N1        1.0  0.6302068188292508  0.603792955921392  0.44334467107375986  1.0000
  N   N2        1.0  0.8697868521261184  0.10379509126109096  0.05665578304670759  1.0000
  N   N3        1.0  0.36979165407652903  0.39620433242372144  0.5566581709783804  1.0000
  N   N4        1.0  0.1302069603576115  0.8962031518390886  0.9433441213837667  1.0000
  O   O1        1.0  0.09739393262643149  0.10830876139077356  0.5552036085433016  1.0000
  O   O2        1.0  0.40260165856143704  0.6083052842489209  0.9447979647999462  1.0000
  O   O3        1.0  0.9025859945292607  0.8916799343600771  0.4447966913572401  1.0000
  O   O4        1.0  0.5974121930222579  0.3916834114934815  0.0551996832609802  1.0000
  O   O5        1.0  0.43051224589818554  0.05926372478519679  0.5622408957316837  1.0000
  O   O6        1.0  0.0694913369657044  0.5592665075598049  0.9377607114896308  1.0000
  O   O7        1.0  0.569481606077737  0.9407335635583391  0.437762800357973  1.0000
  O   O8        1.0  0.9305132670737847  0.4407374639530062  0.062238102950892896  1.0000
  O   O9        1.0  0.3113783515102638  0.3173384000818657  0.9080872824423382  1.0000
  O   O10       1.0  0.1886298824836672  0.8173362511024322  0.5919071128567239  1.0000
  O   O11       1.0  0.6886184870602604  0.6826598430483413  0.0919068165316261  1.0000
  O   O12       1.0  0.8113701062807978  0.18266294672751832  0.40809309729605303  1.0000
  O   O13       1.0  0.9875560402887229  0.2856477341075561  0.8474282186327928  1.0000
  O   O14       1.0  0.5124574185643384  0.7856356071879843  0.6525651575142675  1.0000
  O   O15       1.0  0.012439282412330497  0.7143524184804589  0.1525685122329961  1.0000
  O   O16       1.0  0.48755025669818497  0.21436645485955097  0.3474321847961193  1.0000
  O   O17       1.0  0.179628564308068  0.0621023583915701  0.3834201727997808  1.0000
  O   O18       1.0  0.3203741759705209  0.5620968930488174  0.11658065275691601  1.0000
  O   O19       1.0  0.8203744674645674  0.9378977941950665  0.6165758568905773  1.0000
  O   O20       1.0  0.6796320060014407  0.4379023047662329  0.8834214881160278  1.0000
  O   O21       1.0  0.31423474836614657  0.69809245245861  0.4360673074674253  1.0000
  O   O22       1.0  0.18576260296767083  0.19809189378957365  0.0639338358640202  1.0000
  O   O23       1.0  0.6857652460342861  0.3019086548396501  0.5639334443469154  1.0000
  O   O24       1.0  0.8142373914327549  0.8019092135086934  0.9360669159503132  1.0000
