data_image0
_chemical_formula_structural       Zn4H48C68N8O20
_chemical_formula_sum              "Zn4 H48 C68 N8 O20"
_cell_length_a       9.842282789797103
_cell_length_b       11.295923580826452
_cell_length_c       15.617799459441487
_cell_angle_alpha    90.00010865337353
_cell_angle_beta     90.00072827336342
_cell_angle_gamma    116.53764094114366

_space_group_name_H-M_alt    "P 1"
_space_group_IT_number       1

loop_
  _space_group_symop_operation_xyz
  'x, y, z'

loop_
  _atom_site_type_symbol
  _atom_site_label
  _atom_site_symmetry_multiplicity
  _atom_site_fract_x
  _atom_site_fract_y
  _atom_site_fract_z
  _atom_site_occupancy
  Zn  Zn1       1.0  0.7492984720811863  0.7288118628750482  0.32442184817819714  1.0000
  Zn  Zn2       1.0  0.24930168178620707  0.22880566024457485  0.1755758411934707  1.0000
  Zn  Zn3       1.0  0.2506895761115331  0.27117738226257876  0.6755790940240659  1.0000
  Zn  Zn4       1.0  0.750693795392856  0.7711964616745066  0.8244231801625119  1.0000
  H   H1        1.0  0.43965466950450605  0.7450499946377533  0.2987569290704783  1.0000
  H   H2        1.0  0.9396591737477777  0.2450447071603605  0.2012288890756651  1.0000
  H   H3        1.0  0.5603277698415852  0.25493818996128687  0.701240811632843  1.0000
  H   H4        1.0  0.06033539320054612  0.7549515065583348  0.7987605278465962  1.0000
  H   H5        1.0  0.24403655605944863  0.7575084201796045  0.3958581673129089  1.0000
  H   H6        1.0  0.7440321615789643  0.25748508042431695  0.1041254310215294  1.0000
  H   H7        1.0  0.7559584661609051  0.2424907477161612  0.6041478972850101  1.0000
  H   H8        1.0  0.25596357938786707  0.7425032889517807  0.8958639859002702  1.0000
  H   H9        1.0  0.26270438020717546  0.7239119894498602  0.5548108318431062  1.0000
  H   H10       1.0  0.7627001368100821  0.22387526691439766  0.9451773905155108  1.0000
  H   H11       1.0  0.7373047029799978  0.2761011299463263  0.4451907507560335  1.0000
  H   H12       1.0  0.23729806797743444  0.7761180496313002  0.0548158681900759  1.0000
  H   H13       1.0  0.4626501639365373  0.6649775926356725  0.6071864642589871  1.0000
  H   H14       1.0  0.9626465817374595  0.1649402187296829  0.8928090732950053  1.0000
  H   H15       1.0  0.5373537655320819  0.33503742032834793  0.3928176795006734  1.0000
  H   H16       1.0  0.03736015069303264  0.835062059555831  0.107185466041507  1.0000
  H   H17       1.0  0.3734811323196753  0.3944663087609753  0.36005571317446083  1.0000
  H   H18       1.0  0.8734862695743288  0.8944742309240611  0.1399470531091112  1.0000
  H   H19       1.0  0.6265072955291516  0.6055298197300163  0.6399458693290327  1.0000
  H   H20       1.0  0.1265209556270719  0.1055290367986998  0.8600487668202133  1.0000
  H   H21       1.0  0.1572268401098782  0.4366579944692504  0.32679793321656087  1.0000
  H   H22       1.0  0.657213679957124  0.936652325716807  0.1732056861336631  1.0000
  H   H23       1.0  0.8427742459835628  0.563345188021664  0.6732094119989327  1.0000
  H   H24       1.0  0.3427885046913276  0.06334694168260312  0.826797177018193  1.0000
  H   H25       1.0  0.9668422046850722  0.4091417640047581  0.44396048888268075  1.0000
  H   H26       1.0  0.46682892980506807  0.9091330597767634  0.056040497571388  1.0000
  H   H27       1.0  0.03316979738311686  0.59087925663421  0.5560455757991463  1.0000
  H   H28       1.0  0.5331686315385724  0.09086712595855319  0.9439617252671582  1.0000
  H   H29       1.0  0.011576286859430216  0.3399207983506046  0.5908178240296564  1.0000
  H   H30       1.0  0.5115651622997747  0.8399240297204643  0.9091813105040458  1.0000
  H   H31       1.0  0.9884281730991449  0.6600932394188775  0.40918888091179184  1.0000
  H   H32       1.0  0.4884339149825081  0.1600771596490915  0.0908189914561461  1.0000
  H   H33       1.0  0.80633860932425  0.47936504356545834  0.11475665284228138  1.0000
  H   H34       1.0  0.30633987940017704  0.9793764149307904  0.3852424778005101  1.0000
  H   H35       1.0  0.19366425661414163  0.5206253900748905  0.885248131191652  1.0000
  H   H36       1.0  0.6936637833916494  0.020625820697247804  0.6147514212283838  1.0000
  H   H37       1.0  0.8367610025324623  0.4595312634542593  0.9576789714161436  1.0000
  H   H38       1.0  0.3367574837676274  0.9595284172391843  0.5423197752128814  1.0000
  H   H39       1.0  0.1632448953001316  0.5404611774628876  0.042323251451222205  1.0000
  H   H40       1.0  0.6632441703400573  0.040471825329838416  0.4576766849867581  1.0000
  H   H41       1.0  0.9598236851723669  0.18467741062062262  0.7352798400689265  1.0000
  H   H42       1.0  0.4598122543429994  0.6846762769786351  0.7647214634530002  1.0000
  H   H43       1.0  0.04018369090521646  0.8153179985750184  0.2647211022163134  1.0000
  H   H44       1.0  0.540179318557179  0.3153159648938129  0.2352813996508658  1.0000
  H   H45       1.0  0.04455036574491799  0.3397738225817761  0.7642508423356701  1.0000
  H   H46       1.0  0.5445305988193141  0.8397727812308201  0.7357498416064061  1.0000
  H   H47       1.0  0.9554534857014191  0.6602185899164398  0.2357539417036136  1.0000
  H   H48       1.0  0.4554548347696753  0.16021937531004224  0.2642491797019275  1.0000
  C   C1        1.0  0.4435482057230048  0.7327672322101009  0.3677788244060665  1.0000
  C   C2        1.0  0.9435485714571004  0.2327482431291301  0.1322114910993761  1.0000
  C   C3        1.0  0.5564458686406939  0.2672279921627733  0.6322233984149221  1.0000
  C   C4        1.0  0.056446488287534305  0.7672489600392752  0.8677811273009085  1.0000
  C   C5        1.0  0.33418713809609824  0.7377850924374982  0.4222201102318834  1.0000
  C   C6        1.0  0.8341922784944773  0.23776155269418103  0.0777667584942563  1.0000
  C   C7        1.0  0.665806330449634  0.2622150364474932  0.5777853140652738  1.0000
  C   C8        1.0  0.16580694951157685  0.7622317780734492  0.9222271405105857  1.0000
  C   C9        1.0  0.34318631166365077  0.716688884208523  0.5096895617613626  1.0000
  C   C10       1.0  0.8431883023052081  0.21665674770670051  0.9902948255820192  1.0000
  C   C11       1.0  0.6568142062038477  0.2833172381003947  0.4903126610932134  1.0000
  C   C12       1.0  0.15681138074423737  0.783339537125805  0.0096984331315824  1.0000
  C   C13       1.0  0.4573854720361227  0.6868185390545564  0.5397403358973705  1.0000
  C   C14       1.0  0.9573850011428181  0.1867928674319828  0.9602494253143732  1.0000
  C   C15       1.0  0.542617092251497  0.3131876116899194  0.4602618869655757  1.0000
  C   C16       1.0  0.04261919213050195  0.8132083929973675  0.039746394601238  1.0000
  C   C17       1.0  0.5641303484171303  0.6846334410586934  0.4814143711044494  1.0000
  C   C18       1.0  0.06412849560371112  0.1846192924676799  0.018582388484738  1.0000
  C   C19       1.0  0.4358666825042974  0.3153677199044083  0.5185904129128575  1.0000
  C   C20       1.0  0.9358725903627062  0.8153838899608984  0.9814153523046939  1.0000
  C   C21       1.0  0.6918838924472226  0.6570590467783147  0.5068275448836062  1.0000
  C   C22       1.0  0.19189959526248399  0.15705702350194878  0.9931702549061967  1.0000
  C   C23       1.0  0.3081110920540766  0.34294208574922885  0.4931772391253375  1.0000
  C   C24       1.0  0.8081081227013553  0.8429472336539089  0.006826205320877  1.0000
  C   C25       1.0  0.2920356074345635  0.3818789962717234  0.4104933360268531  1.0000
  C   C26       1.0  0.7920227350674623  0.8818752236439806  0.08951259053067422  1.0000
  C   C27       1.0  0.7079583915503208  0.6181201573937969  0.5895108076816697  1.0000
  C   C28       1.0  0.20798195095136415  0.11812702621014638  0.9104825890925383  1.0000
  C   C29       1.0  0.16830771881568296  0.4056556817520514  0.3914549538467114  1.0000
  C   C30       1.0  0.6682938717582942  0.905649187968322  0.1085519158707626  1.0000
  C   C31       1.0  0.831687228034312  0.5943474154405165  0.6085536719338122  1.0000
  C   C32       1.0  0.33170982880339045  0.0943510830528709  0.8914471055175284  1.0000
  C   C33       1.0  0.0643598339913609  0.3904948605042478  0.4559508017313689  1.0000
  C   C34       1.0  0.5643522781807918  0.8904974664711461  0.0440539189572036  1.0000
  C   C35       1.0  0.9356406085650593  0.6095151911305691  0.5440584643713036  1.0000
  C   C36       1.0  0.435646230926352  0.10950666274135297  0.9559451024124925  1.0000
  C   C37       1.0  0.0875414278815541  0.35251349423275974  0.5372843521580606  1.0000
  C   C38       1.0  0.5875372150054831  0.8525243749441744  0.9627179802942223  1.0000
  C   C39       1.0  0.9124564754753592  0.647495539525103  0.4627229930483665  1.0000
  C   C40       1.0  0.4124643260636063  0.1474817615783692  0.0372836022694685  1.0000
  C   C41       1.0  0.6225418293224579  0.5384205272989889  0.19651714092992734  1.0000
  C   C42       1.0  0.12253231727197542  0.0384285347126934  0.303482460619378  1.0000
  C   C43       1.0  0.37746202203920376  0.4615718851576744  0.8034812401586535  1.0000
  C   C44       1.0  0.8774626294425333  0.9615745624133822  0.6965159204400279  1.0000
  C   C45       1.0  0.6036407057251197  0.5027529055746243  0.1027323807157856  1.0000
  C   C46       1.0  0.10363833518829321  0.002759247335930601  0.3972625368040994  1.0000
  C   C47       1.0  0.39636507901807516  0.4972454292711106  0.8972711227452095  1.0000
  C   C48       1.0  0.8963632057876584  0.9972468891408964  0.6027320025138181  1.0000
  C   C49       1.0  0.722018083447665  0.4816203534546872  0.0703582501809308  1.0000
  C   C50       1.0  0.22201601763972437  0.9816273255375947  0.4296395551542602  1.0000
  C   C51       1.0  0.2779907331982017  0.5183799886720023  0.9296433324085669  1.0000
  C   C52       1.0  0.777987532037301  0.0183808040065614  0.5703537035830523  1.0000
  C   C53       1.0  0.739273577213929  0.4703303614197766  0.9822601489590214  1.0000
  C   C54       1.0  0.23927190973794424  0.9703301786279896  0.5177371763946965  1.0000
  C   C55       1.0  0.26073622491448845  0.5296719595523101  0.0177395127506088  1.0000
  C   C56       1.0  0.760726599335328  0.029673950567882898  0.4822592837947184  1.0000
  C   C57       1.0  0.6382744924607096  0.47945003983894446  0.9242919094281064  1.0000
  C   C58       1.0  0.13828011791294162  0.9794438114883876  0.5757110070097795  1.0000
  C   C59       1.0  0.3617333009496946  0.5205502880574996  0.0757077522719953  1.0000
  C   C60       1.0  0.8617160782412372  0.0205475120232208  0.4242886546369817  1.0000
  C   C61       1.0  0.6841783779905061  0.4870302259655972  0.8315504832322489  1.0000
  C   C62       1.0  0.18417694326125658  0.987014260826861  0.66845025669614  1.0000
  C   C63       1.0  0.31582327628653667  0.5129700166865305  0.1684587828687967  1.0000
  C   C64       1.0  0.8158238383940033  0.012978108939073307  0.33154236172425305  1.0000
  C   C65       1.0  0.5088128586082378  0.4937509308194734  0.9542437539168134  1.0000
  C   C66       1.0  0.008811514926755032  0.9937461930395698  0.5457626073645797  1.0000
  C   C67       1.0  0.4911969812561665  0.5062494255291411  0.04575846897193261  1.0000
  C   C68       1.0  0.9911871826740184  0.0062481129641512026  0.4542351334091705  1.0000
  N   N1        1.0  0.5567395509469294  0.7091468410092504  0.3974563065896248  1.0000
  N   N2        1.0  0.056740486904701015  0.20913084234616966  0.10253658376316109  1.0000
  N   N3        1.0  0.4432560393723435  0.290849387006169  0.6025452759431502  1.0000
  N   N4        1.0  0.9432555206796425  0.7908703043368205  0.8974585958239132  1.0000
  N   N5        1.0  0.7936307641165287  0.6710219899619146  0.4443927970479749  1.0000
  N   N6        1.0  0.29363902414988985  0.1710123792380926  0.05561542139950149  1.0000
  N   N7        1.0  0.20636622911125369  0.3289811356454281  0.5556126272655675  1.0000
  N   N8        1.0  0.7063635401292672  0.8289937715022261  0.9443861611683744  1.0000
  O   O1        1.0  0.636258123791059  0.6534151312254152  0.21484956204509592  1.0000
  O   O2        1.0  0.13624463980121962  0.1534179392799331  0.2851445427529953  1.0000
  O   O3        1.0  0.3637508059103425  0.3465793169560598  0.7851481787704913  1.0000
  O   O4        1.0  0.8637416661470496  0.8465820900183018  0.7148512770888189  1.0000
  O   O5        1.0  0.6454708330002178  0.46427547497717114  0.2498563253486594  1.0000
  O   O6        1.0  0.1454648919605432  0.9642879899086196  0.2501440336307468  1.0000
  O   O7        1.0  0.3545330184037852  0.5357169375002684  0.7501452572152729  1.0000
  O   O8        1.0  0.8545299416391645  0.035721001133588  0.7498537071370706  1.0000
  O   O9        1.0  0.729958692156913  0.4080013778121128  0.8033219283287992  1.0000
  O   O10       1.0  0.22994087331809263  0.9079717848628236  0.6966720359852943  1.0000
  O   O11       1.0  0.2700534983371625  0.5920098195848382  0.19667773339651257  1.0000
  O   O12       1.0  0.7700650244044241  0.092020656000301  0.3033218630461576  1.0000
  O   O13       1.0  0.6800168322987616  0.5831894990426888  0.7876205261772427  1.0000
  O   O14       1.0  0.1800290853928601  0.0831632520467878  0.7123815598889037  1.0000
  O   O15       1.0  0.3199777348527847  0.4168067147757384  0.2123842578266988  1.0000
  O   O16       1.0  0.8199728326465419  0.9168232380498861  0.2876161808927478  1.0000
  O   O17       1.0  0.04281193048616669  0.2773731243301327  0.7210340776995068  1.0000
  O   O18       1.0  0.5428029328693  0.7773776906159712  0.7789665085358521  1.0000
  O   O19       1.0  0.9571938919506736  0.7226232458713612  0.2789687854652527  1.0000
  O   O20       1.0  0.457192126976949  0.22261951260230012  0.221033793405276  1.0000
