data_image0
_chemical_formula_structural       Ce2H28C44O16
_chemical_formula_sum              "Ce2 H28 C44 O16"
_cell_length_a       8.645354209346026
_cell_length_b       14.277082680032054
_cell_length_c       14.90274966084647
_cell_angle_alpha    114.27067198974929
_cell_angle_beta     106.95785573439787
_cell_angle_gamma    89.8252402570891

_space_group_name_H-M_alt    "P 1"
_space_group_IT_number       1

loop_
  _space_group_symop_operation_xyz
  'x, y, z'

loop_
  _atom_site_type_symbol
  _atom_site_label
  _atom_site_symmetry_multiplicity
  _atom_site_fract_x
  _atom_site_fract_y
  _atom_site_fract_z
  _atom_site_occupancy
  Ce  Ce1       1.0  0.9555469162464546  0.994731473055282  0.4529122866003517  1.0000
  Ce  Ce2       1.0  0.5027296049192244  0.0060340841278617025  0.5473086540672581  1.0000
  H   H1        1.0  0.7928910506944644  0.19735760288919132  0.3293606866609763  1.0000
  H   H2        1.0  0.46347274479914086  0.8015333586105059  0.6704689495184083  1.0000
  H   H3        1.0  0.7925398688709959  0.3632439802727064  0.31248483666553256  1.0000
  H   H4        1.0  0.48031253734087187  0.6355710957525958  0.6871620955547612  1.0000
  H   H5        1.0  0.42071217563794505  0.44596711443774245  0.4616603042477791  1.0000
  H   H6        1.0  0.9591377698256736  0.5542537366818722  0.5379944266830773  1.0000
  H   H7        1.0  0.4230339349262238  0.280652665802819  0.47771274256103163  1.0000
  H   H8        1.0  0.9451837605914193  0.7196807234253843  0.5222327868358575  1.0000
  H   H9        1.0  0.6887512194454501  0.4661396232242084  0.2448292492479068  1.0000
  H   H10       1.0  0.4446131890884572  0.5330870112315652  0.7549275801541453  1.0000
  H   H11       1.0  0.7333192169914823  0.6412153615675465  0.253120002793892  1.0000
  H   H12       1.0  0.4815246462582221  0.3581337332844259  0.7470503456799803  1.0000
  H   H13       1.0  0.5850192398221381  0.773250053742899  0.5264730458299878  1.0000
  H   H14       1.0  0.06006174390111607  0.2261832472138394  0.4735991261272687  1.0000
  H   H15       1.0  0.5463260450693211  0.6004430859282409  0.5213914192731579  1.0000
  H   H16       1.0  0.025404819370663703  0.3988361288020102  0.4781734966048178  1.0000
  H   H17       1.0  0.18787519831376895  0.28156523526796223  0.7700338647319  1.0000
  H   H18       1.0  0.4175210438593381  0.7188725681872086  0.22957652976410964  1.0000
  H   H19       1.0  0.2674224906842754  0.4472624561135775  0.9265276872042207  1.0000
  H   H20       1.0  0.34112033479265585  0.5527052143571539  0.0736701019806603  1.0000
  H   H21       1.0  0.7843898104529075  0.4254789790301673  0.951756856774466  1.0000
  H   H22       1.0  0.8326648633117983  0.5750046411641351  0.04879619531616427  1.0000
  H   H23       1.0  0.7043784804335897  0.2629317865525138  0.7904198009353817  1.0000
  H   H24       1.0  0.9136244489318058  0.737830090922671  0.20971245872045308  1.0000
  H   H25       1.0  0.24537051335125426  0.08423296650786231  0.35031889965670615  1.0000
  H   H26       1.0  0.8944162370006622  0.9156303919596384  0.6502168242504922  1.0000
  H   H27       1.0  0.029327930106617873  0.9819600808148227  0.14459114956925856  1.0000
  H   H28       1.0  0.8850493020607217  0.019003360037629598  0.8560336468554722  1.0000
  C   C1        1.0  0.6187496210251737  0.13247797764348235  0.42156455704120777  1.0000
  C   C2        1.0  0.1973126708283529  0.8669572792136719  0.5779005156855205  1.0000
  C   C3        1.0  0.6090847066582654  0.22863869469649256  0.40531510351518557  1.0000
  C   C4        1.0  0.20370600802741012  0.7709147293089913  0.5945642305740079  1.0000
  C   C5        1.0  0.7113449051146076  0.2524192221454484  0.3575237689633253  1.0000
  C   C6        1.0  0.3538222291085233  0.7467714542002996  0.6423294982266938  1.0000
  C   C7        1.0  0.7097443857493531  0.34515776397044123  0.3478597117038758  1.0000
  C   C8        1.0  0.3620106367413881  0.6539731818405485  0.65187637781802  1.0000
  C   C9        1.0  0.6082158914662229  0.4181885793507052  0.3869775712301759  1.0000
  C   C10       1.0  0.2213810813392171  0.5812685764736756  0.6126902669993868  1.0000
  C   C11       1.0  0.5035073512807955  0.39241201740342296  0.43267545429794296  1.0000
  C   C12       1.0  0.07089514011621381  0.6075204169595241  0.5670748825437926  1.0000
  C   C13       1.0  0.5031908630706425  0.29900611207838784  0.44111336447952704  1.0000
  C   C14       1.0  0.06205695094178762  0.7010185291780927  0.5587628259854327  1.0000
  C   C15       1.0  0.61776633804255  0.5199145656791304  0.3840163482391219  1.0000
  C   C16       1.0  0.23432703913532296  0.4794534344506972  0.6155824467572729  1.0000
  C   C17       1.0  0.6675020758463575  0.5333309923431387  0.30749541854012097  1.0000
  C   C18       1.0  0.36082894791604764  0.46596953318623957  0.6922345707160956  1.0000
  C   C19       1.0  0.6906168730093326  0.631017393377121  0.31086716728444214  1.0000
  C   C20       1.0  0.3810501005065633  0.36831641878394816  0.6890978870009121  1.0000
  C   C21       1.0  0.6635553412131969  0.7189692876008211  0.39047609004209244  1.0000
  C   C22       1.0  0.2747496204483609  0.2803244185832909  0.6095803237517713  1.0000
  C   C23       1.0  0.6072562883639918  0.7059544225598418  0.4644367914338972  1.0000
  C   C24       1.0  0.14424623131383646  0.2934407055720101  0.5355030628218955  1.0000
  C   C25       1.0  0.5849841868129529  0.6081327595157833  0.4611466799102145  1.0000
  C   C26       1.0  0.12471701411396895  0.3912309569541463  0.5385220003329961  1.0000
  C   C27       1.0  0.7084571787772234  0.8234701453853291  0.3997033882497333  1.0000
  C   C28       1.0  0.30994115447649767  0.1760167013481038  0.6014863155814822  1.0000
  C   C29       1.0  0.8902817897986067  0.1646640512812852  0.6726678496222644  1.0000
  C   C30       1.0  0.21692785335432765  0.8369442667266968  0.3263533638661826  1.0000
  C   C31       1.0  0.9409427371449436  0.2620283068241562  0.7697452590145912  1.0000
  C   C32       1.0  0.17091474487842345  0.7386917493071294  0.2301205490872888  1.0000
  C   C33       1.0  0.10000910351821096  0.31435977301071477  0.8099883589454251  1.0000
  C   C34       1.0  0.28975494295229953  0.6860676746361138  0.18982475787276343  1.0000
  C   C35       1.0  0.1441650803834591  0.407214945181302  0.8990674213995931  1.0000
  C   C36       1.0  0.2451034660189037  0.5929529327455826  0.10100129465173073  1.0000
  C   C37       1.0  0.032630195226161535  0.4507379704507174  0.952696505517217  1.0000
  C   C38       1.0  0.08001924675446755  0.5494871950962336  0.04753323462298912  1.0000
  C   C39       1.0  0.8738086275009707  0.3960087418391042  0.9119229908867438  1.0000
  C   C40       1.0  0.9619123228807992  0.6044469397603579  0.08841091035611004  1.0000
  C   C41       1.0  0.8280269099989966  0.30392050834453954  0.821970898010278  1.0000
  C   C42       1.0  0.005856356363096901  0.6967397665256386  0.17814226550035533  1.0000
  C   C43       1.0  0.1253577467122113  0.0517235993553271  0.2898016553783762  1.0000
  C   C44       1.0  0.8355748357650157  0.9492309263392686  0.7109918882625833  1.0000
  O   O1        1.0  0.7422293378876715  0.08495123956884501  0.41063252703844444  1.0000
  O   O2        1.0  0.33154913976032657  0.9126328590629386  0.5871369838988227  1.0000
  O   O3        1.0  0.505650993082007  0.10250990961858973  0.44692656703768546  1.0000
  O   O4        1.0  0.05921833922419479  0.8982499353036814  0.5539395487513373  1.0000
  O   O5        1.0  0.7080606533017711  0.9053355304160321  0.4816030042664606  1.0000
  O   O6        1.0  0.22799408779071945  0.093770127714869  0.5198099467306037  1.0000
  O   O7        1.0  0.7618694794286608  0.8326418188012498  0.3324703984614031  1.0000
  O   O8        1.0  0.42962528770328134  0.166763313095025  0.669667285790453  1.0000
  O   O9        1.0  0.9911255302070925  0.13015134299210024  0.6228367225179025  1.0000
  O   O10       1.0  0.36725305195493957  0.8728515877193745  0.37523538882791746  1.0000
  O   O11       1.0  0.745568926863477  0.11888980254360602  0.6426837633654755  1.0000
  O   O12       1.0  0.10129331423751599  0.882190319432091  0.35620870337630345  1.0000
  O   O13       1.0  0.9944666460461349  0.04857291709588202  0.3060069546718364  1.0000
  O   O14       1.0  0.6886808061569809  0.9538955655633644  0.6950439788701671  1.0000
  O   O15       1.0  0.1384956709739456  0.014194531401699403  0.19429245262444536  1.0000
  O   O16       1.0  0.9444397122926489  0.9861322485461773  0.8063768090993547  1.0000
