data_image0
_chemical_formula_structural       Al2H14C26N2O10F2
_chemical_formula_sum              "Al2 H14 C26 N2 O10 F2"
_cell_length_a       6.599056463060199
_cell_length_b       11.021534696918458
_cell_length_c       17.065456285377984
_cell_angle_alpha    80.70271448213016
_cell_angle_beta     80.49600544379508
_cell_angle_gamma    74.36504213624809

_space_group_name_H-M_alt    "P 1"
_space_group_IT_number       1

loop_
  _space_group_symop_operation_xyz
  'x, y, z'

loop_
  _atom_site_type_symbol
  _atom_site_label
  _atom_site_symmetry_multiplicity
  _atom_site_fract_x
  _atom_site_fract_y
  _atom_site_fract_z
  _atom_site_occupancy
  Al  Al1       1.0  0.49599435068987663  0.5010619547895703  0.4974895964578252  1.0000
  Al  Al2       1.0  0.9950801933629732  0.5027745038574029  0.49733722808287695  1.0000
  H   H1        1.0  0.20004860626428905  0.6556149547770008  0.44250417021063987  1.0000
  H   H2        1.0  0.8068786123006998  0.3434152123343355  0.5370920710888214  1.0000
  H   H3        1.0  0.8147570633353354  0.5677664522046159  0.7373587760636937  1.0000
  H   H4        1.0  0.7668023575655382  0.5686674528812078  0.8866482386294053  1.0000
  H   H5        1.0  0.4364451777359194  0.40810515020542243  0.8892246296453621  1.0000
  H   H6        1.0  0.4856991039562216  0.41174285345078243  0.7389543180105491  1.0000
  H   H7        1.0  0.5581564467096668  0.5916988928011693  0.1056180720406203  1.0000
  H   H8        1.0  0.22707823516937958  0.4300372292755697  0.1101066894986857  1.0000
  H   H9        1.0  0.17632909829176666  0.43236019485755883  0.2593376684312645  1.0000
  H   H10       1.0  0.5064184621803776  0.5899430668753286  0.25575446054622125  1.0000
  H   H11       1.0  0.8805940154542282  0.7598171858174823  0.6017189235492993  1.0000
  H   H12       1.0  0.03537890255840632  0.8720901884464286  0.6804879837215837  1.0000
  H   H13       1.0  0.6083831722101395  0.22677207461381246  0.6052536323557264  1.0000
  H   H14       1.0  0.8961310100974414  0.10654185074350411  0.6833288035266778  1.0000
  C   C1        1.0  0.6295388380702533  0.7253771283221585  0.5072224989975496  1.0000
  C   C2        1.0  0.8096731686506046  0.513536744556042  0.3539074231384234  1.0000
  C   C3        1.0  0.35744897834211287  0.2759730552245828  0.4959421675690336  1.0000
  C   C4        1.0  0.18070144047418776  0.48930432061654044  0.6415435555086759  1.0000
  C   C5        1.0  0.15290335358897514  0.4893055208660188  0.7299221724822189  1.0000
  C   C6        1.0  0.9495707612931027  0.5334661541190473  0.771314646104571  1.0000
  C   C7        1.0  0.9224101461858893  0.5336341970436465  0.8535920978341026  1.0000
  C   C8        1.0  0.09953120084803398  0.4872835157893081  0.8959333281340349  1.0000
  C   C9        1.0  0.3026518458744433  0.44331807742423035  0.854716558241428  1.0000
  C   C10       1.0  0.32940051816721905  0.4449056784851565  0.7720451521272764  1.0000
  C   C11       1.0  0.69116821665947  0.5566130567718163  0.14049961847747033  1.0000
  C   C12       1.0  0.8948201649788318  0.5119801605215388  0.09985779371641003  1.0000
  C   C13       1.0  0.07108587742851574  0.4657450252457097  0.1426709296523399  1.0000
  C   C14       1.0  0.04254503512844107  0.46688407682192706  0.2248679995026635  1.0000
  C   C15       1.0  0.8386996145384629  0.5119666821381942  0.26560300620027283  1.0000
  C   C16       1.0  0.662998946258007  0.5559933377807982  0.223100852701414  1.0000
  C   C17       1.0  0.5614187395018178  0.8656829156928797  0.5096729534643744  1.0000
  C   C18       1.0  0.6595805919181218  0.9292929212295606  0.5537753196936137  1.0000
  C   C19       1.0  0.39703531864867614  0.9356001015794818  0.46797235657930264  1.0000
  C   C20       1.0  0.8230709633885236  0.8621951536245196  0.6008395834312169  1.0000
  C   C21       1.0  0.9093107127656946  0.9252913883642723  0.6451302072187775  1.0000
  C   C22       1.0  0.4227282602073786  0.13406564553049097  0.5049877953015098  1.0000
  C   C23       1.0  0.32941682041619197  0.06884748980577632  0.4649420679825624  1.0000
  C   C24       1.0  0.5858282910611334  0.06469140054061029  0.5527915919222794  1.0000
  C   C25       1.0  0.672712684560487  0.1255772840457894  0.6016480844388853  1.0000
  C   C26       1.0  0.8319185031532895  0.05761147598111191  0.6463516408582493  1.0000
  N   N1        1.0  0.09040910890687562  0.4813456857732918  0.9797433249160507  1.0000
  N   N2        1.0  0.9049606007688238  0.5174384611970739  0.01613086927438451  1.0000
  O   O1        1.0  0.48394452344871997  0.6665235363294928  0.5220679456613128  1.0000
  O   O2        1.0  0.9766139983342086  0.4912809799406476  0.38775017707926207  1.0000
  O   O3        1.0  0.16063238336666794  0.3287629514122942  0.5085529652426644  1.0000
  O   O4        1.0  0.370396070990239  0.46105492275845017  0.6061546702344245  1.0000
  O   O5        1.0  0.5055921835163558  0.3328970610534372  0.4773709842676652  1.0000
  O   O6        1.0  0.013166063028670308  0.5159092240674213  0.6074807673969361  1.0000
  O   O7        1.0  0.8261380983665061  0.67570215819179  0.4894261832802087  1.0000
  O   O8        1.0  0.6195842123579283  0.5388562437027462  0.3892333928473306  1.0000
  O   O9        1.0  0.2315106553713164  0.5662016524542468  0.4631202010236635  1.0000
  O   O10       1.0  0.7610846215380672  0.4355312064935078  0.5320995061426076  1.0000
  F   F1        1.0  0.17703029401818066  0.13007544971080168  0.41828740578127116  1.0000
  F   F2        1.0  0.3008821103982339  0.880443371365168  0.4243664755584788  1.0000
