data_image0
_chemical_formula_structural       MnH4C6S2N4
_chemical_formula_sum              "Mn1 H4 C6 S2 N4"
_cell_length_a       5.689380854463296
_cell_length_b       6.413942759505271
_cell_length_c       6.413858642799225
_cell_angle_alpha    70.99988765591957
_cell_angle_beta     87.50179087003255
_cell_angle_gamma    87.50401883122082

_space_group_name_H-M_alt    "P 1"
_space_group_IT_number       1

loop_
  _space_group_symop_operation_xyz
  'x, y, z'

loop_
  _atom_site_type_symbol
  _atom_site_label
  _atom_site_symmetry_multiplicity
  _atom_site_fract_x
  _atom_site_fract_y
  _atom_site_fract_z
  _atom_site_occupancy
  Mn  Mn1       1.0  0.999990266149105  0.49999335602062445  0.4999907842232289  1.0000
  H   H1        1.0  0.33329373465275586  0.07711606210470733  0.7392922050412307  1.0000
  H   H2        1.0  0.33329197130281335  0.7392932579512818  0.07712423508281309  1.0000
  H   H3        1.0  0.6667321077918232  0.9228969182444691  0.2607230423151135  1.0000
  H   H4        1.0  0.6667268663826748  0.26071628020623194  0.9228800018131975  1.0000
  C   C1        1.0  0.5267000715829298  0.3412423782011659  0.3412336557895799  1.0000
  C   C2        1.0  0.4732822446285213  0.6587518791315433  0.6587539353814972  1.0000
  C   C3        1.0  0.183959135531218  0.043474810942029804  0.8564295209612849  1.0000
  C   C4        1.0  0.18392900735571524  0.8564395137706956  0.04348999853979743  1.0000
  C   C5        1.0  0.8160717443548292  0.9565397037106467  0.14356471734474485  1.0000
  C   C6        1.0  0.8161023963838264  0.14356691658703372  0.9565287329759468  1.0000
  S   S1        1.0  0.26904467150327355  0.28130054801050625  0.28128697566399535  1.0000
  S   S2        1.0  0.7309117683085516  0.7186785842763541  0.7186943481974094  1.0000
  N   N1        1.0  0.7139596755381705  0.3857394799010904  0.38573871737315085  1.0000
  N   N2        1.0  0.2860067544095557  0.6142580363011448  0.6142578681257259  1.0000
  N   N3        1.0  0.999988419722513  0.18743692112668953  0.8125724015017465  1.0000
  N   N4        1.0  2.171808913689974e-05  0.8125709293029787  0.18743591076319166  1.0000
