data_image0
_chemical_formula_structural       Cu8H108C144N8O44
_chemical_formula_sum              "Cu8 H108 C144 N8 O44"
_cell_length_a       15.885142442310528
_cell_length_b       18.11950006742735
_cell_length_c       19.82007072338434
_cell_angle_alpha    93.91631023834736
_cell_angle_beta     113.62004032933426
_cell_angle_gamma    115.99026097812703

_space_group_name_H-M_alt    "P 1"
_space_group_IT_number       1

loop_
  _space_group_symop_operation_xyz
  'x, y, z'

loop_
  _atom_site_type_symbol
  _atom_site_label
  _atom_site_symmetry_multiplicity
  _atom_site_fract_x
  _atom_site_fract_y
  _atom_site_fract_z
  _atom_site_occupancy
  Cu  Cu1       1.0  0.4869759396829565  0.9488507374869715  0.5411504838358778  1.0000
  Cu  Cu2       1.0  0.4970201804769232  0.5511799052700256  0.9589301190584077  1.0000
  Cu  Cu3       1.0  0.5130330859720686  0.05115670644349991  0.4588501900737042  1.0000
  Cu  Cu4       1.0  0.5029771203101274  0.44881982704367124  0.04106936867813713  1.0000
  Cu  Cu5       1.0  0.9357152002262266  0.4287725909947185  0.44678513152761895  1.0000
  Cu  Cu6       1.0  0.5600231906649994  0.07122875085001112  0.05323885107365093  1.0000
  Cu  Cu7       1.0  0.06429018449064469  0.5712290713331855  0.5532160369081252  1.0000
  Cu  Cu8       1.0  0.4399701499326125  0.9287690535110615  0.9467602656290094  1.0000
  H   H1        1.0  0.6274949786513063  0.8365602198980827  0.24047972358525257  1.0000
  H   H2        1.0  0.05050355661140321  0.6635260593369666  0.2595299682710887  1.0000
  H   H3        1.0  0.37250618743260594  0.16343694203502684  0.7595198191668826  1.0000
  H   H4        1.0  0.9494981253610392  0.3364730269628853  0.740467842424344  1.0000
  H   H5        1.0  0.9391193200350257  0.7447008116718054  0.3665459275582562  1.0000
  H   H6        1.0  0.3277590324874354  0.7553637913076445  0.13335019269045023  1.0000
  H   H7        1.0  0.0608870025648258  0.25530342157399133  0.6334557021019334  1.0000
  H   H8        1.0  0.6722309802566215  0.24463207236919265  0.8666416893360914  1.0000
  H   H9        1.0  0.5718607805305355  0.9237252990939172  0.296565214860628  1.0000
  H   H10       1.0  0.8516740961950828  0.5763966997847304  0.203488068268335  1.0000
  H   H11       1.0  0.4281466582059251  0.07627636239690361  0.7034355967049419  1.0000
  H   H12       1.0  0.14832705911143748  0.4236036798641578  0.796514198285713  1.0000
  H   H13       1.0  0.001188742000607637  0.9319887769939046  0.24360013411550333  1.0000
  H   H14       1.0  0.3260595854997561  0.5684857653225494  0.25674634882794567  1.0000
  H   H15       1.0  0.9988111659505421  0.0680064471536568  0.7563938404959955  1.0000
  H   H16       1.0  0.6739403087472056  0.43151589612445923  0.743254085090207  1.0000
  H   H17       1.0  0.8030686202385268  0.030554373809273703  0.216044010758054  1.0000
  H   H18       1.0  0.05672031193242329  0.4697930552644039  0.28393478152395335  1.0000
  H   H19       1.0  0.19693456161050446  0.9694459984649131  0.7839543579659247  1.0000
  H   H20       1.0  0.9432783820627508  0.5302034618885971  0.7160634306686189  1.0000
  H   H21       1.0  0.19382917465443936  0.9794755283231922  0.3125109454063305  1.0000
  H   H22       1.0  0.4019462465840745  0.5206714708630217  0.18764234273675118  1.0000
  H   H23       1.0  0.806174119716651  0.0205229059187033  0.687481785880699  1.0000
  H   H24       1.0  0.5980583069182827  0.4793321216820417  0.8123601980470665  1.0000
  H   H25       1.0  0.8838348661345277  0.6934971177518819  0.4934030005350747  1.0000
  H   H26       1.0  0.19698006109833  0.8065991291333108  0.00654815765980029  1.0000
  H   H27       1.0  0.11616123147393147  0.3065006898514683  0.5065980009806308  1.0000
  H   H28       1.0  0.8030153980075594  0.19340638576994001  0.9934511127358188  1.0000
  H   H29       1.0  0.7835691223158747  0.7650536526151585  0.43013417131875525  1.0000
  H   H30       1.0  0.08833677378621027  0.735114658116544  0.06981153908911607  1.0000
  H   H31       1.0  0.21642642407637414  0.23494222221596323  0.5698640095909366  1.0000
  H   H32       1.0  0.9116602273760536  0.26488893251681145  0.9301896123444633  1.0000
  H   H33       1.0  0.5784002267363916  0.7791028267884601  0.05215126258909201  1.0000
  H   H34       1.0  0.2469803551708765  0.7212385925661952  0.44784332659985165  1.0000
  H   H35       1.0  0.4215964132391862  0.2208936912016313  0.9478473064736475  1.0000
  H   H36       1.0  0.7530183506001862  0.27875792738863225  0.5521564031469592  1.0000
  H   H37       1.0  0.5287929040855416  0.7663302466360805  0.4459447227546532  1.0000
  H   H38       1.0  0.8166372087442821  0.7338905891831617  0.05420971509352056  1.0000
  H   H39       1.0  0.4712065720922567  0.23367076919372218  0.5540540237337479  1.0000
  H   H40       1.0  0.18336066188696518  0.26610786005487347  0.9457908811499603  1.0000
  H   H41       1.0  0.6828009458181512  0.7208707642046905  0.13450095274059481  1.0000
  H   H42       1.0  0.3274312806811892  0.7795318791734617  0.36556726051426824  1.0000
  H   H43       1.0  0.31719690811340223  0.2791244607799612  0.865493378741078  1.0000
  H   H44       1.0  0.6725672772401268  0.22046657040817763  0.6344335540067618  1.0000
  H   H45       1.0  0.6137080564721841  0.5659559065895436  0.21551823538056405  1.0000
  H   H46       1.0  0.3322210037795443  0.9341077483144605  0.2844632122605474  1.0000
  H   H47       1.0  0.38628151004022027  0.434034829013932  0.7844802426719892  1.0000
  H   H48       1.0  0.6677815221818122  0.06589263108768513  0.7155389849971951  1.0000
  H   H49       1.0  0.9084687194358808  0.9721967205324593  0.2996852327997316  1.0000
  H   H50       1.0  0.13700584061923854  0.528218957022503  0.2003961427073405  1.0000
  H   H51       1.0  0.09152966116159428  0.027797211103155903  0.7003046428233259  1.0000
  H   H52       1.0  0.8629893825964243  0.47178077052462447  0.7996006667908868  1.0000
  H   H53       1.0  0.7129385406955605  0.4935819844305059  0.28008649667556523  1.0000
  H   H54       1.0  0.4394509367882548  0.006313577693582301  0.21996253225277215  1.0000
  H   H55       1.0  0.2870547207106783  0.5064113253331329  0.7199143274144715  1.0000
  H   H56       1.0  0.5605471540320224  0.9936906551648053  0.7800385014824369  1.0000
  H   H57       1.0  0.6695861712709359  0.8285751127864815  0.7463836457004686  1.0000
  H   H58       1.0  0.5948752718716293  0.6714198207841309  0.7537820972262634  1.0000
  H   H59       1.0  0.3304204705802006  0.171425266809365  0.25361884951976066  1.0000
  H   H60       1.0  0.4051358833821652  0.32859086057180065  0.24623207234616726  1.0000
  H   H61       1.0  0.13347782332575509  0.7926788260603672  0.43509219333329685  1.0000
  H   H62       1.0  0.40541663407108797  0.7071711561593406  0.06473860769461479  1.0000
  H   H63       1.0  0.8665271286192676  0.20732540743217245  0.5649095056231983  1.0000
  H   H64       1.0  0.5945775141892466  0.2928247123809272  0.9352561015514805  1.0000
  H   H65       1.0  0.581840843555639  0.6778625450548291  0.38928159455009825  1.0000
  H   H66       1.0  0.014739700377347778  0.8223492283143586  0.11084338933203945  1.0000
  H   H67       1.0  0.41815276626288517  0.3221346140326418  0.6107160530003807  1.0000
  H   H68       1.0  0.9852577060796719  0.17765178461676362  0.8891536906208798  1.0000
  H   H69       1.0  0.6481424510205327  0.9068674827266182  0.6465230855314129  1.0000
  H   H70       1.0  0.5950391958651479  0.593180757447577  0.8536750788083932  1.0000
  H   H71       1.0  0.3518629454722344  0.09313418240311931  0.35347960045856996  1.0000
  H   H72       1.0  0.40495785925278943  0.4068196257433814  0.14632891318882457  1.0000
  H   H73       1.0  0.3285099835410108  0.8077789071626784  0.5791272479651537  1.0000
  H   H74       1.0  0.44159384298900745  0.6920999274770026  0.9209162956034259  1.0000
  H   H75       1.0  0.6714966553833293  0.19222469201683623  0.42087898275980945  1.0000
  H   H76       1.0  0.5583942089441222  0.3078927389339654  0.07908384237107662  1.0000
  H   H77       1.0  0.9093251797659504  0.25473299412809075  0.4534697916159514  1.0000
  H   H78       1.0  0.7010427963139134  0.24538219180419674  0.04677565786186472  1.0000
  H   H79       1.0  0.09067833311025451  0.7452635272979864  0.5465309602223128  1.0000
  H   H80       1.0  0.29895644889746353  0.7546162581210397  0.9532253749367211  1.0000
  H   H81       1.0  0.3340137272668854  0.7247910809754147  0.6745230681860332  1.0000
  H   H82       1.0  0.43456932928842923  0.7749669054963138  0.8254213869603857  1.0000
  H   H83       1.0  0.6659969795138565  0.2752221678093677  0.3254896085014919  1.0000
  H   H84       1.0  0.5654266136181931  0.22503605038357224  0.17458392898286218  1.0000
  H   H85       1.0  0.8711714875011863  0.12591338907838434  0.4555242141243524  1.0000
  H   H86       1.0  0.7894590382509178  0.3743042847510126  0.044819644612004925  1.0000
  H   H87       1.0  0.12882773808370013  0.8740850561771298  0.5444742894171596  1.0000
  H   H88       1.0  0.21053939044863768  0.6256928786095346  0.9551805425841731  1.0000
  H   H89       1.0  0.7301525140266988  0.0538968191055531  0.4079887850410272  1.0000
  H   H90       1.0  0.7679204998317387  0.44620020283385037  0.09246126531486695  1.0000
  H   H91       1.0  0.2698478012162155  0.9461022683749934  0.5920096008021287  1.0000
  H   H92       1.0  0.23207735902362012  0.5537982436023586  0.9075378133743752  1.0000
  H   H93       1.0  0.8073146196833391  0.04642864491799511  0.36535617653427  1.0000
  H   H94       1.0  0.8951852201483845  0.4536903625831387  0.1350184715970925  1.0000
  H   H95       1.0  0.19268501219480796  0.9535704431528916  0.6346424968827475  1.0000
  H   H96       1.0  0.10481348562267802  0.5463061573716957  0.8649812581497184  1.0000
  H   H97       1.0  0.6977893821591719  0.16896103859645717  0.2551439742346701  1.0000
  H   H98       1.0  0.7734867186808214  0.3308546096685562  0.24512375399338268  1.0000
  H   H99       1.0  0.3022093393130875  0.8310354850941482  0.7448577789177971  1.0000
  H   H100      1.0  0.2265141212997151  0.6691496245642202  0.7548781528520434  1.0000
  H   H101      1.0  0.7020912061621302  0.07275014317207251  0.2442123288735728  1.0000
  H   H102      1.0  0.8849461003922271  0.4270684349857917  0.2561145380298979  1.0000
  H   H103      1.0  0.29790611717820775  0.9272463742276714  0.755785952615305  1.0000
  H   H104      1.0  0.11505486781156551  0.5729338649504642  0.7438837547842352  1.0000
  H   H105      1.0  0.6196192123991789  0.08103176603427902  0.28068011319878367  1.0000
  H   H106      1.0  0.7578434889936643  0.41891458422229283  0.21985377322476993  1.0000
  H   H107      1.0  0.38038073187816207  0.918966687036388  0.7193226554315967  1.0000
  H   H108      1.0  0.24215513634312913  0.5810883571549469  0.7801438163546519  1.0000
  C   C1        1.0  0.29324070439803046  0.9218389699840516  0.4213451523965899  1.0000
  C   C2        1.0  0.45001746009585014  0.5782095620449328  0.07868296005166533  1.0000
  C   C3        1.0  0.7067664268630409  0.07816654795854562  0.5786563111631793  1.0000
  C   C4        1.0  0.5499810438697847  0.4217920949790966  0.921315013905726  1.0000
  C   C5        1.0  0.5238868741507331  0.9058953070628919  0.41455593285752446  1.0000
  C   C6        1.0  0.7035005791892669  0.5941215508714635  0.0854680910805071  1.0000
  C   C7        1.0  0.4761197333712203  0.09410828464507401  0.5854462510561331  1.0000
  C   C8        1.0  0.2965014112570685  0.40587689949422423  0.914533308976871  1.0000
  C   C9        1.0  0.5498789337689797  0.8518003874181872  0.37625409522181713  1.0000
  C   C10       1.0  0.8218878863953022  0.6482913705275096  0.12378329086149611  1.0000
  C   C11       1.0  0.4501302711381782  0.14820513435702765  0.6237495407248586  1.0000
  C   C12       1.0  0.1781139522759929  0.3517090085310387  0.8762186881186903  1.0000
  C   C13       1.0  0.8707634907702297  0.5510224822345934  0.4292311507994595  1.0000
  C   C14       1.0  0.39062986132616817  0.948928519320454  0.0708246296775598  1.0000
  C   C15       1.0  0.12923642603001895  0.4489759642984625  0.5707680768710188  1.0000
  C   C16       1.0  0.6093677849463714  0.05107828190073601  0.9291754170241685  1.0000
  C   C17       1.0  0.6070664308286808  0.8226378442832288  0.28619943729047737  1.0000
  C   C18       1.0  0.9982867971037309  0.6774915547228845  0.21386595178460496  1.0000
  C   C19       1.0  0.3929360833567798  0.17736253231708335  0.7138012424130264  1.0000
  C   C20       1.0  0.0017125498523143294  0.322508174885833  0.7861321673789445  1.0000
  C   C21       1.0  0.9963610825265616  0.797452980172885  0.35665057073259715  1.0000
  C   C22       1.0  0.34223336454079606  0.7026556736421415  0.14332501415016444  1.0000
  C   C23       1.0  0.003643059758729794  0.20254674810524884  0.6433470529681597  1.0000
  C   C24       1.0  0.657753785522452  0.29733890617499276  0.8566673908469651  1.0000
  C   C25       1.0  0.6837609050526722  0.9087905133856612  0.12874957217165664  1.0000
  C   C26       1.0  0.14617537483077558  0.5915388643481521  0.37120103542210336  1.0000
  C   C27       1.0  0.3162366649552906  0.091208573654427  0.8712484464126998  1.0000
  C   C28       1.0  0.853824408822419  0.40845829502987396  0.6287970590721057  1.0000
  C   C29       1.0  0.5759126528850799  0.8706822241545001  0.3174255738551606  1.0000
  C   C30       1.0  0.8878898936572952  0.6294317762285219  0.18262133856987342  1.0000
  C   C31       1.0  0.4240914786228203  0.12932072183941307  0.6825747736475092  1.0000
  C   C32       1.0  0.112111383020391  0.37056988777357  0.8173805436062123  1.0000
  C   C33       1.0  0.5037553862028401  0.7717338034246809  0.7198549711118643  1.0000
  C   C34       1.0  0.5121227307889453  0.7280529772147304  0.780145277804358  1.0000
  C   C35       1.0  0.49625151116500626  0.2282723681970112  0.2801525142628235  1.0000
  C   C36       1.0  0.4878804609076822  0.27195383796257744  0.2198625853347521  1.0000
  C   C37       1.0  0.6180368554209963  0.9429418470334242  0.08036425395168566  1.0000
  C   C38       1.0  0.09470748649404476  0.5573462701042831  0.41958002682713397  1.0000
  C   C39       1.0  0.3819618199461771  0.05705788596746691  0.9196356703399642  1.0000
  C   C40       1.0  0.9052991700597838  0.44265089270972885  0.5804202504425999  1.0000
  C   C41       1.0  0.030342489719807082  0.9030847970283775  0.2870064451901725  1.0000
  C   C42       1.0  0.34055139894010733  0.5972508314133622  0.21323202479015885  1.0000
  C   C43       1.0  0.9696607254599028  0.09690914261608441  0.7129879934842334  1.0000
  C   C44       1.0  0.6594482143100463  0.4027514725054147  0.7867683607259364  1.0000
  C   C45       1.0  0.7773987739599943  0.9626973702523929  0.19851593915322485  1.0000
  C   C46       1.0  0.11634453133520836  0.5376695864479473  0.3014658149960494  1.0000
  C   C47       1.0  0.22259958508269048  0.03730299681478041  0.8014793840736514  1.0000
  C   C48       1.0  0.883655221914097  0.4623307859761427  0.6985324740429986  1.0000
  C   C49       1.0  0.13819393853495396  0.9293229572114615  0.32555496588302885  1.0000
  C   C50       1.0  0.3833819456601332  0.5708098475188452  0.1745646136654883  1.0000
  C   C51       1.0  0.8618104955245368  0.0706729108791109  0.6744399824178725  1.0000
  C   C52       1.0  0.6166208308941349  0.4291931024575889  0.8254378265391435  1.0000
  C   C53       1.0  0.8235881320153665  0.6654207345989324  0.4327759478350684  1.0000
  C   C54       1.0  0.22544393478351307  0.8346551807842533  0.06720012385145674  1.0000
  C   C55       1.0  0.17641054727710787  0.33457899933590357  0.567224482307992  1.0000
  C   C56       1.0  0.7745533395249494  0.16534776550945202  0.9328000642813448  1.0000
  C   C57       1.0  0.6921497585649162  0.66850769863148  0.3192293975576205  1.0000
  C   C58       1.0  0.20435975794855937  0.8316109598265276  0.18073105017783314  1.0000
  C   C59       1.0  0.30784702533510716  0.3314868887978691  0.6807675808794894  1.0000
  C   C60       1.0  0.7956425701326637  0.16839455757876465  0.8192698971419001  1.0000
  C   C61       1.0  0.6114001389373059  0.7546133606393826  0.31367201924861376  1.0000
  C   C62       1.0  0.04317187104693696  0.7455303105634885  0.18639399342352894  1.0000
  C   C63       1.0  0.3885970404785866  0.24538508732111106  0.6863278528659007  1.0000
  C   C64       1.0  0.9568274759091081  0.25446941904522197  0.8136041257400135  1.0000
  C   C65       1.0  0.8022680846246645  0.842940506819851  0.22113921712552545  1.0000
  C   C66       1.0  0.2383723555756346  0.65748203478379  0.27895289532972345  1.0000
  C   C67       1.0  0.19773425323545263  0.15705857235204956  0.7788547650361435  1.0000
  C   C68       1.0  0.7616248120643618  0.3425164103748771  0.7210454592305451  1.0000
  C   C69       1.0  0.7677317332606817  0.7053270936620991  0.3976296975225748  1.0000
  C   C70       1.0  0.16475396450123014  0.7948192799380183  0.10232561326753847  1.0000
  C   C71       1.0  0.23225932527770948  0.29466492604782957  0.6023683268556964  1.0000
  C   C72       1.0  0.8352410022679279  0.20518431620215694  0.8976784242932748  1.0000
  C   C73       1.0  0.6508760400476845  0.8215744594517249  0.10596755779087623  1.0000
  C   C74       1.0  0.2232233919003334  0.6787807318291784  0.3940281764434061  1.0000
  C   C75       1.0  0.3491237210522158  0.17842591484025414  0.894031742951  1.0000
  C   C76       1.0  0.7767803980473785  0.3212151461911859  0.6059721179454979  1.0000
  C   C77       1.0  0.8048182348975175  0.5891355698188651  0.3908549072213246  1.0000
  C   C78       1.0  0.3249191224334849  0.9108453903660134  0.10915636548487827  1.0000
  C   C79       1.0  0.1951823770433947  0.4108628789256771  0.609145550429538  1.0000
  C   C80       1.0  0.675073898912842  0.08915626764500222  0.8908418856577424  1.0000
  C   C81       1.0  0.5516642325114843  0.7817300864389551  0.4015305632127945  1.0000
  C   C82       1.0  0.8684994160262817  0.7184553186521756  0.09860150132372766  1.0000
  C   C83       1.0  0.4483410004303394  0.21827350458181635  0.598471184145758  1.0000
  C   C84       1.0  0.1314973610216511  0.2815424874268899  0.9013987067666986  1.0000
  C   C85       1.0  0.7093449649612961  0.7886606602674533  0.15192980746706997  1.0000
  C   C86       1.0  0.2687545803189265  0.7117338140362082  0.3481221259527984  1.0000
  C   C87       1.0  0.29065233090195614  0.21133585059468632  0.8480649330619128  1.0000
  C   C88       1.0  0.7312480934921692  0.28826463573913236  0.6518789865307182  1.0000
  C   C89       1.0  0.17699300466895093  0.8910966241807403  0.37996616355481894  1.0000
  C   C90       1.0  0.405829217266202  0.6089047286341086  0.120040775916152  1.0000
  C   C91       1.0  0.8230136018544979  0.10890374700961301  0.6200317790026799  1.0000
  C   C92       1.0  0.5941705477589991  0.39109564659181484  0.8799590306771418  1.0000
  C   C93       1.0  0.6720257128394636  0.5924673762334366  0.2765684624253877  1.0000
  C   C94       1.0  0.30296745144968174  0.907597599850277  0.2234044322507173  1.0000
  C   C95       1.0  0.32796809093388646  0.40752464391694343  0.7234299292116828  1.0000
  C   C96       1.0  0.6970346113359368  0.09240856376256801  0.7765984900726149  1.0000
  C   C97       1.0  0.8368146914136148  0.9303698435785039  0.2450215252462937  1.0000
  C   C98       1.0  0.16170000669473691  0.5700241536397075  0.255034036468821  1.0000
  C   C99       1.0  0.16318955161784734  0.06962794386549831  0.7549689434632679  1.0000
  C   C100      1.0  0.83829661365435  0.4299723596806616  0.7449620033368516  1.0000
  C   C101      1.0  0.9593327990037464  0.8373078919617855  0.3032296269308999  1.0000
  C   C102      1.0  0.3189957592030055  0.6629688183714537  0.1968937664156271  1.0000
  C   C103      1.0  0.040667363465615815  0.16268990369400174  0.6967650964789056  1.0000
  C   C104      1.0  0.6810012409607534  0.3370315517442962  0.8031031436618004  1.0000
  C   C105      1.0  0.7279410970223594  0.5528815139574378  0.3126912584064383  1.0000
  C   C106      1.0  0.3624689977155954  0.9471047973409628  0.1873286840788068  1.0000
  C   C107      1.0  0.2720543594011176  0.4471130839920293  0.6873113536925286  1.0000
  C   C108      1.0  0.6375289374043402  0.052901363276340915  0.8126724227278  1.0000
  C   C109      1.0  0.59217768660357  0.8215660190886711  0.7098870397191062  1.0000
  C   C110      1.0  0.560863096536437  0.678356189496178  0.7902060115379255  1.0000
  C   C111      1.0  0.407828249329512  0.1784375760114757  0.29011694932265186  1.0000
  C   C112      1.0  0.43913777877178706  0.3216480531420912  0.20980044797022393  1.0000
  C   C113      1.0  0.10433986962713251  0.824245386138543  0.3944196732662489  1.0000
  C   C114      1.0  0.38552107839320365  0.6757356078242439  0.10551048380096964  1.0000
  C   C115      1.0  0.8956654993885421  0.1757562724535903  0.6055794717638319  1.0000
  C   C116      1.0  0.61447458544491  0.3242615504261367  0.8944868068793351  1.0000
  C   C117      1.0  0.5816267008911281  0.7328158425353879  0.37031937278484145  1.0000
  C   C118      1.0  0.9785764285301892  0.767394718131186  0.12982465108548502  1.0000
  C   C119      1.0  0.4183696237584654  0.26718453003859827  0.629678836569276  1.0000
  C   C120      1.0  0.021421715247264213  0.23260308676718475  0.870174981857225  1.0000
  C   C121      1.0  0.581086904216427  0.8653483993823203  0.6550532246846783  1.0000
  C   C122      1.0  0.5608597766368816  0.6346172317997729  0.8450690228739217  1.0000
  C   C123      1.0  0.4189178089115727  0.13465326633776442  0.3449497488791664  1.0000
  C   C124      1.0  0.4391427424723701  0.3653863662520892  0.15493640403714432  1.0000
  C   C125      1.0  0.4025865354239713  0.8107795562813751  0.6177404118392429  1.0000
  C   C126      1.0  0.4740942358854171  0.689095850981467  0.8823161781696808  1.0000
  C   C127      1.0  0.5974196550273234  0.18922661032700464  0.382264326000822  1.0000
  C   C128      1.0  0.5259007916915123  0.31090131906658075  0.11768747030145471  1.0000
  C   C129      1.0  0.8455171787718994  0.2370388387248923  0.39413099943607927  1.0000
  C   C130      1.0  0.7141268562245029  0.2629971541190558  0.1060829109960863  1.0000
  C   C131      1.0  0.1544819175912338  0.7629583203095367  0.6058668767805738  1.0000
  C   C132      1.0  0.2858704867423325  0.7369993679504034  0.8939178997498656  1.0000
  C   C133      1.0  0.4063249509684539  0.7649868687138908  0.6712887534637983  1.0000
  C   C134      1.0  0.47002249766755  0.7348235864343239  0.8287219360119021  1.0000
  C   C135      1.0  0.5936831613538871  0.23502123041996734  0.3287187356859674  1.0000
  C   C136      1.0  0.5299726591311398  0.265174869834816  0.17128233978409207  1.0000
  C   C137      1.0  0.7991756090593823  0.0912225410307386  0.39911311690522644  1.0000
  C   C138      1.0  0.808515023745862  0.4088892522575734  0.10125718681551624  1.0000
  C   C139      1.0  0.20082624431459797  0.908774621245975  0.6008866441244648  1.0000
  C   C140      1.0  0.19148518582708357  0.5911085546055476  0.8987436068112583  1.0000
  C   C141      1.0  0.6959392198470978  0.11677904206408131  0.2802928368621948  1.0000
  C   C142      1.0  0.798685430096711  0.38310414585315317  0.2200662301208353  1.0000
  C   C143      1.0  0.3040605834325945  0.8832181219836672  0.7197077868890813  1.0000
  C   C144      1.0  0.20131348801278648  0.6168981558541378  0.7799329254148757  1.0000
  N   N1        1.0  0.4885648196903817  0.8616080547596499  0.6106308495684798  1.0000
  N   N2        1.0  0.5164332155882008  0.6383141266573277  0.8894602964162028  1.0000
  N   N3        1.0  0.5114401744344262  0.1383929684886596  0.3893721723974222  1.0000
  N   N4        1.0  0.4835597383426418  0.36168303955809483  0.11054117966803284  1.0000
  N   N5        1.0  0.7843848704707523  0.15210633649818564  0.3585303811993794  1.0000
  N   N6        1.0  0.7734674116787018  0.34790556222060337  0.141773963900114  1.0000
  N   N7        1.0  0.2156172374214408  0.8478933972867612  0.6414701286286186  1.0000
  N   N8        1.0  0.22652964244073104  0.6520916004527496  0.8582257867409522  1.0000
  O   O1        1.0  0.32718540888930625  0.8907293654567142  0.475175673767424  1.0000
  O   O2        1.0  0.46149817054606507  0.609470317562611  0.024979933956913676  1.0000
  O   O3        1.0  0.6728218398176296  0.10927743590513472  0.524824899562965  1.0000
  O   O4        1.0  0.5385129483815376  0.39053713487020764  0.975025441596635  1.0000
  O   O5        1.0  0.3522613661099782  0.9790031470274274  0.40059065302323643  1.0000
  O   O6        1.0  0.47243801451242706  0.5208992913551215  0.09930250167140284  1.0000
  O   O7        1.0  0.6477441321274566  0.020999797785791006  0.5994091193317101  1.0000
  O   O8        1.0  0.5275492951764632  0.47909336163704114  0.9006903361057466  1.0000
  O   O9        1.0  0.5002196598333768  0.8816249295441098  0.46676265905843184  1.0000
  O   O10       1.0  0.6518900201942015  0.6184911324968355  0.033346045061037284  1.0000
  O   O11       1.0  0.49978473796863193  0.11838059075986253  0.5332399547967839  1.0000
  O   O12       1.0  0.3481112819635683  0.3815040970076425  0.9666508953626402  1.0000
  O   O13       1.0  0.528163922760946  0.972484845686488  0.39435831382555603  1.0000
  O   O14       1.0  0.6613867323430538  0.5274019772353782  0.10549881896298517  1.0000
  O   O15       1.0  0.4718484258238291  0.027521317476669103  0.6056448475525824  1.0000
  O   O16       1.0  0.33861330782536203  0.4726041946860989  0.894508507041834  1.0000
  O   O17       1.0  0.8402422041654132  0.47413165051917633  0.3962846691477252  1.0000
  O   O18       1.0  0.4698478503340339  0.025846080513915102  0.10381569168144011  1.0000
  O   O19       1.0  0.15975922428731357  0.5258680847900554  0.6037166341055452  1.0000
  O   O20       1.0  0.5301460706407896  0.9741613595931683  0.8961822035276368  1.0000
  O   O21       1.0  0.6456598867251343  0.020298984881883104  0.10923954592034585  1.0000
  O   O22       1.0  0.0163932228193886  0.47988583250551653  0.39082907302702086  1.0000
  O   O23       1.0  0.3543271822184336  0.979697540439098  0.8907625433250458  1.0000
  O   O24       1.0  0.9836087480004493  0.5201126131904488  0.6091697977732903  1.0000
  O   O25       1.0  0.5387881702571136  0.8922681336603732  0.014696699839419075  1.0000
  O   O26       1.0  0.13152708576948421  0.6080620745102937  0.4851731758863804  1.0000
  O   O27       1.0  0.4612136409370819  0.10773223886056373  0.9853017381808723  1.0000
  O   O28       1.0  0.8684795747096387  0.39193508923766274  0.5148276072347711  1.0000
  O   O29       1.0  0.6390892548389216  0.7073629462540438  0.27869073117961557  1.0000
  O   O30       1.0  0.15305463542232173  0.7927480960585952  0.22129522135630697  1.0000
  O   O31       1.0  0.3609041161625798  0.29263164506097195  0.7213081909782132  1.0000
  O   O32       1.0  0.8469440016903744  0.20725484812047068  0.7787038857773536  1.0000
  O   O33       1.0  0.95557241483953  0.6004545566079358  0.4929325933739788  1.0000
  O   O34       1.0  0.3624652392425248  0.8995243663405719  0.007155636137682074  1.0000
  O   O35       1.0  0.04443305984611366  0.3995483826016228  0.5070641438724833  1.0000
  O   O36       1.0  0.6375325110160686  0.10047601906187963  0.9928495858399199  1.0000
  O   O37       1.0  0.850708233368266  0.8035072025828145  0.26610635339596905  1.0000
  O   O38       1.0  0.281449430423116  0.6969255720758626  0.23407860745946596  1.0000
  O   O39       1.0  0.1492939556435999  0.1964905856982783  0.7338844721837672  1.0000
  O   O40       1.0  0.7185466093043685  0.3030754420359473  0.7659190476411761  1.0000
  O   O41       1.0  0.8344327679998785  0.293504414691185  0.36512870823075616  1.0000
  O   O42       1.0  0.6755067539142842  0.2064573058660457  0.13498264611290972  1.0000
  O   O43       1.0  0.16556747590225726  0.7064901800598165  0.6348723967025902  1.0000
  O   O44       1.0  0.3244930268121137  0.7935430730956485  0.8650191838860335  1.0000
