data_image0
_chemical_formula_structural       Cr2Cd3H40C24N20
_chemical_formula_sum              "Cr2 Cd3 H40 C24 N20"
_cell_length_a       7.63018991843839
_cell_length_b       7.800050164356098
_cell_length_c       15.97194527166722
_cell_angle_alpha    95.73789420325767
_cell_angle_beta     96.14608535673808
_cell_angle_gamma    91.42057220392161

_space_group_name_H-M_alt    "P 1"
_space_group_IT_number       1

loop_
  _space_group_symop_operation_xyz
  'x, y, z'

loop_
  _atom_site_type_symbol
  _atom_site_label
  _atom_site_symmetry_multiplicity
  _atom_site_fract_x
  _atom_site_fract_y
  _atom_site_fract_z
  _atom_site_occupancy
  Cr  Cr1       1.0  2.3838126566017658e-06  6.979986515900878e-06  0.49999970560392654  1.0000
  Cr  Cr2       1.0  0.49999837550349463  0.5000004653515758  5.840847378814057e-07  1.0000
  Cd  Cd1       1.0  0.41552011668596817  0.6410234277646013  0.33002565586463123  1.0000
  Cd  Cd2       1.0  0.5844807950984006  0.3589747126336463  0.6699759759273578  1.0000
  Cd  Cd3       1.0  0.9999966241024653  4.967295766010913e-07  0.9999995843672526  1.0000
  H   H1        1.0  0.04008932173468339  0.6315001334887923  0.32756619514272967  1.0000
  H   H2        1.0  0.9599101959086057  0.3684967000178574  0.6724321754544321  1.0000
  H   H3        1.0  0.10627670995607727  0.4328308153406724  0.3191939958427455  1.0000
  H   H4        1.0  0.8937228500537201  0.5671673038461761  0.6808038118343163  1.0000
  H   H5        1.0  0.897528587694424  0.4840414600186945  0.19865241401300446  1.0000
  H   H6        1.0  0.10246840086606568  0.5159579607220692  0.801347207388645  1.0000
  H   H7        1.0  0.10593861581208588  0.4114516285307274  0.17369493916107365  1.0000
  H   H8        1.0  0.8940585054562573  0.588551652894168  0.8263036200349421  1.0000
  H   H9        1.0  0.1463367556354029  0.019485704193300497  0.17035795722889455  1.0000
  H   H10       1.0  0.853664020940954  0.9805098320527604  0.8296391614113647  1.0000
  H   H11       1.0  0.9477172655326314  0.08992297658227949  0.16873947092058475  1.0000
  H   H12       1.0  0.05228640960041278  0.9100790195569886  0.8312606016850739  1.0000
  H   H13       1.0  0.20810179636543316  0.7135076587272666  0.16419114831218456  1.0000
  H   H14       1.0  0.7918965526861399  0.2864930470439048  0.835807974956339  1.0000
  H   H15       1.0  0.03050263578651169  0.6405469449716747  0.08862219783939201  1.0000
  H   H16       1.0  0.9694944007488145  0.35945376509281596  0.9113774871968163  1.0000
  H   H17       1.0  0.5543435274075179  0.38788678398519494  0.43303855553737974  1.0000
  H   H18       1.0  0.44565596469426083  0.6121087747718406  0.5669622576438444  1.0000
  H   H19       1.0  0.386043616658135  0.2941633894678048  0.37139879682079174  1.0000
  H   H20       1.0  0.6139572247180636  0.705833447032582  0.6286002651179956  1.0000
  H   H21       1.0  0.8204730280551116  0.8048577163813347  0.16388099204433365  1.0000
  H   H22       1.0  0.17952267913897657  0.1951429870458909  0.8361173750955831  1.0000
  H   H23       1.0  0.9737785482816291  0.8554817031212708  0.25505029604224927  1.0000
  H   H24       1.0  0.026218488253704198  0.14451900694322012  0.7449493889939591  1.0000
  H   H25       1.0  0.7051115229380825  0.19881188532983882  0.3534845422350587  1.0000
  H   H26       1.0  0.2948906054128457  0.8011836721276212  0.6465164005201276  1.0000
  H   H27       1.0  0.7121645902696726  0.387238737319052  0.3016722266350841  1.0000
  H   H28       1.0  0.28783753247292754  0.6127568164948798  0.6983280895654362  1.0000
  H   H29       1.0  0.3004054235858931  0.9950027129813748  0.31692883321063203  1.0000
  H   H30       1.0  0.699594158857238  0.004995420779600601  0.6830714806850582  1.0000
  H   H31       1.0  0.4955617600969687  0.9847440334841904  0.36945902118007734  1.0000
  H   H32       1.0  0.5044378223461621  0.015254100276784801  0.63054129271562  1.0000
  H   H33       1.0  0.398541162299658  0.2435218343130217  0.2214693646124673  1.0000
  H   H34       1.0  0.6014610563926226  0.7564762981483711  0.778531078857178  1.0000
  H   H35       1.0  0.6007247637876957  0.20588845707145964  0.1825493087925666  1.0000
  H   H36       1.0  0.39927867147114426  0.7941070924491456  0.8174504456402761  1.0000
  H   H37       1.0  0.43222828420641685  0.931898167089308  0.182790905099573  1.0000
  H   H38       1.0  0.5677712982367141  0.0680999666716673  0.8172094087961244  1.0000
  H   H39       1.0  0.6363913428720025  0.9351082005370798  0.24494793487287592  1.0000
  H   H40       1.0  0.36360941377117934  0.06488606460290919  0.7550522529061114  1.0000
  C   C1        1.0  0.03930643439144179  0.5204518140885881  0.20383973341724737  1.0000
  C   C2        1.0  0.9606944973261092  0.4795475974157385  0.7961588292360136  1.0000
  C   C3        1.0  0.06644550392724106  0.6771519917175013  0.15657939722675718  1.0000
  C   C4        1.0  0.9335502992165274  0.3228512903571854  0.8434190971822847  1.0000
  C   C5        1.0  0.961013216296486  0.8311853265433626  0.18534104347214256  1.0000
  C   C6        1.0  0.03899039964505141  0.16881537298510813  0.8146577123896326  1.0000
  C   C7        1.0  0.6223582063028843  0.2861231719028935  0.31743025726120083  1.0000
  C   C8        1.0  0.3776439644145525  0.7138736712347652  0.6825701225738857  1.0000
  C   C9        1.0  0.5276002757207863  0.18732636090656737  0.23685949061390238  1.0000
  C   C10       1.0  0.4724032131212255  0.8126704815813  0.7631409540081653  1.0000
  C   C11       1.0  0.82398378625507  0.829036359034241  0.4295389241199033  1.0000
  C   C12       1.0  0.17602144687675292  0.17097208307390593  0.5704615314455453  1.0000
  C   C13       1.0  0.50649206825166  0.9930339523621683  0.24147845623667769  1.0000
  C   C14       1.0  0.4935074126334554  0.0069615991078109014  0.7585211038352357  1.0000
  C   C15       1.0  0.19623834649289046  0.8335388949012882  0.48126319626588565  1.0000
  C   C16       1.0  0.803760039316863  0.16646309290656086  0.5187347375278863  1.0000
  C   C17       1.0  0.5238432486512252  0.5602993878698115  0.12671926607122697  1.0000
  C   C18       1.0  0.47615502688400096  0.43969875382801854  0.873282236146814  1.0000
  C   C19       1.0  0.05728382346333659  0.11481623810008298  0.39699442485673603  1.0000
  C   C20       1.0  0.9427256855412551  0.8851999598622696  0.6030103662049628  1.0000
  C   C21       1.0  0.3062840939958774  0.3312341510424446  0.0172387128522331  1.0000
  C   C22       1.0  0.6937078363990067  0.6687704441665404  0.9827634101583913  1.0000
  C   C23       1.0  0.6714234200358006  0.30743809750925527  0.014296488183852308  1.0000
  C   C24       1.0  0.3285709802503831  0.6925626138548252  0.985703067278401  1.0000
  N   N1        1.0  0.1147387496309591  0.5486157937548697  0.2937774821462612  1.0000
  N   N2        1.0  0.8852583348792179  0.4513862056333621  0.7062222665245133  1.0000
  N   N3        1.0  0.0178797313188781  0.9867844845497019  0.14834150270326776  1.0000
  N   N4        1.0  0.9821185641495235  0.013214928254207302  0.851656930376038  1.0000
  N   N5        1.0  0.4967656975555172  0.3714945189184746  0.3715052415342442  1.0000
  N   N6        1.0  0.5032364731619196  0.6285023242191842  0.6284951383008422  1.0000
  N   N7        1.0  0.7196375274055312  0.7293408531379129  0.3914749231328828  1.0000
  N   N8        1.0  0.2803650127857935  0.27066503712706697  0.6085296614720905  1.0000
  N   N9        1.0  0.42090162176782536  0.9404182282354369  0.31408284961010935  1.0000
  N   N10       1.0  0.5791018670741864  0.0595786142524304  0.685917595011958  1.0000
  N   N11       1.0  0.3079362464835143  0.7375161887091509  0.46621288958517243  1.0000
  N   N12       1.0  0.6920580578529824  0.26248194400746166  0.5337865386079559  1.0000
  N   N13       1.0  0.5259741135253934  0.5884292233350835  0.20031898462362827  1.0000
  N   N14       1.0  0.4740280740170419  0.4115676307331739  0.7996832748754346  1.0000
  N   N15       1.0  0.10090606205161382  0.18238754567912713  0.3394860912061618  1.0000
  N   N16       1.0  0.8991043476288282  0.8176183151823793  0.6605144962380651  1.0000
  N   N17       1.0  0.19912824435779436  0.2311192022391069  0.03140100472639771  1.0000
  N   N18       1.0  0.8008636268455901  0.7688840963590805  0.9685998015403431  1.0000
  N   N19       1.0  0.768023638804024  0.19391332036107664  0.02155227121909319  1.0000
  N   N20       1.0  0.2319707390488333  0.8060873764288771  0.9784447780245319  1.0000
