data_image0
_chemical_formula_structural       Zn6H41C78NO26
_chemical_formula_sum              "Zn6 H41 C78 N1 O26"
_cell_length_a       18.5882004151474
_cell_length_b       18.698059719612672
_cell_length_c       18.779669936579513
_cell_angle_alpha    109.2419845856895
_cell_angle_beta     109.65609673288566
_cell_angle_gamma    109.1776466486167

_space_group_name_H-M_alt    "P 1"
_space_group_IT_number       1

loop_
  _space_group_symop_operation_xyz
  'x, y, z'

loop_
  _atom_site_type_symbol
  _atom_site_label
  _atom_site_symmetry_multiplicity
  _atom_site_fract_x
  _atom_site_fract_y
  _atom_site_fract_z
  _atom_site_occupancy
  Zn  Zn1       1.0  0.9374999139051566  0.9444416358568757  0.5012369754945141  1.0000
  Zn  Zn2       1.0  0.06396840440089584  0.06490183011064941  0.4984392672456864  1.0000
  Zn  Zn3       1.0  0.059484877474403716  0.5003786808613382  0.06035372314306641  1.0000
  Zn  Zn4       1.0  0.9354467675768134  0.5055965269199874  0.939046339227751  1.0000
  Zn  Zn5       1.0  0.49443656307277456  0.9325346610070893  0.9323940854978476  1.0000
  Zn  Zn6       1.0  0.5088854512110644  0.06218679608016229  0.0647288187799617  1.0000
  H   H1        1.0  0.015227198011942214  0.6406885467243697  0.44753272966877233  1.0000
  H   H2        1.0  0.9465089868144291  0.923746140770987  0.2817911008403513  1.0000
  H   H3        1.0  0.9148257488486069  0.9367877275530034  0.15112882403181524  1.0000
  H   H4        1.0  0.906218113146615  0.8269774901601394  0.022752986739099902  1.0000
  H   H5        1.0  0.9249114086162397  0.7045407338481267  0.02661169041261501  1.0000
  H   H6        1.0  0.9732370931265423  0.5382799997989235  0.18736684508316875  1.0000
  H   H7        1.0  0.9996158529394776  0.5261697509994998  0.3183091379527099  1.0000
  H   H8        1.0  0.9960513705933494  0.7629245776397295  0.4407518730362198  1.0000
  H   H9        1.0  0.2845836980599471  0.029195213824216578  0.6284848493509614  1.0000
  H   H10       1.0  0.07474791683901559  0.02865410001364674  0.7255057411133308  1.0000
  H   H11       1.0  0.05087190220127269  0.003973420021026218  0.8381200704326945  1.0000
  H   H12       1.0  0.14727723654024769  0.9657671226994823  0.9301068367188919  1.0000
  H   H13       1.0  0.2726422369328886  0.9630598264745771  0.9149013930847262  1.0000
  H   H14       1.0  0.38714603956859855  0.0018380186748316672  0.7280052283260048  1.0000
  H   H15       1.0  0.9445195154436307  0.1123597218580627  0.7373401427818037  1.0000
  H   H16       1.0  0.9752123033025201  0.20337535203528018  0.5311558082460763  1.0000
  H   H17       1.0  0.9817136782254537  0.44932691742604886  0.6203386615251603  1.0000
  H   H18       1.0  0.9710018744809688  0.4418945542735314  0.7465610398224385  1.0000
  H   H19       1.0  0.9529484633970852  0.23719678647552905  0.8498267530017715  1.0000
  H   H20       1.0  0.9002949912416585  0.12881651300031635  0.3187691894726257  1.0000
  H   H21       1.0  0.806278662502841  0.8423454447195977  0.29240396052874473  1.0000
  H   H22       1.0  0.6819804195160587  0.697368642401443  0.18244697020128345  1.0000
  H   H23       1.0  0.5605139243317866  0.6763485726477965  0.052778515974850414  1.0000
  H   H24       1.0  0.5677279140268185  0.8031438646901773  0.034664727549831305  1.0000
  H   H25       1.0  0.7731751683322302  0.10905596867196009  0.1961218723954161  1.0000
  H   H26       1.0  0.8973029039443292  0.3786854486313799  0.16106027053965732  1.0000
  H   H27       1.0  0.8150288682887421  0.2729467033658181  0.8592417068037932  1.0000
  H   H28       1.0  0.6844982954840902  0.15352459843642663  0.7204469805289194  1.0000
  H   H29       1.0  0.5519663264954032  0.05799777679336414  0.7185459344935907  1.0000
  H   H30       1.0  0.5557872992321292  0.07687775956722467  0.8557645376525187  1.0000
  H   H31       1.0  0.7686799017030738  0.27694384490955304  0.1594861654484205  1.0000
  H   H32       1.0  0.11508193221850153  0.7413398630569644  0.1121212874939346  1.0000
  H   H33       1.0  0.12245324729010319  0.8833708383188037  0.1751279276032207  1.0000
  H   H34       1.0  0.22335528718968328  0.008905146718056776  0.1727299396541397  1.0000
  H   H35       1.0  0.31793923095019494  0.9920007346364059  0.1103484620681598  1.0000
  H   H36       1.0  0.3581916143478025  0.7518163346246354  0.9726883595589229  1.0000
  H   H37       1.0  0.17739892648786784  0.5629775557491853  0.822883941348998  1.0000
  H   H38       1.0  0.2923860521087889  0.6142190485905061  0.8631470632058013  1.0000
  H   H39       1.0  0.23501945315119593  0.5054148969318673  0.8398380630787443  1.0000
  H   H40       1.0  0.3175742912890627  0.607455916433821  0.0007699013529958  1.0000
  H   H41       1.0  0.20401127946416842  0.5515177882298657  0.9601254247053674  1.0000
  C   C1        1.0  0.13833682745491416  0.026741583142566614  0.6187843567818306  1.0000
  C   C2        1.0  0.9728394088611482  0.8618000956339597  0.3820626449733453  1.0000
  C   C3        1.0  0.9070714634756528  0.014915673810257617  0.37118500877711824  1.0000
  C   C4        1.0  0.9697836021355357  0.10320767414031438  0.6050800865921317  1.0000
  C   C5        1.0  0.9397633784440914  0.8741957235525816  0.22581054931731614  1.0000
  C   C6        1.0  0.9235037082889408  0.8823641748139365  0.1529202034067154  1.0000
  C   C7        1.0  0.9184014598730955  0.8202036443503002  0.0805554202091301  1.0000
  C   C8        1.0  0.9291258272641018  0.7515672411569625  0.0826902647360086  1.0000
  C   C9        1.0  0.9440405979573542  0.7392857578186635  0.1566079737986499  1.0000
  C   C10       1.0  0.9498688536410641  0.8032085188874161  0.23072585140283763  1.0000
  C   C11       1.0  0.9563233608283  0.6697078937727523  0.1615770469392146  1.0000
  C   C12       1.0  0.9697235313812202  0.6594465858822643  0.23589415997700772  1.0000
  C   C13       1.0  0.9737985655950682  0.7227499965644595  0.30904218777758535  1.0000
  C   C14       1.0  0.9643239738399174  0.793310995355611  0.30498167281084687  1.0000
  C   C15       1.0  0.9779451295356125  0.5879203329863285  0.24189920824763086  1.0000
  C   C16       1.0  0.9931186124789309  0.581269962482061  0.31560888846386354  1.0000
  C   C17       1.0  0.0013486125535066545  0.6458493866159215  0.3887600532441553  1.0000
  C   C18       1.0  0.9912330365350853  0.714205050173241  0.38514911436955407  1.0000
  C   C19       1.0  0.1184804135127067  0.014360930632548787  0.7664201181419019  1.0000
  C   C20       1.0  0.10483290118907711  0.9999999751597312  0.8293690809254316  1.0000
  C   C21       1.0  0.1596626602603094  0.9793720867222928  0.8819060549561969  1.0000
  C   C22       1.0  0.2295589671440012  0.9771292949241469  0.8729496145978999  1.0000
  C   C23       1.0  0.24695598599851812  0.9936593864080264  0.8101417760361258  1.0000
  C   C24       1.0  0.1880809778677985  0.009501260985899896  0.7531218267624383  1.0000
  C   C25       1.0  0.20342735381229454  0.02157784714183465  0.6868855248163899  1.0000
  C   C26       1.0  0.27462471506827757  0.019987540740103754  0.6794842959193659  1.0000
  C   C27       1.0  0.33196468703428644  0.004077540194494073  0.7351540630378324  1.0000
  C   C28       1.0  0.3194148961274621  0.9921089626508247  0.7998246769840522  1.0000
  C   C29       1.0  0.9737921427246194  0.25400669474598897  0.5790939871502729  1.0000
  C   C30       1.0  0.9783255114560773  0.32545932380688203  0.5704182041246497  1.0000
  C   C31       1.0  0.977958266192651  0.3944326134402513  0.6304174604580197  1.0000
  C   C32       1.0  0.9724243800522386  0.38982432853143917  0.7000950329655282  1.0000
  C   C33       1.0  0.9667380991709819  0.3172408360013677  0.7121333032943583  1.0000
  C   C34       1.0  0.9680614937797927  0.2477592582897117  0.6504378026271243  1.0000
  C   C35       1.0  0.9610926932761574  0.17405119793756546  0.6619139598946975  1.0000
  C   C36       1.0  0.9517298676860476  0.16968151721351168  0.7306716375736215  1.0000
  C   C37       1.0  0.95535496660613  0.2395975873132555  0.7934041350247939  1.0000
  C   C38       1.0  0.9627963405893922  0.31225272016487776  0.7851024306368757  1.0000
  C   C39       1.0  0.7552056970457386  0.8351427268180626  0.23644634544140086  1.0000
  C   C40       1.0  0.684528713688586  0.7532634798271827  0.1746014701706002  1.0000
  C   C41       1.0  0.6160905290790526  0.7414553633001403  0.1015210020440023  1.0000
  C   C42       1.0  0.6197866287128448  0.8120404209983432  0.0914240857388364  1.0000
  C   C43       1.0  0.6925029897648188  0.8972177192306603  0.1532560251653408  1.0000
  C   C44       1.0  0.7622511873627574  0.9096625400900604  0.22814726569535543  1.0000
  C   C45       1.0  0.8366542262709588  0.9957064489731875  0.28831988515872803  1.0000
  C   C46       1.0  0.842317747431359  0.0645820540559611  0.2732402397009679  1.0000
  C   C47       1.0  0.7712610506643004  0.05314983229904155  0.2035282495181647  1.0000
  C   C48       1.0  0.6973536707760317  0.9717369453264334  0.1452643448924675  1.0000
  C   C49       1.0  0.9090759685951755  0.38395382423142604  0.0251956966558069  1.0000
  C   C50       1.0  0.9624163284663538  0.610002082557642  0.0909191290321232  1.0000
  C   C51       1.0  0.13665892628484502  0.6239845497883605  0.02672592328116251  1.0000
  C   C52       1.0  0.9692549139662178  0.38498976857438527  0.8565049072797848  1.0000
  C   C53       1.0  0.6227577107637573  0.13645312275924223  0.0238307717813981  1.0000
  C   C54       1.0  0.38624313036314806  0.9838094841287127  0.8630339130557941  1.0000
  C   C55       1.0  0.38821492763792526  0.9092774170745835  0.029296426047679305  1.0000
  C   C56       1.0  0.6206388717416759  0.9672250376061625  0.07954358575737791  1.0000
  C   C57       1.0  0.7589509210526302  0.2302422924411899  0.8593452386270216  1.0000
  C   C58       1.0  0.6853736353899579  0.16363722690709898  0.7814129462176569  1.0000
  C   C59       1.0  0.6109463339586156  0.10936770177641358  0.7804386198678942  1.0000
  C   C60       1.0  0.6127187288762173  0.12036562677734958  0.857353466489137  1.0000
  C   C61       1.0  0.6884886464658421  0.18693430064346464  0.9391196864496082  1.0000
  C   C62       1.0  0.7622643158837262  0.24526271113871428  0.9399736313418003  1.0000
  C   C63       1.0  0.837148458006901  0.3150854422389528  0.022106543775393603  1.0000
  C   C64       1.0  0.839644232796289  0.3250958481380691  0.09942645687027613  1.0000
  C   C65       1.0  0.7671733441712549  0.26827051512010763  0.09859499505927262  1.0000
  C   C66       1.0  0.6934928451444476  0.20015501343612374  0.0206894227909729  1.0000
  C   C67       1.0  0.1590220934344089  0.795728602964999  0.11075624574517923  1.0000
  C   C68       1.0  0.1633622105863708  0.8753460157286808  0.1464092895469022  1.0000
  C   C69       1.0  0.220350970567516  0.946051871393564  0.1450292008856309  1.0000
  C   C70       1.0  0.27313857369487243  0.9368181096300102  0.10973303596627201  1.0000
  C   C71       1.0  0.2714302606889802  0.8560796779956943  0.07354238023965823  1.0000
  C   C72       1.0  0.21144670498773624  0.7833299944668112  0.07274178748256331  1.0000
  C   C73       1.0  0.20595390962132143  0.7003731139193332  0.0344641733351736  1.0000
  C   C74       1.0  0.25878282561870936  0.6879741900384031  0.999623095408758  1.0000
  C   C75       1.0  0.3170051291960975  0.7600211815925562  0.0008718972343544003  1.0000
  C   C76       1.0  0.32416935518242707  0.8416053807287368  0.03557353718455401  1.0000
  C   C77       1.0  0.25500402675137934  0.6012597461001263  0.9592443767040636  1.0000
  C   C78       1.0  0.23912512182184997  0.569406597870916  0.8660468473412167  1.0000
  N   N1        1.0  0.9836495977820476  0.32993276137459293  0.4951848765692405  1.0000
  O   O1        1.0  0.057706095169251535  0.9761433103201682  0.5901440564186445  1.0000
  O   O2        1.0  0.16599402848864026  0.07861414445900293  0.5911216757223771  1.0000
  O   O3        1.0  0.9184346972230344  0.8387468241393277  0.4090450279804899  1.0000
  O   O4        1.0  0.032918302907525225  0.9392323888946874  0.4151454252746518  1.0000
  O   O5        1.0  0.8831545385478208  0.9764781927812222  0.4104111655707357  1.0000
  O   O6        1.0  0.987777991088592  0.06935967748501769  0.39955554013372563  1.0000
  O   O7        1.0  0.921040253976777  0.024628100604800585  0.5853904973659638  1.0000
  O   O8        1.0  0.026967918226667133  0.1261986273202497  0.5826227564433994  1.0000
  O   O9        1.0  0.9899695525704219  0.4133728026453979  0.0806335919673273  1.0000
  O   O10       1.0  0.886007326618298  0.4122311540589791  0.9736663460106599  1.0000
  O   O11       1.0  0.02434360979155058  0.592608588664106  0.1135152153874373  1.0000
  O   O12       1.0  0.9070121055967706  0.5803550769133918  0.010532901905321503  1.0000
  O   O13       1.0  0.16105102640648283  0.5921773321443664  0.07550672570041433  1.0000
  O   O14       1.0  0.0578494681400129  0.5956559756041457  0.9711119526319296  1.0000
  O   O15       1.0  0.023502510848132274  0.4092866281079707  0.933702220516473  1.0000
  O   O16       1.0  0.9185894221185009  0.4164788852036663  0.8348180538746705  1.0000
  O   O17       1.0  0.5902557431559359  0.05643900488176007  0.9710998091618634  1.0000
  O   O18       1.0  0.6004497396078392  0.1651729149274671  0.0806489290094277  1.0000
  O   O19       1.0  0.4099226458576837  0.9284923992137377  0.83282506496829  1.0000
  O   O20       1.0  0.4167940036860854  0.033560009540266784  0.9432241409985025  1.0000
  O   O21       1.0  0.40771941603292555  0.8818198119998044  0.9706907915159207  1.0000
  O   O22       1.0  0.4213274027793262  0.9909101583872442  0.0826835944262427  1.0000
  O   O23       1.0  0.5843679401304982  0.9120302782879646  0.9981984826406106  1.0000
  O   O24       1.0  0.5966361577058663  0.020403919955178592  0.11034098654071303  1.0000
  O   O25       1.0  0.9890433263745847  0.27130225253407037  0.44556534053851493  1.0000
  O   O26       1.0  0.9824863315592725  0.3924228256477633  0.4860163989776113  1.0000
