data_image0
_chemical_formula_structural       Cd6H44C60O36
_chemical_formula_sum              "Cd6 H44 C60 O36"
_cell_length_a       6.5652196228181285
_cell_length_b       14.699992579081572
_cell_length_c       20.04724282499946
_cell_angle_alpha    86.33787314484113
_cell_angle_beta     80.57302164544986
_cell_angle_gamma    77.082387374687

_space_group_name_H-M_alt    "P 1"
_space_group_IT_number       1

loop_
  _space_group_symop_operation_xyz
  'x, y, z'

loop_
  _atom_site_type_symbol
  _atom_site_label
  _atom_site_symmetry_multiplicity
  _atom_site_fract_x
  _atom_site_fract_y
  _atom_site_fract_z
  _atom_site_occupancy
  Cd  Cd1       1.0  0.4687022890478972  0.24999927378382839  0.7499752972527463  1.0000
  Cd  Cd2       1.0  0.5313211051426308  0.74999513039635  0.2500193206205168  1.0000
  Cd  Cd3       1.0  0.06701645689029333  0.0375180898066958  0.7429608429361495  1.0000
  Cd  Cd4       1.0  0.846877552071817  0.46245205642444626  0.7570784496353014  1.0000
  Cd  Cd5       1.0  0.9330249644259684  0.9624812323853645  0.2570363820805071  1.0000
  Cd  Cd6       1.0  0.15313666135188717  0.5375459076820092  0.24292197678124694  1.0000
  H   H1        1.0  0.12378668758304227  0.7346660174895092  0.8761276451846811  1.0000
  H   H2        1.0  0.7332809745532813  0.7652415236368595  0.6239440275008192  1.0000
  H   H3        1.0  0.8762174176962175  0.2653326511657284  0.12387326350062011  1.0000
  H   H4        1.0  0.2667349221837441  0.23475503244534215  0.37605543873599606  1.0000
  H   H5        1.0  0.1995062359552695  0.5596699509042933  0.8783383666692615  1.0000
  H   H6        1.0  0.6360108899512514  0.9403480474762702  0.6217608030627916  1.0000
  H   H7        1.0  0.8004924076175757  0.44033159376994746  0.12166961480311762  1.0000
  H   H8        1.0  0.36401554332357494  0.059647069179071394  0.37823504184937223  1.0000
  H   H9        1.0  0.30098937286278754  0.7380280419572002  0.6603602190377273  1.0000
  H   H10       1.0  0.6999556729426926  0.7619462911796758  0.839651673654437  1.0000
  H   H11       1.0  0.6990165222588871  0.2619657818672748  0.3396444762153621  1.0000
  H   H12       1.0  0.30003690759157575  0.23805306280021907  0.16034805571820243  1.0000
  H   H13       1.0  0.08215866313958048  0.6413125082892748  0.5975880996550629  1.0000
  H   H14       1.0  0.32176168638294933  0.8587735719165649  0.9024739179355238  1.0000
  H   H15       1.0  0.9178135862142865  0.3587015181232756  0.4024120731252481  1.0000
  H   H16       1.0  0.6782288931549445  0.1412195748948547  0.09753254461142552  1.0000
  H   H17       1.0  0.11095427854210987  0.71145181956404  0.4797246679056002  1.0000
  H   H18       1.0  0.3024999104555662  0.7889836287884932  0.02038339821353221  1.0000
  H   H19       1.0  0.8890276147226288  0.2885524289926593  0.5202755148733474  1.0000
  H   H20       1.0  0.6975108796931337  0.2110143393774564  0.979617361390858  1.0000
  H   H21       1.0  0.7873778464785205  0.6064095944081913  0.45224324973975183  1.0000
  H   H22       1.0  0.8464828724453357  0.8938236369795902  0.04785767098338312  1.0000
  H   H23       1.0  0.21259923598327646  0.3935953863844616  0.5477598238383976  1.0000
  H   H24       1.0  0.15351725651269277  0.1061826075393952  0.952134058792268  1.0000
  H   H25       1.0  0.756137795405479  0.5388047925424999  0.570641072876036  1.0000
  H   H26       1.0  0.8659064301746824  0.9614860715766439  0.9294493317422551  1.0000
  H   H27       1.0  0.2438479702378017  0.46120929100581515  0.42936408246963964  1.0000
  H   H28       1.0  0.13408298244119976  0.0385243201185475  0.07053863224693661  1.0000
  H   H29       1.0  0.09781126448933736  0.15092641018794947  0.8501008032590889  1.0000
  H   H30       1.0  0.09890225892586832  0.34916114514385294  0.6499653664732747  1.0000
  H   H31       1.0  0.9022136471527348  0.8490708068619526  0.14989548453804247  1.0000
  H   H32       1.0  0.9010915640826771  0.6508347053574183  0.35003337577472854  1.0000
  H   H33       1.0  0.8500133123887326  0.15521895238194364  0.8522522592726319  1.0000
  H   H34       1.0  0.8575493382556589  0.3448198899516298  0.6477915171230464  1.0000
  H   H35       1.0  0.15000617607148592  0.8447873527956273  0.14774478407733233  1.0000
  H   H36       1.0  0.14243967394995857  0.6551766927855949  0.3522101159241515  1.0000
  H   H37       1.0  0.9331096973660993  0.17881171118735034  0.6381259981339512  1.0000
  H   H38       1.0  0.7497711377256809  0.3213905054722375  0.8619165884631528  1.0000
  H   H39       1.0  0.06688728220466816  0.8211855625028261  0.36187503268735816  1.0000
  H   H40       1.0  0.25023288591589227  0.6786172606544126  0.1380859054762453  1.0000
  H   H41       1.0  0.17601295530378294  0.17148991605294125  0.6397694679054666  1.0000
  H   H42       1.0  0.9871269403534767  0.32854952672045096  0.8602047382616861  1.0000
  H   H43       1.0  0.8239824418046667  0.828511559307067  0.36023253143803663  1.0000
  H   H44       1.0  0.012879854162747572  0.6714616963175574  0.1397947532638426  1.0000
  C   C1        1.0  0.159056502893208  0.8498932207842528  0.7648415873950256  1.0000
  C   C2        1.0  0.7735029568230161  0.6500495288282123  0.7351927392218942  1.0000
  C   C3        1.0  0.8409557922613403  0.1501047299189722  0.23515767613242394  1.0000
  C   C4        1.0  0.22648202958797745  0.3499442701438298  0.2648097173629935  1.0000
  C   C5        1.0  0.20892561295119105  0.7454199706139517  0.767911906361711  1.0000
  C   C6        1.0  0.7218856631173128  0.7545452555174561  0.7321251418297479  1.0000
  C   C7        1.0  0.7910813531048931  0.2545808010779779  0.23208969346528366  1.0000
  C   C8        1.0  0.27809914498620003  0.2454499340161078  0.26787677885793226  1.0000
  C   C9        1.0  0.1817572514194696  0.6961852810606287  0.8296714144394173  1.0000
  C   C10       1.0  0.706638347857009  0.8037280348893602  0.670384875421469  1.0000
  C   C11       1.0  0.8182400197554854  0.30381622604604513  0.1703333266223694  1.0000
  C   C12       1.0  0.29336810408475605  0.19626991229103652  0.3296140570970323  1.0000
  C   C13       1.0  0.22398820282046503  0.5989417407710246  0.8307809220624166  1.0000
  C   C14       1.0  0.6527864893252658  0.9009987806401724  0.6692775565506396  1.0000
  C   C15       1.0  0.7760066484167113  0.4010597587533269  0.16922315480257313  1.0000
  C   C16       1.0  0.34723223911597495  0.0989991310781164  0.3307183816350944  1.0000
  C   C17       1.0  0.29859255616672453  0.550890422837675  0.7706481745963174  1.0000
  C   C18       1.0  0.6199770247931371  0.9490585727330937  0.7293764122456423  1.0000
  C   C19       1.0  0.7013861529600476  0.44911033794171107  0.22935235163046033  1.0000
  C   C20       1.0  0.3800406602894382  0.0509344557061553  0.2706199893450504  1.0000
  C   C21       1.0  0.327811964936345  0.6008674020938753  0.7090703866201125  1.0000
  C   C22       1.0  0.6381713356961429  0.8991033936104742  0.7909518705871363  1.0000
  C   C23       1.0  0.6721936510268448  0.3991250186465436  0.29093376439331564  1.0000
  C   C24       1.0  0.361813705866325  0.10089453453839067  0.20904532195547182  1.0000
  C   C25       1.0  0.28120739378046283  0.697810465573852  0.7074445432793867  1.0000
  C   C26       1.0  0.6867012699942022  0.8021600641757088  0.7925639658899614  1.0000
  C   C27       1.0  0.7188095686202305  0.30218266040345293  0.2925602511495029  1.0000
  C   C28       1.0  0.3132849989125008  0.19783512623856583  0.2074380375499629  1.0000
  C   C29       1.0  0.34954125440151546  0.44707494158598843  0.7681228478799227  1.0000
  C   C30       1.0  0.5646477006833164  0.0528785784270838  0.7318693573748477  1.0000
  C   C31       1.0  0.6504436269772571  0.5529209770047528  0.23188171317136155  1.0000
  C   C32       1.0  0.4353658535724209  0.9471137858656816  0.2681299722199313  1.0000
  C   C33       1.0  0.419075779258762  0.5884687408761238  0.5891918620600266  1.0000
  C   C34       1.0  0.5974281589635031  0.9116716449185842  0.9108197180864365  1.0000
  C   C35       1.0  0.5809057630690974  0.41153205835153267  0.4108119873295807  1.0000
  C   C36       1.0  0.4025531427304401  0.08833396333369593  0.0891772698292712  1.0000
  C   C37       1.0  0.23482013068701968  0.6358383066513297  0.564987542065893  1.0000
  C   C38       1.0  0.43632548430401413  0.8643500739241003  0.9350501336102256  1.0000
  C   C39       1.0  0.7651648182889306  0.3641645714486827  0.43501492094391386  1.0000
  C   C40       1.0  0.5636753151781518  0.13564930950437318  0.06495216979732991  1.0000
  C   C41       1.0  0.25240448839471713  0.6739654434127399  0.4996026960210004  1.0000
  C   C42       1.0  0.426486684797098  0.8263489466862807  0.00048335534659570383  1.0000
  C   C43       1.0  0.7475767248939176  0.32604020152639623  0.5003974495530629  1.0000
  C   C44       1.0  0.5735265086624678  0.17365111199383418  0.9995170152626186  1.0000
  C   C45       1.0  0.45144655536891093  0.6653126882093685  0.45884984163581777  1.0000
  C   C46       1.0  0.5762089561003026  0.834897874290668  0.04122958755105803  1.0000
  C   C47       1.0  0.5485333312213571  0.3346915836309563  0.5411523359123862  1.0000
  C   C48       1.0  0.42380496830562486  0.16510983044812377  0.9587676690296121  1.0000
  C   C49       1.0  0.6334121106188493  0.6157619300084816  0.4841747818804834  1.0000
  C   C50       1.0  0.7339406017244346  0.8844430045180471  0.015891558707750206  1.0000
  C   C51       1.0  0.3665687351060074  0.38424234853346195  0.5158279771122737  1.0000
  C   C52       1.0  0.266071402915465  0.11556600400532349  0.9840976837699101  1.0000
  C   C53       1.0  0.6179704045221328  0.5768832462204754  0.549382482732554  1.0000
  C   C54       1.0  0.7448026425773766  0.923298567794127  0.9506699661847122  1.0000
  C   C55       1.0  0.38200886292160874  0.4231203207270156  0.45061913197354647  1.0000
  C   C56       1.0  0.25519546307928204  0.0767097829403269  0.0493227051682226  1.0000
  C   C57       1.0  0.4678815916231757  0.7058158704439492  0.3893223303472837  1.0000
  C   C58       1.0  0.5635528904875144  0.7942587933542598  0.11073964239042772  1.0000
  C   C59       1.0  0.5321124939169477  0.2941834660732142  0.6106759029484154  1.0000
  C   C60       1.0  0.43647613117327233  0.20574608403826025  0.8892547770195024  1.0000
  O   O1        1.0  0.12343399870295726  0.8953121106765278  0.818829694243533  1.0000
  O   O2        1.0  0.836761519196301  0.6046143131105097  0.6811930421585117  1.0000
  O   O3        1.0  0.876585984658263  0.10468512789559267  0.18116842281837364  1.0000
  O   O4        1.0  0.16324536263569217  0.3953815820039921  0.3188096025179874  1.0000
  O   O5        1.0  0.9934210138335899  0.11435211348169359  0.8428392223808174  1.0000
  O   O6        1.0  0.9506041589303819  0.38563883697938905  0.6572712257671398  1.0000
  O   O7        1.0  0.0065888281293598056  0.885649995502895  0.1571572705659179  1.0000
  O   O8        1.0  0.04938548904867463  0.6143563677188268  0.34273202331412733  1.0000
  O   O9        1.0  0.15304860221676383  0.8906092939200788  0.7061389440191804  1.0000
  O   O10       1.0  0.7499589694727435  0.6093310495622434  0.7939085924831488  1.0000
  O   O11       1.0  0.8469574821612227  0.10938728686312518  0.2938626019180148  1.0000
  O   O12       1.0  0.2500166729939863  0.3906669341535646  0.2060933387258785  1.0000
  O   O13       1.0  0.06777511562701474  0.1345431879005972  0.6428729218332165  1.0000
  O   O14       1.0  0.8449918893213495  0.3655867868591328  0.8572123166835369  1.0000
  O   O15       1.0  0.9322216538793244  0.865458325026978  0.357132317920879  1.0000
  O   O16       1.0  0.15501293027735843  0.6344216107866316  0.14278442478126155  1.0000
  O   O17       1.0  0.5425274736723581  0.4024939020113151  0.7606741002304532  1.0000
  O   O18       1.0  0.7054947477029575  0.09741618163697302  0.7394493045462411  1.0000
  O   O19       1.0  0.45747476998609243  0.597507565229712  0.23932723273737375  1.0000
  O   O20       1.0  0.2945107632280184  0.9025783587221453  0.26055695093357667  1.0000
  O   O21       1.0  0.20234782814334554  0.40261676076779196  0.7714977817644169  1.0000
  O   O22       1.0  0.3764087673344179  0.09740272527437097  0.7283712286129076  1.0000
  O   O23       1.0  0.7976467205408186  0.5973763578197974  0.22850627007321123  1.0000
  O   O24       1.0  0.6236110736574857  0.9025881419191181  0.2716194949129616  1.0000
  O   O25       1.0  0.40926159863357703  0.5466511337440991  0.6531548253289686  1.0000
  O   O26       1.0  0.6100977944081551  0.9533293205246947  0.84681015316432  1.0000
  O   O27       1.0  0.590723650308981  0.4533461512438348  0.3468471223036147  1.0000
  O   O28       1.0  0.38985244622800513  0.046676985767362594  0.15318665718111651  1.0000
  O   O29       1.0  0.302241184489155  0.7302639948455366  0.36030851492335364  1.0000
  O   O30       1.0  0.393310626199579  0.7697810257880562  0.13969427163642223  1.0000
  O   O31       1.0  0.6977534801760544  0.26973115164361156  0.6396897472347831  1.0000
  O   O32       1.0  0.606716846252709  0.23022388741061658  0.860303222679626  1.0000
  O   O33       1.0  0.6480616573116156  0.7153265040353531  0.3566902387295984  1.0000
  O   O34       1.0  0.7206442218426405  0.7845808171460219  0.14337393708277804  1.0000
  O   O35       1.0  0.35193092322265324  0.2846728499445348  0.6433094906430413  1.0000
  O   O36       1.0  0.27939161052793077  0.21541424394236938  0.8566171691629593  1.0000
