data_image0
_chemical_formula_structural       Cd2H14C14N10O10
_chemical_formula_sum              "Cd2 H14 C14 N10 O10"
_cell_length_a       5.442238575888824
_cell_length_b       10.563290184637772
_cell_length_c       10.124401395201645
_cell_angle_alpha    101.73233610058611
_cell_angle_beta     104.2303998239708
_cell_angle_gamma    99.21095054686415

_space_group_name_H-M_alt    "P 1"
_space_group_IT_number       1

loop_
  _space_group_symop_operation_xyz
  'x, y, z'

loop_
  _atom_site_type_symbol
  _atom_site_label
  _atom_site_symmetry_multiplicity
  _atom_site_fract_x
  _atom_site_fract_y
  _atom_site_fract_z
  _atom_site_occupancy
  Cd  Cd1       1.0  0.3040582539517658  0.2750005639465414  0.6138827573545241  1.0000
  Cd  Cd2       1.0  0.6959252635164574  0.7249894778601272  0.3861392663097475  1.0000
  H   H1        1.0  0.6752644966259284  0.08538340656879478  0.7133094882823696  1.0000
  H   H2        1.0  0.32472145063470487  0.9145907609797419  0.28668887674144367  1.0000
  H   H3        1.0  0.004103774453845697  0.028552807172523804  0.13662091426814268  1.0000
  H   H4        1.0  0.9958839879665362  0.9714318139108541  0.8633749922405511  1.0000
  H   H5        1.0  0.8992612425926508  0.1321746194399154  0.26132301380229706  1.0000
  H   H6        1.0  0.10079487192939485  0.8678348411278946  0.7386809546038504  1.0000
  H   H7        1.0  0.48570079235467734  0.2579218537036212  0.26503632251749554  1.0000
  H   H8        1.0  0.5143309646833245  0.7420973925227442  0.7349674406148237  1.0000
  H   H9        1.0  0.18912352383638614  0.3968015362420089  0.16563800134814943  1.0000
  H   H10       1.0  0.8109296593016425  0.6032260297733528  0.8343620204610003  1.0000
  H   H11       1.0  0.9919715583119668  0.4391159780035139  0.7057331931317703  1.0000
  H   H12       1.0  0.007957707607346263  0.5608684696814662  0.29425879537009786  1.0000
  H   H13       1.0  0.19051260509446163  0.4138369861568094  0.839428459297636  1.0000
  H   H14       1.0  0.809444328471997  0.5861625176664019  0.16055928812363615  1.0000
  C   C1        1.0  0.10930223539563133  0.9814897733449754  0.4667225348075588  1.0000
  C   C2        1.0  0.8906562576224528  0.018502324621401594  0.5332385716002007  1.0000
  C   C3        1.0  0.6353113094970267  0.5151301923650422  0.5564014254801819  1.0000
  C   C4        1.0  0.364664127481106  0.48487189700854577  0.44362430793509583  1.0000
  C   C5        1.0  0.6452820197465456  0.1249799404808272  0.8146909791360952  1.0000
  C   C6        1.0  0.354719178104247  0.875004860453288  0.18530729616941946  1.0000
  C   C7        1.0  0.44992824639176365  0.2536212247342106  0.9434250481614154  1.0000
  C   C8        1.0  0.5501093657944409  0.7463884081392322  0.056580063888205176  1.0000
  C   C9        1.0  0.5623204807412848  0.2112549749204007  0.0628360507803905  1.0000
  C   C10       1.0  0.43770646351041614  0.7887516387893992  0.937167602268971  1.0000
  C   C11       1.0  0.7380739604978716  0.1269680208365216  0.0532333863965064  1.0000
  C   C12       1.0  0.261933939058693  0.8730279357943762  0.9467699716778026  1.0000
  C   C13       1.0  0.29626318120395473  0.3412122888409073  0.10693064126425607  1.0000
  C   C14       1.0  0.7037823315234845  0.65880881975081  0.8930727550658941  1.0000
  N   N1        1.0  0.7668324161896933  0.08252790953852697  0.9232078357808714  1.0000
  N   N2        1.0  0.23315913220265108  0.917455246571734  0.07679323576032705  1.0000
  N   N3        1.0  0.49269613084064895  0.21273677774441774  0.8170184182834246  1.0000
  N   N4        1.0  0.5073291624473198  0.7872609680210729  0.18298393531198082  1.0000
  N   N5        1.0  0.8741788479896613  0.08534786910858122  0.15951553736393007  1.0000
  N   N6        1.0  0.12582747467080668  0.9146441409485532  0.8404871576878816  1.0000
  N   N7        1.0  0.45663427244032556  0.2681744150516749  0.16512587509689064  1.0000
  N   N8        1.0  0.5433977966210576  0.7318394077811448  0.8348821976987606  1.0000
  N   N9        1.0  0.28814528894903896  0.3356727129752244  0.9736263702063251  1.0000
  N   N10       1.0  0.7119066293162745  0.6643454830728218  0.026377298243659204  1.0000
  O   O1        1.0  0.27581134048658373  0.07606912174387047  0.45760761198276595  1.0000
  O   O2        1.0  0.7241845853429679  0.9239491825016372  0.5423645864050427  1.0000
  O   O3        1.0  0.10461989840365497  0.8595424105954947  0.42457094232614156  1.0000
  O   O4        1.0  0.8953344564672179  0.1404772186139382  0.5753932664657028  1.0000
  O   O5        1.0  0.6784949560669418  0.42689739393749443  0.6227772985943644  1.0000
  O   O6        1.0  0.321457971578937  0.5730999437009174  0.3772793688518447  1.0000
  O   O7        1.0  0.7916746364928001  0.6240259681272136  0.576704930179794  1.0000
  O   O8        1.0  0.2083061616617669  0.37594214154069044  0.4233010911920159  1.0000
  O   O9        1.0  0.17961645068592696  0.4444631125687195  0.7509942092529938  1.0000
  O   O10       1.0  0.820321126162021  0.5555311575691417  0.24898893352989396  1.0000
