data_image0
_chemical_formula_structural       Al2H14C24S2N2O14
_chemical_formula_sum              "Al2 H14 C24 S2 N2 O14"
_cell_length_a       7.054143668256981
_cell_length_b       12.59514354835781
_cell_length_c       15.335798289804554
_cell_angle_alpha    79.45679129067673
_cell_angle_beta     75.91772235880852
_cell_angle_gamma    75.62475004396833

_space_group_name_H-M_alt    "P 1"
_space_group_IT_number       1

loop_
  _space_group_symop_operation_xyz
  'x, y, z'

loop_
  _atom_site_type_symbol
  _atom_site_label
  _atom_site_symmetry_multiplicity
  _atom_site_fract_x
  _atom_site_fract_y
  _atom_site_fract_z
  _atom_site_occupancy
  Al  Al1       1.0  0.5021399355694173  0.49305467653978485  0.5011373616343987  1.0000
  Al  Al2       1.0  0.0032189214637768217  0.49062188247674493  0.5005218113408529  1.0000
  H   H1        1.0  0.2343502570972192  0.4108074065751665  0.6086368325953229  1.0000
  H   H2        1.0  0.7775228807553276  0.5642881569994741  0.39069006483627766  1.0000
  H   H3        1.0  0.8438087488685042  0.48594160511052553  0.9342321981304944  1.0000
  H   H4        1.0  0.17954658033222154  0.47914005532932435  0.0643734409268362  1.0000
  H   H5        1.0  0.6763877526462638  0.5219738285519638  0.22757549508715158  1.0000
  H   H6        1.0  0.7533053612286765  0.5472395927008763  0.05987047305505659  1.0000
  H   H7        1.0  0.29567098866250774  0.5625816569063388  0.7662582242938567  1.0000
  H   H8        1.0  0.21207303979478812  0.5672171743316026  0.9324376428985841  1.0000
  H   H9        1.0  0.5078538630136223  0.769525029844409  0.49952054353690994  1.0000
  H   H10       1.0  0.4617687202399311  0.8864444243785741  0.5579309947760861  1.0000
  H   H11       1.0  0.5165954975451045  0.9027313557784706  0.43796163974324287  1.0000
  H   H12       1.0  0.4792203695506102  0.0825605390323929  0.567100069228303  1.0000
  H   H13       1.0  0.5342800108551274  0.09698726712423421  0.4471728653103425  1.0000
  H   H14       1.0  0.49038881210640994  0.21489019097276693  0.5041329516216704  1.0000
  C   C1        1.0  0.8307210002188441  0.2961124830173246  0.5128105177883169  1.0000
  C   C2        1.0  0.6598480664924936  0.5148517492818455  0.6571320986944115  1.0000
  C   C3        1.0  0.17004370792579246  0.6874354182182214  0.49011924349127856  1.0000
  C   C4        1.0  0.342271545104758  0.48193948280598403  0.3423084311358905  1.0000
  C   C5        1.0  0.6115516367614618  0.5257790827011276  0.7560897178929904  1.0000
  C   C6        1.0  0.3861937100618817  0.49169540359277863  0.24096341026662318  1.0000
  C   C7        1.0  0.7606204857331704  0.510499248472655  0.8057545566811866  1.0000
  C   C8        1.0  0.7197361806816149  0.5050208669308489  0.8993792898213254  1.0000
  C   C9        1.0  0.24817183275218477  0.4840014741437243  0.19182094758067333  1.0000
  C   C10       1.0  0.29047459474593035  0.4911188553131609  0.09803253797709026  1.0000
  C   C11       1.0  0.5696550746809451  0.5128609709225741  0.19036466077113087  1.0000
  C   C12       1.0  0.6121344207621533  0.5253390957328391  0.09624539796822523  1.0000
  C   C13       1.0  0.41350790200282733  0.5462788704361115  0.8044970580622104  1.0000
  C   C14       1.0  0.36848488643004623  0.5467052342962262  0.8978455863779401  1.0000
  C   C15       1.0  0.5205250627480354  0.5218897404846955  0.947859728386731  1.0000
  C   C16       1.0  0.4749598620964265  0.5129025519207174  0.04781930805884826  1.0000
  C   C17       1.0  0.22217104935369034  0.8813202982921452  0.49888039064374107  1.0000
  C   C18       1.0  0.7746599167254261  0.10198737669279717  0.5057572996557909  1.0000
  C   C19       1.0  0.10956953500561196  0.8065910032704333  0.49510520140501757  1.0000
  C   C20       1.0  0.8878853500638043  0.1766226421329761  0.5090907577812871  1.0000
  C   C21       1.0  0.8977991347667927  0.9944283472135138  0.5020878369027101  1.0000
  C   C22       1.0  0.09858986868977833  0.9886535023095319  0.5026980625113495  1.0000
  C   C23       1.0  0.43869319147542307  0.8573202513226901  0.498740087533278  1.0000
  C   C24       1.0  0.5580918309919484  0.12680064476560196  0.5058751739393514  1.0000
  S   S1        1.0  0.8594458646561021  0.866264215359763  0.49672064467412713  1.0000
  S   S2        1.0  0.13790741202986112  0.11662467898774757  0.5074790152866413  1.0000
  N   N1        1.0  0.9720848482610194  0.5040996167894675  0.7598307637077467  1.0000
  N   N2        1.0  0.04310124322107367  0.47332702825255496  0.23769656070152928  1.0000
  O   O1        1.0  0.6469204883234737  0.34414957440543487  0.5167521255438317  1.0000
  O   O2        1.0  0.8439551060438859  0.5044878641225095  0.6190816927557065  1.0000
  O   O3        1.0  0.029846681857016204  0.6402431023086874  0.48789568288602675  1.0000
  O   O4        1.0  0.4854544743076517  0.48172394862706347  0.3790510104380046  1.0000
  O   O5        1.0  0.35420396743893445  0.6412387926727589  0.48693497226270194  1.0000
  O   O6        1.0  0.16361709139801656  0.47585616374247763  0.3817241840839428  1.0000
  O   O7        1.0  0.9745712683724009  0.34173544983749327  0.5127955527694538  1.0000
  O   O8        1.0  0.5160136823271557  0.5134023079071284  0.6215022825488246  1.0000
  O   O9        1.0  0.25019374112578413  0.4454867888214338  0.5459181266053432  1.0000
  O   O10       1.0  0.756193335644724  0.5377210282114929  0.4553311081329737  1.0000
  O   O11       1.0  0.019951194478395034  0.5940664986898838  0.7308613062535512  1.0000
  O   O12       1.0  0.08668565106788864  0.412072691808376  0.7580158628232849  1.0000
  O   O13       1.0  0.9229514589767548  0.5620999127571124  0.2525614550952324  1.0000
  O   O14       1.0  0.0024766359080175167  0.3812781054796017  0.253004530672399  1.0000
