data_image0
_chemical_formula_structural       Sr4Hg4H36C36S8N12O28
_chemical_formula_sum              "Sr4 Hg4 H36 C36 S8 N12 O28"
_cell_length_a       6.752900953529762
_cell_length_b       15.645250582451451
_cell_length_c       15.746
_cell_angle_alpha    100.48219543783509
_cell_angle_beta     102.71202320043366
_cell_angle_gamma    89.93853002393175

_space_group_name_H-M_alt    "P 1"
_space_group_IT_number       1

loop_
  _space_group_symop_operation_xyz
  'x, y, z'

loop_
  _atom_site_type_symbol
  _atom_site_label
  _atom_site_symmetry_multiplicity
  _atom_site_fract_x
  _atom_site_fract_y
  _atom_site_fract_z
  _atom_site_occupancy
  Sr  Sr1       1.0  0.5112243130366209  0.3276787203952835  0.5557268624504417  1.0000
  Sr  Sr2       1.0  0.9549507366683797  0.1721794924128304  0.4443033774933483  1.0000
  Sr  Sr3       1.0  0.4887764187573893  0.6723213477830186  0.4442758862788452  1.0000
  Sr  Sr4       1.0  0.04504987170351879  0.8278192746528035  0.5556953138999744  1.0000
  Hg  Hg1       1.0  0.9506186349363119  0.6303103713352696  0.8522170584736699  1.0000
  Hg  Hg2       1.0  0.0958865942213478  0.8692688209834145  0.14771626882841102  1.0000
  Hg  Hg3       1.0  0.0493882307888782  0.36969034739937  0.1477857516436458  1.0000
  Hg  Hg4       1.0  0.9041141375726625  0.1307312471948876  0.8522845746551013  1.0000
  H   H1        1.0  0.1425668496104038  0.4365083380147823  0.5502072218431806  1.0000
  H   H2        1.0  0.5918847803402869  0.0635456922501731  0.44974487332268603  1.0000
  H   H3        1.0  0.8574309694956597  0.5634930312761881  0.4497929468789366  1.0000
  H   H4        1.0  0.4081191726969563  0.9364563275971347  0.5502540866236103  1.0000
  H   H5        1.0  0.21457157816405464  0.4885866737472426  0.48365002513762784  1.0000
  H   H6        1.0  0.7316086912616413  0.011333341912696  0.5162826045140463  1.0000
  H   H7        1.0  0.7854352258500867  0.5114133944310594  0.5163507563117022  1.0000
  H   H8        1.0  0.2683844502572086  0.9886667262656059  0.48371688757785586  1.0000
  H   H9        1.0  0.5968542373172525  0.1540374278976273  0.6403821634573389  1.0000
  H   H10       1.0  0.9534680955830765  0.3455644657144816  0.3593033398293244  1.0000
  H   H11       1.0  0.4031480742428498  0.8459632908370123  0.3596202168741627  1.0000
  H   H12       1.0  0.0465355488988948  0.6544343013511522  0.6406975433336514  1.0000
  H   H13       1.0  0.358205880008505  0.1654852677252876  0.6270427300218485  1.0000
  H   H14       1.0  0.7287522720681707  0.334525825821558  0.3730183537292859  1.0000
  H   H15       1.0  0.6417948517855052  0.8345148004530145  0.3729568432978141  1.0000
  H   H16       1.0  0.2712499777808759  0.6654742423567439  0.6269819979342373  1.0000
  H   H17       1.0  0.3755954210275333  0.3948948514877415  0.36925968795331693  1.0000
  H   H18       1.0  0.008854329640847399  0.10526456890349317  0.6309663487565799  1.0000
  H   H19       1.0  0.6244143573856177  0.6051045661342229  0.6307412565976804  1.0000
  H   H20       1.0  0.9911464021531698  0.8947354992748087  0.3690332245630756  1.0000
  H   H21       1.0  0.5824597473345319  0.4500633298116341  0.41062669620473  1.0000
  H   H22       1.0  0.1736402235934591  0.049967930981594584  0.5897734006989735  1.0000
  H   H23       1.0  0.4175485747346386  0.549936738366668  0.5893742285065358  1.0000
  H   H24       1.0  0.8263574103794298  0.9500314866403696  0.4102251275926818  1.0000
  H   H25       1.0  0.24231464997746596  0.2527365822679144  0.7675777627191209  1.0000
  H   H26       1.0  0.47328788192449867  0.2468275790767649  0.2332365352970456  1.0000
  H   H27       1.0  0.7576812808072334  0.7472608836850512  0.23242342745361105  1.0000
  H   H28       1.0  0.5267127881584557  0.7531718385452066  0.766762914600406  1.0000
  H   H29       1.0  0.3381105648712932  0.3394004444400025  0.9221526276156453  1.0000
  H   H30       1.0  0.41466730759660914  0.15992040883537575  0.07881722415606869  1.0000
  H   H31       1.0  0.6618823915143964  0.6605976720693008  0.07784712929156974  1.0000
  H   H32       1.0  0.5853318444313229  0.8400790087865955  0.9211833526432969  1.0000
  H   H33       1.0  0.21957510867714092  0.4923956810888938  0.9507773518387451  1.0000
  H   H34       1.0  0.26691247401041096  0.006966157235588398  0.049845369232876593  1.0000
  H   H35       1.0  0.780428597515886  0.5076037365330776  0.04922365474643439  1.0000
  H   H36       1.0  0.7330852833845894  0.9930345614990512  0.9501553111489685  1.0000
  C   C1        1.0  0.9165841889096809  0.4921575774702659  0.6650320973746418  1.0000
  C   C2        1.0  0.2495295854998645  0.0077221036968993  0.3349457770327006  1.0000
  C   C3        1.0  0.0834242565816012  0.5078437918207044  0.334969709262964  1.0000
  C   C4        1.0  0.7504543242666911  0.9922766633687343  0.6650519735612477  1.0000
  C   C5        1.0  0.025472825596530402  0.3040771871164409  0.6228057424807929  1.0000
  C   C6        1.0  0.400894212858553  0.1958181074027721  0.3774003871482776  1.0000
  C   C7        1.0  0.974526264720339  0.6959215799491929  0.37719471089636863  1.0000
  C   C8        1.0  0.599104939169372  0.8041813102191993  0.6225995545691632  1.0000
  C   C9        1.0  0.02970763550074199  0.4449642692576105  0.7356106064889757  1.0000
  C   C10       1.0  0.29174136181067917  0.05482758680432909  0.2645668973536671  1.0000
  C   C11       1.0  0.9702991685133995  0.5550357989206987  0.2643889047965047  1.0000
  C   C12       1.0  0.7082561487401052  0.9451705297049668  0.7354332893393618  1.0000
  C   C13       1.0  0.0823120163162514  0.3582021730789293  0.7146303409088759  1.0000
  C   C14       1.0  0.36533954813369013  0.14161180189839934  0.2856518054509252  1.0000
  C   C15       1.0  0.9176903569549066  0.641799196212041  0.28537025759905527  1.0000
  C   C16       1.0  0.6346580858391988  0.8583876157235719  0.7143486280865048  1.0000
  C   C17       1.0  0.19547215526082337  0.3195357067496117  0.7823945997566639  1.0000
  C   C18       1.0  0.41121759254518503  0.18007724632018804  0.21819020766521652  1.0000
  C   C19       1.0  0.8045271201892134  0.6804650119850277  0.2176049537232601  1.0000
  C   C20       1.0  0.5887815594827401  0.8199221713017761  0.7818110042160812  1.0000
  C   C21       1.0  0.2489795336960228  0.3672787350653834  0.868062318062158  1.0000
  C   C22       1.0  0.37917989337605457  0.13222037064578973  0.132648204375883  1.0000
  C   C23       1.0  0.7510167056439485  0.6327219836692564  0.13193821905775144  1.0000
  C   C24       1.0  0.6208192586518706  0.8677790469761744  0.867350467177708  1.0000
  C   C25       1.0  0.18655938081626997  0.4525042171806958  0.8845322453546417  1.0000
  C   C26       1.0  0.3000119421114036  0.04702026022754069  0.11601092298099047  1.0000
  C   C27       1.0  0.8134428690327766  0.5474958509976061  0.11546937647273131  1.0000
  C   C28       1.0  0.6999918257926723  0.9529798079507612  0.8839889368625437  1.0000
  C   C29       1.0  0.5637190574946018  0.5017188039263232  0.7746093403316152  1.0000
  C   C30       1.0  0.7866465223310042  0.9981524881867969  0.2247932126109546  1.0000
  C   C31       1.0  0.436287931652707  0.4982832159209848  0.22539625695780793  1.0000
  C   C32       1.0  0.2133439533441148  0.0018514833295170995  0.7752041931626009  1.0000
  C   C33       1.0  0.1926139633658366  0.6767965248117491  0.07456458166791441  1.0000
  C   C34       1.0  0.11943564252877081  0.8226935412890413  0.9261586910497145  1.0000
  C   C35       1.0  0.8073800790975055  0.3231970378032045  0.9254325493000266  1.0000
  C   C36       1.0  0.8805562894903288  0.1773097796709422  0.0738412748912722  1.0000
  S   S1        1.0  0.5875726157812835  0.5880443768041914  0.8548181482418826  1.0000
  S   S2        1.0  0.7299524856601494  0.912286858637799  0.14393590954917812  1.0000
  S   S3        1.0  0.4124340648107534  0.4119543902614424  0.14518238636303948  1.0000
  S   S4        1.0  0.2700544417761037  0.0877145106531714  0.856057497761455  1.0000
  S   S5        1.0  0.2867068783965578  0.7361454781445929  0.17294942085835174  1.0000
  S   S6        1.0  0.1174110621760391  0.7634226547164005  0.8281704028972426  1.0000
  S   S7        1.0  0.7132815855350926  0.263853288921041  0.8270557454225909  1.0000
  S   S8        1.0  0.8825744273566015  0.2365767629055711  0.17182380388929627  1.0000
  N   N1        1.0  0.0815452577252671  0.4897797940657043  0.8194750796523635  1.0000
  N   N2        1.0  0.2598990171499764  0.0098943112995897  0.1808095919806334  1.0000
  N   N3        1.0  0.9184601516559567  0.5102215752252661  0.1805251702975141  1.0000
  N   N4        1.0  0.7401032326990702  0.9901057568787124  0.8191901246009649  1.0000
  N   N5        1.0  0.5439415721001524  0.4405834228974612  0.7167780772972493  1.0000
  N   N6        1.0  0.8245696409684058  0.0589891956795725  0.2830197479649499  1.0000
  N   N7        1.0  0.4560713041341202  0.5594166452808407  0.2832239122817555  1.0000
  N   N8        1.0  0.1754262281052306  0.9410076197170625  0.7169768732120972  1.0000
  N   N9        1.0  0.12924627750548717  0.6303760775251135  0.005818130727995202  1.0000
  N   N10       1.0  0.12294654135170899  0.8688752344007185  0.9947187020255939  1.0000
  N   N11       1.0  0.8707580457980838  0.3696298456602064  0.994186650406938  1.0000
  N   N12       1.0  0.8770403428138565  0.1311228821085848  0.00527159068691671  1.0000
  O   O1        1.0  0.8947096108723828  0.5735246099624758  0.6837532335389297  1.0000
  O   O2        1.0  0.2080163058926203  0.9264175927911609  0.3161842967946241  1.0000
  O   O3        1.0  0.10529421874274898  0.4264761087721637  0.3162486549725898  1.0000
  O   O4        1.0  0.7919782919702102  0.0735818248308036  0.6838164853008664  1.0000
  O   O5        1.0  0.8511253774930977  0.4463532070329137  0.587800074812904  1.0000
  O   O6        1.0  0.2626318513780248  0.053538834704618  0.4121259958432333  1.0000
  O   O7        1.0  0.14888914021830857  0.5536481622580567  0.41220039962666993  1.0000
  O   O8        1.0  0.7373448383796911  0.9464638356990206  0.5878705088104113  1.0000
  O   O9        1.0  0.8565134423776468  0.26179232645164047  0.5992565431603936  1.0000
  O   O10       1.0  0.2553890806887793  0.23789544059669504  0.40072493873288545  1.0000
  O   O11       1.0  0.1434871042832029  0.7382057900576555  0.40074265989265  1.0000
  O   O12       1.0  0.7446148723484637  0.7621065792506201  0.5992740212134108  1.0000
  O   O13       1.0  0.1563806347865935  0.2985864916487202  0.5755752243795769  1.0000
  O   O14       1.0  0.5800245347731092  0.2015774826368641  0.4248853086599667  1.0000
  O   O15       1.0  0.8436215533513902  0.7014129259732513  0.42442627402558497  1.0000
  O   O16       1.0  0.4199761970209011  0.7984225855414451  0.5751161699054705  1.0000
  O   O17       1.0  0.2637392387127449  0.4588939815034436  0.5356039665142447  1.0000
  O   O18       1.0  0.7279721662523357  0.040979194100380284  0.4643378797718539  1.0000
  O   O19       1.0  0.7362659238242557  0.5411047855621901  0.46439705991066665  1.0000
  O   O20       1.0  0.27202686235348483  0.959018922408923  0.5356611800192539  1.0000
  O   O21       1.0  0.4885876834000342  0.19488976351266973  0.6282557495510444  1.0000
  O   O22       1.0  0.8574477871723829  0.3047849924089618  0.3712640475658162  1.0000
  O   O23       1.0  0.511413048393976  0.805110304665632  0.371743823768611  1.0000
  O   O24       1.0  0.1425528211995157  0.695213774656672  0.6287346438275065  1.0000
  O   O25       1.0  0.5171362718422117  0.3911866803780271  0.40163758969464414  1.0000
  O   O26       1.0  0.1174894415786625  0.10889792603467897  0.5987728768046168  1.0000
  O   O27       1.0  0.48287356828199524  0.608813387800275  0.5983634782785642  1.0000
  O   O28       1.0  0.8825112285042991  0.8911014915872926  0.40122720817476687  1.0000
