data_image0
_chemical_formula_structural       Cd4H76C28N12
_chemical_formula_sum              "Cd4 H76 C28 N12"
_cell_length_a       7.241096295971501
_cell_length_b       11.218283624124865
_cell_length_c       12.883505603248773
_cell_angle_alpha    78.6804697621694
_cell_angle_beta     84.50716078010564
_cell_angle_gamma    88.46209409128464

_space_group_name_H-M_alt    "P 1"
_space_group_IT_number       1

loop_
  _space_group_symop_operation_xyz
  'x, y, z'

loop_
  _atom_site_type_symbol
  _atom_site_label
  _atom_site_symmetry_multiplicity
  _atom_site_fract_x
  _atom_site_fract_y
  _atom_site_fract_z
  _atom_site_occupancy
  Cd  Cd1       1.0  0.35485782183644693  0.47876682828370304  0.2558396460677556  1.0000
  Cd  Cd2       1.0  0.6451451372648621  0.5212322311082216  0.7441581990194732  1.0000
  Cd  Cd3       1.0  0.8665431356859017  0.9074599877772086  0.2566097284868718  1.0000
  Cd  Cd4       1.0  0.1334584623400374  0.09253998266922277  0.7433903690621831  1.0000
  H   H1        1.0  0.12129185528952749  0.1350301484009577  0.17246446027390047  1.0000
  H   H2        1.0  0.8787083374950343  0.8649707345302884  0.827534787222092  1.0000
  H   H3        1.0  0.9562834326574858  0.13988861250074078  0.09169922728271018  1.0000
  H   H4        1.0  0.043716771168575995  0.8601122700729391  0.9083007958420023  1.0000
  H   H5        1.0  0.4520713277849636  0.3179586776218102  0.09442921365921109  1.0000
  H   H6        1.0  0.5479274955142515  0.6820412988560774  0.905571044489754  1.0000
  H   H7        1.0  0.6192318350704725  0.2835391633876084  0.17419791429716006  1.0000
  H   H8        1.0  0.3807683797970967  0.7164617188284906  0.8258028844562729  1.0000
  H   H9        1.0  0.49153135989139685  0.37946750823869  0.44836936730776955  1.0000
  H   H10       1.0  0.5084771691729061  0.6205288117557968  0.5516286207525238  1.0000
  H   H11       1.0  0.2503075205325445  0.3502508135098168  0.4545923450529583  1.0000
  H   H12       1.0  0.7496996032903737  0.6497464189694782  0.5454047929542793  1.0000
  H   H13       1.0  0.3282705329478404  0.4954380828864017  0.4667365043594315  1.0000
  H   H14       1.0  0.6717366019165852  0.5045591492353267  0.5332614092765268  1.0000
  H   H15       1.0  0.30465052106991664  0.6800593229060468  0.09686666886275216  1.0000
  H   H16       1.0  0.69534412226119  0.3199415720880978  0.9031328998330607  1.0000
  H   H17       1.0  0.3529454624790347  0.5509369012765362  0.0363129990558591  1.0000
  H   H18       1.0  0.6470505392959182  0.44906490052854753  0.9636847833582606  1.0000
  H   H19       1.0  0.5364881463214958  0.6252356768552331  0.0806395679344263  1.0000
  H   H20       1.0  0.4635078775364648  0.3747661242347035  0.9193597657371342  1.0000
  H   H21       1.0  0.792028561253609  0.9737123493057922  0.4506779429164708  1.0000
  H   H22       1.0  0.20797023733107523  0.02628944575269539  0.5493212301551793  1.0000
  H   H23       1.0  0.0124479220164204  0.9015125593428619  0.44979902218373974  1.0000
  H   H24       1.0  0.9875495002464093  0.09848923837377296  0.5502010068165859  1.0000
  H   H25       1.0  0.8078325769930643  0.8127398408054916  0.46844917387931406  1.0000
  H   H26       1.0  0.19216622159162003  0.18726195425299608  0.5315499991923289  1.0000
  H   H27       1.0  0.0465215532805345  0.8294057534346423  0.08254328104636945  1.0000
  H   H28       1.0  0.9534800447454117  0.17059421701179636  0.9174568165026782  1.0000
  H   H29       1.0  0.8657101423320557  0.932684958804195  0.038060119773888255  1.0000
  H   H30       1.0  0.1342900751670371  0.0673141055464441  0.961940212799419  1.0000
  H   H31       1.0  0.8128083689180771  0.7786827321472527  0.09887593402473975  1.0000
  H   H32       1.0  0.18719324698588483  0.22131632883009184  0.9011250938773256  1.0000
  H   H33       1.0  0.9911756774474727  0.6555825057535785  0.25313935332452075  1.0000
  H   H34       1.0  0.008824555298119196  0.34441746699342696  0.74686237578193  1.0000
  H   H35       1.0  0.9715960796505315  0.5740578218571173  0.38750343152796046  1.0000
  H   H36       1.0  0.0284041667680839  0.4259403326668617  0.6124986070270777  1.0000
  H   H37       1.0  0.7731406116386453  0.5929864315870076  0.3137145146160875  1.0000
  H   H38       1.0  0.22685961690194742  0.4070126324060581  0.6862865935859402  1.0000
  H   H39       1.0  0.7397387595322086  0.36893433100443906  0.3488535691261204  1.0000
  H   H40       1.0  0.2602600679720055  0.6310665542273881  0.6511473099272677  1.0000
  H   H41       1.0  0.9356376469488551  0.35761649704567583  0.4242692807013098  1.0000
  H   H42       1.0  0.0643611789818763  0.6423816615667518  0.5757305112675225  1.0000
  H   H43       1.0  0.10453444132331673  0.229760151436622  0.3132322341008446  1.0000
  H   H44       1.0  0.895461609880698  0.7702380132072547  0.6867677184679052  1.0000
  H   H45       1.0  0.8841965064490936  0.16469608037100866  0.3610051437763814  1.0000
  H   H46       1.0  0.11580091424026048  0.8353029907262338  0.6389937981393954  1.0000
  H   H47       1.0  0.943960009254731  0.35356219740366157  0.0475133553909686  1.0000
  H   H48       1.0  0.056038789329953397  0.6464395976548258  0.9524858176806815  1.0000
  H   H49       1.0  0.14199968069459604  0.34746326714636666  0.12132907054395754  1.0000
  H   H50       1.0  0.857997748404749  0.652537621458755  0.8786711131806653  1.0000
  H   H51       1.0  0.9902348320138402  0.5476875454282106  0.11073932581081178  1.0000
  H   H52       1.0  0.009764013368382493  0.4523124303345157  0.8892624835955939  1.0000
  H   H53       1.0  0.7719759257079629  0.48026527362100774  0.16224890221718619  1.0000
  H   H54       1.0  0.22802428915960601  0.5197356085950915  0.8377518965362468  1.0000
  H   H55       1.0  0.28736030861937684  0.7683255224923112  0.3136812913613554  1.0000
  H   H56       1.0  0.712639879960193  0.23167445168499504  0.6863173352302139  1.0000
  H   H57       1.0  0.4902036169368884  0.7468730325855971  0.38502012140747144  1.0000
  H   H58       1.0  0.5097937858744502  0.2531269479807391  0.6149778901552876  1.0000
  H   H59       1.0  0.5040033065264639  0.7285646072052571  0.2501442174149488  1.0000
  H   H60       1.0  0.49599549889473593  0.2714362787417102  0.7498551103809985  1.0000
  H   H61       1.0  0.28216040746432475  0.9491216916042969  0.1623532549500836  1.0000
  H   H62       1.0  0.717837010593506  0.0508791973583982  0.8376461531458189  1.0000
  H   H63       1.0  0.5026086139384276  0.9014634657306786  0.11028273256619059  1.0000
  H   H64       1.0  0.49739296620949597  0.09853741418484666  0.8897164346298467  1.0000
  H   H65       1.0  0.6472261071256967  0.0933800335927444  0.12205749962375727  1.0000
  H   H66       1.0  0.3527755240247643  0.9066199357809592  0.8779449248114588  1.0000
  H   H67       1.0  0.4482434340116299  0.12517684758525147  0.04890725291595287  1.0000
  H   H68       1.0  0.5517623413509017  0.8748240222103761  0.9510940002663729  1.0000
  H   H69       1.0  0.6083810683178258  0.12406434279996859  0.3144521699677512  1.0000
  H   H70       1.0  0.39161777706439693  0.8759356329627577  0.6855496394386549  1.0000
  H   H71       1.0  0.3845503474408645  0.1707823011027472  0.36344387846349946  1.0000
  H   H72       1.0  0.6154498768947364  0.8292158541363787  0.6365566088341055  1.0000
  H   H73       1.0  0.4468924720330421  0.9481350724677  0.42452284995794537  1.0000
  H   H74       1.0  0.5531063581026886  0.0518639948986674  0.5754775629153173  1.0000
  H   H75       1.0  0.24888974798466992  0.975971148440969  0.3508091759512554  1.0000
  H   H76       1.0  0.7511090532315378  0.02402882875206559  0.6491895309402691  1.0000
  C   C1        1.0  0.35765391908212524  0.4191098825282252  0.4256546250913402  1.0000
  C   C2        1.0  0.6423546099821777  0.5808864374662619  0.5743433629689534  1.0000
  C   C3        1.0  0.3904330533521971  0.5972771867302811  0.09893535170668596  1.0000
  C   C4        1.0  0.609561572100887  0.40272461773295737  0.9010632866361089  1.0000
  C   C5        1.0  0.8719979072800471  0.8980560542548516  0.42547741153781954  1.0000
  C   C6        1.0  0.12800089814115273  0.1019448316921228  0.5745219162581279  1.0000
  C   C7        1.0  0.9014549185740109  0.8563081966096102  0.10070973293269252  1.0000
  C   C8        1.0  0.09854668628845081  0.1436908647253148  0.8992905193406527  1.0000
  C   C9        1.0  0.9252556442340705  0.5778935211589766  0.3082324417896273  1.0000
  C   C10       1.0  0.07474459534802952  0.42210554247651544  0.6917694420411135  1.0000
  C   C11       1.0  0.8929226063814184  0.3600682496837706  0.3443106925972827  1.0000
  C   C12       1.0  0.10707622375431212  0.6399308176825895  0.6556897202759798  1.0000
  C   C13       1.0  0.9533380338071921  0.2430886324831505  0.30851902333540693  1.0000
  C   C14       1.0  0.0466607852870311  0.7569104352407903  0.6914806139091353  1.0000
  C   C15       1.0  0.9886150055538749  0.35305360263367186  0.1268185766872563  1.0000
  C   C16       1.0  0.011383810908831997  0.6469472829557219  0.8731815267374116  1.0000
  C   C17       1.0  0.9245229996816137  0.4688233714835803  0.16433332765917896  1.0000
  C   C18       1.0  0.07547583465910888  0.5311766046367267  0.8356677061185066  1.0000
  C   C19       1.0  0.43946698653643074  0.7818912048601303  0.3070478949787869  1.0000
  C   C20       1.0  0.5605331952066237  0.2181096784286964  0.692950576888485  1.0000
  C   C21       1.0  0.43435167669586866  0.9568538265044775  0.16445146571611954  1.0000
  C   C22       1.0  0.5656485339667158  0.0431461469576817  0.8355487121328905  1.0000
  C   C23       1.0  0.49392723874949246  0.08837760901369758  0.127990012828846  1.0000
  C   C24       1.0  0.5060743771544695  0.911621451963647  0.8720110150732197  1.0000
  C   C25       1.0  0.457258410575605  0.1157426191813116  0.3102523007724471  1.0000
  C   C26       1.0  0.5427418069234875  0.8842564451693349  0.6897480318008603  1.0000
  C   C27       1.0  0.4018323760693505  0.98353951925845  0.3451550691036188  1.0000
  C   C28       1.0  0.5981664361883646  0.016460457577011298  0.6548444134166259  1.0000
  N   N1        1.0  0.9782224331495328  0.46557400167825586  0.27151907804833536  1.0000
  N   N2        1.0  0.021776408027705002  0.5344250653305379  0.7284821104536403  1.0000
  N   N3        1.0  0.9066638223524209  0.24609143723939295  0.19974359012931583  1.0000
  N   N4        1.0  0.09333498306877891  0.7539094487075815  0.8002557376666317  1.0000
  N   N5        1.0  0.9781048817487347  0.13510099449489127  0.16987519596687406  1.0000
  N   N6        1.0  0.021893923672465093  0.8648998914520831  0.8301241318290734  1.0000
  N   N7        1.0  0.4890166830244524  0.909736293055431  0.27137941947164274  1.0000
  N   N8        1.0  0.5109835165966173  0.0902636807643091  0.7286199827486468  1.0000
  N   N9        1.0  0.4092007016902812  0.1634053660849375  0.20172636643983569  1.0000
  N   N10       1.0  0.590799508972296  0.8365946073772221  0.7982738114091744  1.0000
  N   N11       1.0  0.47563921063257913  0.2866654649638817  0.17235954577301976  1.0000
  N   N12       1.0  0.5243624094763747  0.7133345047674025  0.8276421030334757  1.0000
