data_image0
_chemical_formula_structural       Ag4Mo8H24C32N8O26
_chemical_formula_sum              "Ag4 Mo8 H24 C32 N8 O26"
_cell_length_a       8.22019833137526
_cell_length_b       12.267743033946093
_cell_length_c       12.740404317935461
_cell_angle_alpha    112.33379225751834
_cell_angle_beta     96.00660091652924
_cell_angle_gamma    102.09277054613503

_space_group_name_H-M_alt    "P 1"
_space_group_IT_number       1

loop_
  _space_group_symop_operation_xyz
  'x, y, z'

loop_
  _atom_site_type_symbol
  _atom_site_label
  _atom_site_symmetry_multiplicity
  _atom_site_fract_x
  _atom_site_fract_y
  _atom_site_fract_z
  _atom_site_occupancy
  Ag  Ag1       1.0  0.2799136167414886  0.07870346427326781  0.5304609534681434  1.0000
  Ag  Ag2       1.0  0.7200885254317912  0.921296061793399  0.4695398777326293  1.0000
  Ag  Ag3       1.0  0.15525604364277265  0.48817911393854996  0.07088842637564607  1.0000
  Ag  Ag4       1.0  0.8447439907164594  0.511821325904812  0.9291118169675845  1.0000
  Mo  Mo1       1.0  0.4243438950238528  0.33065204511599694  0.22970601129910764  1.0000
  Mo  Mo2       1.0  0.5756558001433734  0.6693474794683071  0.77029465935145  1.0000
  Mo  Mo3       1.0  0.5617809990677217  0.3631521257175194  0.4845109526730767  1.0000
  Mo  Mo4       1.0  0.43821991545578953  0.636847399366225  0.5154890129840555  1.0000
  Mo  Mo5       1.0  0.8301029995672592  0.33268399555515066  0.24031212659816256  1.0000
  Mo  Mo6       1.0  0.1698951246114291  0.6673146125454325  0.7596873205475563  1.0000
  Mo  Mo7       1.0  0.16919889196373814  0.37267548555138313  0.4819838837993801  1.0000
  Mo  Mo8       1.0  0.8308023741920109  0.6273249555166347  0.5180180103560164  1.0000
  H   H1        1.0  0.006292046102899515  0.24482828896174175  0.021478793120550704  1.0000
  H   H2        1.0  0.9937050085715171  0.7551739799014073  0.9785227105883013  1.0000
  H   H3        1.0  0.8684144515079808  0.021045928546264702  0.9441008265321645  1.0000
  H   H4        1.0  0.13158470683373483  0.9789554262984553  0.05590047976569684  1.0000
  H   H5        1.0  0.9187269674912882  0.8784153323962939  0.7591318731240194  1.0000
  H   H6        1.0  0.08127184751166538  0.1215851069476201  0.24086907521263615  1.0000
  H   H7        1.0  0.10722333638177882  0.9570006218217915  0.6483195769201588  1.0000
  H   H8        1.0  0.8927766979774531  0.042999818021570504  0.35168066642307144  1.0000
  H   H9        1.0  0.41520372022637986  0.34563175631858206  0.7033283368963554  1.0000
  H   H10       1.0  0.5847971942971313  0.6543677687651624  0.29667162876077685  1.0000
  H   H11       1.0  0.35969035317684467  0.48893238818796897  0.8854107552908703  1.0000
  H   H12       1.0  0.6403096770356528  0.5110680514136519  0.1145887027838271  1.0000
  H   H13       1.0  0.45728844542036035  0.08486561969304061  0.35225668427190737  1.0000
  H   H14       1.0  0.5427140400916812  0.9151348218744247  0.6477445048900637  1.0000
  H   H15       1.0  0.5790936431459742  0.058133072652360306  0.17573677446953445  1.0000
  H   H16       1.0  0.4209039400604625  0.9418673654668983  0.8242625230549625  1.0000
  H   H17       1.0  0.5175783170626431  0.8523389109798035  0.013996029872274173  1.0000
  H   H18       1.0  0.4824192619970518  0.14766152689772136  0.9860024823836897  1.0000
  H   H19       1.0  0.3322045058588259  0.6706520733980597  0.026470962391478288  1.0000
  H   H20       1.0  0.6677946358959089  0.3293492804797041  0.9735272028322586  1.0000
  H   H21       1.0  0.05584666718665698  0.6094479604600596  0.30599722650192274  1.0000
  H   H22       1.0  0.9441575703604387  0.39055065110468956  0.6940018367507934  1.0000
  H   H23       1.0  0.11158659137432642  0.8162876692991434  0.46688549870147983  1.0000
  H   H24       1.0  0.8884160793309803  0.1837100260236326  0.5331131263149232  1.0000
  C   C1        1.0  0.1327790038137451  0.22826342271229558  0.8777570676862825  1.0000
  C   C2        1.0  0.8672234858450382  0.7717370190969036  0.12224490674421418  1.0000
  C   C3        1.0  0.026865382451106295  0.181376300448477  0.9399436358520392  1.0000
  C   C4        1.0  0.973135003540378  0.8186250553791582  0.06005853598945529  1.0000
  C   C5        1.0  0.951631005488814  0.05733563689033621  0.8971298545082721  1.0000
  C   C6        1.0  0.04836692520312622  0.9426657169714616  0.10287058624595609  1.0000
  C   C7        1.0  0.9800278999593459  0.9759472143521963  0.7915234464386035  1.0000
  C   C8        1.0  0.019968463890805296  0.024053223267621604  0.20847655607931165  1.0000
  C   C9        1.0  0.0838158862023022  0.0190291622369116  0.7295148782637997  1.0000
  C   C10       1.0  0.9161820486363795  0.9809721918666199  0.2704863477589542  1.0000
  C   C11       1.0  0.16225301244782034  0.1456328576027275  0.7705815357903136  1.0000
  C   C12       1.0  0.8377466868661472  0.8543666672233103  0.22941992012877693  1.0000
  C   C13       1.0  0.33443425528742676  0.30980613123141143  0.7518695533746114  1.0000
  C   C14       1.0  0.6655666633828262  0.6901933940940665  0.2481311975510466  1.0000
  C   C15       1.0  0.30447399849420975  0.39089070022468064  0.8561916739297718  1.0000
  C   C16       1.0  0.6955281436790699  0.6091088258419789  0.1438091572709937  1.0000
  C   C17       1.0  0.32810768046102373  0.8930957279345153  0.2901899014120277  1.0000
  C   C18       1.0  0.6718944575655144  0.10690379789041063  0.709810144520205  1.0000
  C   C19       1.0  0.431468961420599  0.9950369977986641  0.280771511820504  1.0000
  C   C20       1.0  0.568530733746627  0.0049625267856399004  0.7192291588300534  1.0000
  C   C21       1.0  0.4981266332897646  0.9796654697512892  0.18271446528319776  1.0000
  C   C22       1.0  0.5018697222668962  0.020334967385046802  0.8172839666976588  1.0000
  C   C23       1.0  0.4636861358745961  0.8624783264763353  0.09062315404473512  1.0000
  C   C24       1.0  0.5363114431850988  0.1375221114011893  0.9093753582112215  1.0000
  C   C25       1.0  0.3628558367284355  0.7614484181863687  0.09762745398609247  1.0000
  C   C26       1.0  0.6371384068674432  0.2385529324849358  0.9023696048687031  1.0000
  C   C27       1.0  0.2935619394318394  0.774077809695264  0.19700869301290427  1.0000
  C   C28       1.0  0.7064389667981815  0.2259217149050059  0.8029897021071621  1.0000
  C   C29       1.0  0.13230778568696874  0.6896989517633186  0.2993783828475359  1.0000
  C   C30       1.0  0.8676952242103511  0.31029965881851507  0.7006198148615398  1.0000
  C   C31       1.0  0.16591943683268792  0.8066876904134406  0.39068895686602206  1.0000
  C   C32       1.0  0.8340811260585712  0.19331091868603073  0.6093090802928388  1.0000
  N   N1        1.0  0.26279535763742246  0.19017588307625743  0.7087466551332896  1.0000
  N   N2        1.0  0.737206788682606  0.8098236432321428  0.2912549613360085  1.0000
  N   N3        1.0  0.20371986894078023  0.35173584580805795  0.9168877462362561  1.0000
  N   N4        1.0  0.7962822815259898  0.648263680742076  0.08311465550156785  1.0000
  N   N5        1.0  0.1936219607719991  0.673865732875207  0.20415978657405282  1.0000
  N   N6        1.0  0.8063805122998106  0.326134707967043  0.7958390467823195  1.0000
  N   N7        1.0  0.25911259027981987  0.906685268951961  0.386369647722532  1.0000
  N   N8        1.0  0.7408883200969428  0.09331425589004991  0.6136295326660673  1.0000
  O   O1        1.0  0.3329877287087655  0.31759712717318683  0.3611711158271832  1.0000
  O   O2        1.0  0.6670131858147458  0.6824023979105578  0.6388288498299489  1.0000
  O   O3        1.0  0.33649478679351563  0.4368831861659004  0.20466140881066516  1.0000
  O   O4        1.0  0.663500898672602  0.5631154209357945  0.7953394483219044  1.0000
  O   O5        1.0  0.14809631907012744  0.2379564647481658  0.5008005228312626  1.0000
  O   O6        1.0  0.8519030244648464  0.7620421438518649  0.49919821932103065  1.0000
  O   O7        1.0  0.7600371268408355  0.46588904777340917  0.5641176681454569  1.0000
  O   O8        1.0  0.2399629033716623  0.5341113918282121  0.43588178992924065  1.0000
  O   O9        1.0  0.8831585990761609  0.5288871667514955  0.393715605890087  1.0000
  O   O10       1.0  0.11684143113633644  0.4711132728501327  0.6062838521846106  1.0000
  O   O11       1.0  0.7856222420904615  0.18172906940493766  0.1465122472812866  1.0000
  O   O12       1.0  0.2143758820882269  0.8182695386956456  0.8534871998644392  1.0000
  O   O13       1.0  0.9695472349613469  0.40637548222046865  0.1806022939160884  1.0000
  O   O14       1.0  0.030452456059137527  0.5936240421220945  0.8193975914659435  1.0000
  O   O15       1.0  0.5339049268744277  0.24274141266857896  0.5260729413790274  1.0000
  O   O16       1.0  0.4660959876490765  0.7572581124151656  0.47392702427810485  1.0000
  O   O17       1.0  0.6334430331385832  0.37340435436117053  0.1824543527235606  1.0000
  O   O18       1.0  0.3665570012206558  0.6265960854821914  0.8175458906196696  1.0000
  O   O19       1.0  0.9802470840324344  0.3243397508278747  0.36464809513839214  1.0000
  O   O20       1.0  0.01975416968308961  0.6756606895149275  0.6353514432114127  1.0000
  O   O21       1.0  0.41856788289139496  0.4555474335505139  0.5689507176665815  1.0000
  O   O22       1.0  0.5814339076496398  0.5444511765318724  0.43104818503592685  1.0000
  O   O23       1.0  0.3206353542707987  0.1908531332003776  0.12009938216814224  1.0000
  O   O24       1.0  0.6793652127672093  0.8091454761408275  0.8798994402592587  1.0000
  O   O25       1.0  0.6216965793766177  0.3010594887715571  0.3372856643551146  1.0000
  O   O26       1.0  0.3783031116438593  0.6989400355710061  0.6627142210269101  1.0000
