data_image0
_chemical_formula_structural       Ni4H32C40N4O20
_chemical_formula_sum              "Ni4 H32 C40 N4 O20"
_cell_length_a       5.798535927084685
_cell_length_b       8.065477434204244
_cell_length_c       27.613101613087203
_cell_angle_alpha    90.00248844048092
_cell_angle_beta     89.99898151541687
_cell_angle_gamma    89.99839853000182

_space_group_name_H-M_alt    "P 1"
_space_group_IT_number       1

loop_
  _space_group_symop_operation_xyz
  'x, y, z'

loop_
  _atom_site_type_symbol
  _atom_site_label
  _atom_site_symmetry_multiplicity
  _atom_site_fract_x
  _atom_site_fract_y
  _atom_site_fract_z
  _atom_site_occupancy
  Ni  Ni1       1.0  0.5210709702188155  0.2537417772055051  0.7177034555588548  1.0000
  Ni  Ni2       1.0  0.4788985862197138  0.2535650332720749  0.2822901593655729  1.0000
  Ni  Ni3       1.0  0.9789486930328408  0.7462637222522233  0.21770228520779963  1.0000
  Ni  Ni4       1.0  0.0210734657135063  0.7464367061788836  0.7822936076600866  1.0000
  H   H1        1.0  0.6342696021726084  0.44379731447833143  0.5447257016460512  1.0000
  H   H2        1.0  0.36571744020561425  0.4437461306843389  0.4552687607464634  1.0000
  H   H3        1.0  0.8657278658046226  0.5561827118916652  0.0447189019174985  1.0000
  H   H4        1.0  0.1342681854708303  0.5562426454535584  0.955267814041484  1.0000
  H   H5        1.0  0.4347234510535004  0.37096492906595563  0.84087485298096  1.0000
  H   H6        1.0  0.5652450724628792  0.37073470143499077  0.1591186145140639  1.0000
  H   H7        1.0  0.06528819738100822  0.6290774102429709  0.3408692412574723  1.0000
  H   H8        1.0  0.9347643128816757  0.6292252371674891  0.6591235400115066  1.0000
  H   H9        1.0  0.17905343961615472  0.14335792996122623  0.6064533012014692  1.0000
  H   H10       1.0  0.8209710477237377  0.1432452702920344  0.39356326833426886  1.0000
  H   H11       1.0  0.320960272193375  0.8566335602427771  0.10645428851168497  1.0000
  H   H12       1.0  0.6790017675683943  0.8567841244381782  0.8935664530798417  1.0000
  H   H13       1.0  0.4299700640984483  0.4204994376538878  0.6248168285959322  1.0000
  H   H14       1.0  0.5700741009577969  0.42039456722618246  0.37518490664182735  1.0000
  H   H15       1.0  0.0700443478947932  0.5794816643661421  0.1248070278291564  1.0000
  H   H16       1.0  0.9298980271420235  0.5796030534783654  0.8751821932797055  1.0000
  H   H17       1.0  0.9483806659382809  0.1302721298688923  0.6821779004950344  1.0000
  H   H18       1.0  0.05164297214341221  0.1301181152696671  0.3178401341063903  1.0000
  H   H19       1.0  0.5516592766530479  0.8696974837785091  0.18217787176401856  1.0000
  H   H20       1.0  0.44827774073021226  0.869912080669316  0.817849009603897  1.0000
  H   H21       1.0  0.2373928031717725  0.283880297474326  0.5248722281220849  1.0000
  H   H22       1.0  0.7626218188521037  0.2838445120172111  0.4751380080091181  1.0000
  H   H23       1.0  0.2625800385174771  0.7161018497303148  0.024875855340191298  1.0000
  H   H24       1.0  0.7373608281494485  0.71616942743767  0.9751360091922976  1.0000
  H   H25       1.0  0.6450262705276159  0.12954374787828024  0.8610425194833906  1.0000
  H   H26       1.0  0.3549731797365682  0.12929667967024022  0.1389548734776156  1.0000
  H   H27       1.0  0.8550287813974294  0.8705461621053061  0.3610267820853109  1.0000
  H   H28       1.0  0.14506006305663993  0.8706504009074579  0.6389573664532335  1.0000
  H   H29       1.0  0.8729143214748163  0.2629629888553069  0.8432259816423765  1.0000
  H   H30       1.0  0.1271058432299697  0.2627072702957634  0.15676436291238355  1.0000
  H   H31       1.0  0.6271172694696503  0.7371015258509105  0.3432254446557081  1.0000
  H   H32       1.0  0.37294740850345687  0.7372416495683112  0.6567726330613508  1.0000
  C   C1        1.0  0.9223853897031518  0.28963574823928445  0.5677300581092055  1.0000
  C   C2        1.0  0.07760718712319202  0.2895775314890159  0.43227292763901193  1.0000
  C   C3        1.0  0.5776167985746169  0.7103477388155068  0.0677253132066369  1.0000
  C   C4        1.0  0.4223668138240484  0.7104226657793477  0.9322742459877416  1.0000
  C   C5        1.0  0.7082182306047073  0.3694712327352363  0.5738293340079891  1.0000
  C   C6        1.0  0.2917881439906509  0.3694288095218354  0.4261605141541267  1.0000
  C   C7        1.0  0.7917974241610183  0.6305029993060244  0.0738274918794772  1.0000
  C   C8        1.0  0.2082034387387068  0.6305670000208252  0.9261645628425867  1.0000
  C   C9        1.0  0.5358120015148629  0.3206655381405312  0.8102299279965306  1.0000
  C   C10       1.0  0.4641929312911159  0.3204473605035788  0.1897596195066455  1.0000
  C   C11       1.0  0.9642055355276185  0.6793626414199067  0.310228911358564  1.0000
  C   C12       1.0  0.0358002176681751  0.6795093801845625  0.6897670655166265  1.0000
  C   C13       1.0  0.011597225077828502  0.2045510094791041  0.6077694535611255  1.0000
  C   C14       1.0  0.9884501935262194  0.20440576568822175  0.39225029857144017  1.0000
  C   C15       1.0  0.4884053241157532  0.7954408918975986  0.10777021994259428  1.0000
  C   C16       1.0  0.5115096366715761  0.7956306598499837  0.8922600139503983  1.0000
  C   C17       1.0  0.5941133917374941  0.35921013173803823  0.6178631021295543  1.0000
  C   C18       1.0  0.40589748988205804  0.3591356410214317  0.38213038047402387  1.0000
  C   C19       1.0  0.9059112042231733  0.6407580056138543  0.11785807974002438  1.0000
  C   C20       1.0  0.09406273230390379  0.6408625443666622  0.8821296160265674  1.0000
  C   C21       1.0  0.8861803566315347  0.19694502113290469  0.6505755757064264  1.0000
  C   C22       1.0  0.1138544981922891  0.1967938079930107  0.3494409265502512  1.0000
  C   C23       1.0  0.6138343229950252  0.8030333273551165  0.1505743301116098  1.0000
  C   C24       1.0  0.38607768344854787  0.8032425308791106  0.8494479269569621  1.0000
  C   C25       1.0  0.7980946202202475  0.0717527733270131  0.7924556188492176  1.0000
  C   C26       1.0  0.20191143632155223  0.07154954625661962  0.20754148469702466  1.0000
  C   C27       1.0  0.7019201306218436  0.9282735778986008  0.2924527047549573  1.0000
  C   C28       1.0  0.2981034675667047  0.9284226614592938  0.7075422349016094  1.0000
  C   C29       1.0  0.0495120382385608  0.29282736090514305  0.5221118847813884  1.0000
  C   C30       1.0  0.9504910941616985  0.2927996736779903  0.4778896484499952  1.0000
  C   C31       1.0  0.45048148621146566  0.7071712808580417  0.022108750253018197  1.0000
  C   C32       1.0  0.5494984700208931  0.7071990066630602  0.9778900886365063  1.0000
  C   C33       1.0  0.7175684042607529  0.19767358192005702  0.8302078338733521  1.0000
  C   C34       1.0  0.282480299118518  0.19747619534309285  0.1697883874051698  1.0000
  C   C35       1.0  0.7824747003965697  0.802364550980812  0.3302019688240775  1.0000
  C   C36       1.0  0.2175804079339656  0.8024978663971752  0.6697942159744981  1.0000
  C   C37       1.0  0.6612491418668968  0.4639516989347002  0.7852509116449793  1.0000
  C   C38       1.0  0.33871160600423883  0.4637629597948631  0.21475040601298184  1.0000
  C   C39       1.0  0.8387459288639364  0.5360711638087281  0.28524396387341255  1.0000
  C   C40       1.0  0.16127986138181433  0.5362288574828328  0.7147558149067023  1.0000
  N   N1        1.0  0.6813054460168644  0.272710777198526  0.6554494411634834  1.0000
  N   N2        1.0  0.3187222486470418  0.27259130356416966  0.3445539284083097  1.0000
  N   N3        1.0  0.8187062155136858  0.7272728118150057  0.15544583856079436  1.0000
  N   N4        1.0  0.18124055315310267  0.7274199513266312  0.8445587689898488  1.0000
  O   O1        1.0  0.3844762123634808  0.24431222494411736  0.7777511372990062  1.0000
  O   O2        1.0  0.61549790676672  0.2441351936059135  0.2222435759729393  1.0000
  O   O3        1.0  0.11555039070925942  0.7556905743173841  0.2777470880379198  1.0000
  O   O4        1.0  0.8844947999437168  0.7558717240511826  0.7222433609915554  1.0000
  O   O5        1.0  0.787591199860785  0.10087652970482712  0.7478694146187054  1.0000
  O   O6        1.0  0.21238225139627792  0.1007025648433171  0.2521305491267825  1.0000
  O   O7        1.0  0.7124166782385757  0.8991210264275652  0.24786058908306063  1.0000
  O   O8        1.0  0.2875998595999079  0.8992810814392912  0.7521311278445991  1.0000
  O   O9        1.0  0.7498299235234925  0.5803234619472163  0.8091983212616185  1.0000
  O   O10       1.0  0.25010559491434486  0.5801077366079995  0.19079705543018113  1.0000
  O   O11       1.0  0.750124443844193  0.41972175589643257  0.3091973663843888  1.0000
  O   O12       1.0  0.24990415666356816  0.4198704053606265  0.6908083531339457  1.0000
  O   O13       1.0  0.6752372011504093  0.4482362648569875  0.738914360400443  1.0000
  O   O14       1.0  0.32473115369984373  0.4480295411045176  0.2610790098799711  1.0000
  O   O15       1.0  0.8247744972459613  0.5517733755834088  0.23891363404324295  1.0000
  O   O16       1.0  0.1752333402469688  0.5519680587832242  0.7610879355185958  1.0000
  O   O17       1.0  0.8768658797656029  0.9378925580294748  0.8117506822151839  1.0000
  O   O18       1.0  0.12312901551466383  0.9377114272508253  0.18823591588525795  1.0000
  O   O19       1.0  0.6231386445408732  0.06213485616149231  0.3117454833297443  1.0000
  O   O20       1.0  0.37687887385421703  0.062244837308476506  0.6882433028520152  1.0000
