data_image0
_chemical_formula_structural       Zn2H7C36N2Cl17O8
_chemical_formula_sum              "Zn2 H7 C36 N2 Cl17 O8"
_cell_length_a       10.903470935806538
_cell_length_b       16.83311184177059
_cell_length_c       17.6909838467793
_cell_angle_alpha    96.54907202321733
_cell_angle_beta     90.67082436179645
_cell_angle_gamma    90.4294939153771

_space_group_name_H-M_alt    "P 1"
_space_group_IT_number       1

loop_
  _space_group_symop_operation_xyz
  'x, y, z'

loop_
  _atom_site_type_symbol
  _atom_site_label
  _atom_site_symmetry_multiplicity
  _atom_site_fract_x
  _atom_site_fract_y
  _atom_site_fract_z
  _atom_site_occupancy
  Zn  Zn1       1.0  0.49965363581785033  0.40803915403645874  0.4862083556829474  1.0000
  Zn  Zn2       1.0  0.5042567088224317  0.5866183261898714  0.5030106526514828  1.0000
  H   H1        1.0  0.5028401724308083  0.0029620673718682004  0.6022810995396098  1.0000
  H   H2        1.0  0.4871913678457106  0.9904817328481813  0.42744664710907887  1.0000
  H   H3        1.0  0.3931308580676216  0.44950081011230486  0.9987874890249414  1.0000
  H   H4        1.0  0.6028732439708975  0.5716675105678491  0.9942584049423002  1.0000
  H   H5        1.0  0.8854907082461877  0.3635844205035355  0.4397574393754765  1.0000
  H   H6        1.0  0.8871103853231405  0.6039645516115968  0.5511178541014488  1.0000
  H   H7        1.0  0.1159762194689762  0.36470950313410805  0.44397616696657843  1.0000
  C   C1        1.0  0.5032410126868926  0.5084259416776007  0.35005363408181006  1.0000
  C   C2        1.0  0.26845685822737414  0.48066610731311965  0.49596157378741884  1.0000
  C   C3        1.0  0.4977385231608623  0.5152596135223461  0.641540974355955  1.0000
  C   C4        1.0  0.7355034072892224  0.48462007829034826  0.4931592044146597  1.0000
  C   C5        1.0  0.4176192601316657  0.7572157911138647  0.4764337667335923  1.0000
  C   C6        1.0  0.4105102165058057  0.841312029325394  0.4832598110634692  1.0000
  C   C7        1.0  0.4915942518972685  0.8876277712325803  0.5332626274702079  1.0000
  C   C8        1.0  0.5738216205352913  0.8458293601615666  0.5760437209631135  1.0000
  C   C9        1.0  0.5759495461243418  0.7618449445144224  0.5655955370476491  1.0000
  C   C10       1.0  0.49500048349533193  0.9754315093822471  0.5435903124922203  1.0000
  C   C11       1.0  0.49531574607755163  0.020332412504274103  0.4853649946541907  1.0000
  C   C12       1.0  0.4346883491418226  0.1453058847636512  0.43503125958260813  1.0000
  C   C13       1.0  0.5011398498822573  0.10765175026966033  0.4898830770308534  1.0000
  C   C14       1.0  0.5737770493716711  0.15779297905961445  0.542232164555159  1.0000
  C   C15       1.0  0.5760243771342742  0.24100332899769236  0.5381161713138524  1.0000
  C   C16       1.0  0.4420784330463973  0.2285388421092946  0.43481672588794845  1.0000
  C   C17       1.0  0.49702989272740444  0.5068651715176743  0.264421939163249  1.0000
  C   C18       1.0  0.3835343613051023  0.5126327134605048  0.22797195724295694  1.0000
  C   C19       1.0  0.37663319264837725  0.5085238338307506  0.1484951354743558  1.0000
  C   C20       1.0  0.4828060884316089  0.49924233784114613  0.1033613086054217  1.0000
  C   C21       1.0  0.5969366042406535  0.49419463243539496  0.14113088019672657  1.0000
  C   C22       1.0  0.6032916415047184  0.49774254375262933  0.22092508958824908  1.0000
  C   C23       1.0  0.46643190802618056  0.49071995714434297  0.020206464678992102  1.0000
  C   C24       1.0  0.5298904642395145  0.5307054696708633  0.9716340343229887  1.0000
  C   C25       1.0  0.6223415860791732  0.5312767465858101  0.8448328141244585  1.0000
  C   C26       1.0  0.5156197125224509  0.5236205156675524  0.8885558128313418  1.0000
  C   C27       1.0  0.402312610108332  0.5125556852910407  0.8485460039945707  1.0000
  C   C28       1.0  0.3971985588134359  0.5087098430917437  0.7687573882848753  1.0000
  C   C29       1.0  0.503716679739739  0.5167367673614862  0.7270635599020564  1.0000
  C   C30       1.0  0.6164339749682881  0.5276596603553046  0.7653380412739564  1.0000
  C   C31       1.0  0.1311965038146852  0.48434862096889475  0.4990863426064535  1.0000
  C   C32       1.0  0.872843646796639  0.4840603777080475  0.4945470591419365  1.0000
  C   C33       1.0  0.06529260487764793  0.5517633302872157  0.5302994990757454  1.0000
  C   C34       1.0  0.9368735017327907  0.41604879441686654  0.4646161043182672  1.0000
  C   C35       1.0  0.9373885186314014  0.5515400327078127  0.5273437791177215  1.0000
  C   C36       1.0  0.0641985816865898  0.4168567559464265  0.4670618767437772  1.0000
  N   N1        1.0  0.4993923761640674  0.7187458864982619  0.5163952705952539  1.0000
  N   N2        1.0  0.5100275717048889  0.27527824748167273  0.48613108100020946  1.0000
  Cl  Cl1       1.0  0.6794525908041322  0.7124378729478881  0.6151570928754494  1.0000
  Cl  Cl2       1.0  0.6747225650262294  0.8979585778471703  0.638558476963169  1.0000
  Cl  Cl3       1.0  0.32066240533467305  0.7014271813651193  0.4157270181782877  1.0000
  Cl  Cl4       1.0  0.29990564192726776  0.884834421443749  0.4324551208814781  1.0000
  Cl  Cl5       1.0  0.6645715908198753  0.1196758020756761  0.6088880302406705  1.0000
  Cl  Cl6       1.0  0.6665668495854788  0.30074438139427434  0.5999143119610578  1.0000
  Cl  Cl7       1.0  0.3432811524990811  0.0894857588350106  0.3692018080965127  1.0000
  Cl  Cl8       1.0  0.36538274892499356  0.2734065853754047  0.3670398542558218  1.0000
  Cl  Cl9       1.0  0.7416944431495696  0.489071116239856  0.2671702130483808  1.0000
  Cl  Cl10      1.0  0.7299440148038556  0.4793759306506474  0.09014719195299388  1.0000
  Cl  Cl11      1.0  0.2529695017687175  0.5241131454258793  0.28203224448707687  1.0000
  Cl  Cl12      1.0  0.23615706109229967  0.5163480923444157  0.10455199488019672  1.0000
  Cl  Cl13      1.0  0.2659482064000329  0.5076689384912144  0.8959479932030945  1.0000
  Cl  Cl14      1.0  0.2595529965152963  0.4951518902955173  0.7201276587096996  1.0000
  Cl  Cl15      1.0  0.763399283871223  0.543683516774941  0.8897786904097699  1.0000
  Cl  Cl16      1.0  0.7475620505575054  0.5356203052906852  0.7129682328328569  1.0000
  Cl  Cl17      1.0  0.1356946204835552  0.6364624835237508  0.5769647344479054  1.0000
  O   O1        1.0  0.4870578524643109  0.44180664954721044  0.3749750961529088  1.0000
  O   O2        1.0  0.5222247388361226  0.5763828550708684  0.387384046281987  1.0000
  O   O3        1.0  0.3262367800701611  0.5452758823932059  0.49066742908220806  1.0000
  O   O4        1.0  0.3160020495181969  0.4114879191005302  0.4962099027005634  1.0000
  O   O5        1.0  0.48419672709678  0.5827932647445452  0.6174266992658273  1.0000
  O   O6        1.0  0.5085155771750037  0.4476965708991472  0.603313872092059  1.0000
  O   O7        1.0  0.6819725218339912  0.41715038539091864  0.476194915418489  1.0000
  O   O8        1.0  0.6836463045563974  0.5515576860365385  0.5098047123404114  1.0000
