data_image0
_chemical_formula_structural       H72Pb6C72S24O24
_chemical_formula_sum              "H72 Pb6 C72 S24 O24"
_cell_length_a       12.277260688421524
_cell_length_b       16.947857062098304
_cell_length_c       16.947810008722662
_cell_angle_alpha    107.55945130879522
_cell_angle_beta     101.845126334891
_cell_angle_gamma    101.84521275612329

_space_group_name_H-M_alt    "P 1"
_space_group_IT_number       1

loop_
  _space_group_symop_operation_xyz
  'x, y, z'

loop_
  _atom_site_type_symbol
  _atom_site_label
  _atom_site_symmetry_multiplicity
  _atom_site_fract_x
  _atom_site_fract_y
  _atom_site_fract_z
  _atom_site_occupancy
  H   H1        1.0  0.17245928030273916  0.8337233385161227  0.4617700468561667  1.0000
  H   H2        1.0  0.3275387061215085  0.5382284624152617  0.16627679036769652  1.0000
  H   H3        1.0  0.8275396915075744  0.1662775247854853  0.5382285730492669  1.0000
  H   H4        1.0  0.672458422868793  0.46176982077758305  0.8337219576882617  1.0000
  H   H5        1.0  0.2613100332306145  0.8229473027925067  0.5535361759985166  1.0000
  H   H6        1.0  0.23868881548164472  0.44646189459689384  0.17705319613782688  1.0000
  H   H7        1.0  0.7386903593007543  0.1770529081754617  0.4464606937135187  1.0000
  H   H8        1.0  0.7613102277305186  0.5535370305062982  0.822946034260383  1.0000
  H   H9        1.0  0.2855670507596457  0.9261649646047728  0.5413053695788578  1.0000
  H   H10       1.0  0.2144313798884312  0.4586931623504924  0.07383495631345484  1.0000
  H   H11       1.0  0.714432501182756  0.07383525076075872  0.45869314421084084  1.0000
  H   H12       1.0  0.7855668318724155  0.5413057647612759  0.9261641486759162  1.0000
  H   H13       1.0  0.24626476095411926  0.21171947571400548  0.5108878785271145  1.0000
  H   H14       1.0  0.25373546136327  0.4891103910935185  0.7882798875930066  1.0000
  H   H15       1.0  0.7537358798505946  0.7882813819777892  0.48910981253833086  1.0000
  H   H16       1.0  0.7462640844873576  0.5108898258646802  0.21171980585435798  1.0000
  H   H17       1.0  0.20081844911570812  0.30766414345382037  0.5387944391121309  1.0000
  H   H18       1.0  0.29918017358355087  0.46120583246670316  0.6923344944864597  1.0000
  H   H19       1.0  0.7991802591918354  0.6923360771056151  0.46120630858405326  1.0000
  H   H20       1.0  0.7008193722670767  0.5387943844914885  0.3076651989608976  1.0000
  H   H21       1.0  0.11123938641352987  0.21571784439947086  0.4465527816885456  1.0000
  H   H22       1.0  0.38876023985601177  0.553446437630484  0.7842820862046056  1.0000
  H   H23       1.0  0.8887604138022169  0.7842830176898944  0.5534465534545562  1.0000
  H   H24       1.0  0.6112393059946157  0.44655377932771506  0.2157176072427519  1.0000
  H   H25       1.0  0.3816586854577935  0.857952574742754  0.7450114664591255  1.0000
  H   H26       1.0  0.11834379566956697  0.25498909809849113  0.1420477118489174  1.0000
  H   H27       1.0  0.6183395293489439  0.1420463515726809  0.25498704870141614  1.0000
  H   H28       1.0  0.8816581700872702  0.7450130518287282  0.8579523371610168  1.0000
  H   H29       1.0  0.4563482325095762  0.9001815980024048  0.679536678966244  1.0000
  H   H30       1.0  0.04365085315532011  0.32046211402427366  0.09981755639778814  1.0000
  H   H31       1.0  0.5436485676678797  0.09981797905401633  0.3204624067300231  1.0000
  H   H32       1.0  0.9563497815576265  0.6795387452601885  0.9001813143253301  1.0000
  H   H33       1.0  0.3869161723814258  0.9655768615383735  0.7446480671410997  1.0000
  H   H34       1.0  0.11308473385907546  0.25535276860930617  0.03442387563417532  1.0000
  H   H35       1.0  0.6130836247884375  0.03442400134732541  0.2553518578308385  1.0000
  H   H36       1.0  0.8869158947621043  0.7446480922678163  0.9655761747466017  1.0000
  H   H37       1.0  0.27258313448307087  0.1115647682755636  0.0880502480578471  1.0000
  H   H38       1.0  0.22741643367129424  0.9119503972768469  0.8884351202984463  1.0000
  H   H39       1.0  0.7274153255511209  0.8884348055600385  0.911949678284934  1.0000
  H   H40       1.0  0.7725850233553118  0.08805046238803982  0.11156564532000598  1.0000
  H   H41       1.0  0.2872339182014371  0.21919747066127118  0.08868458941707051  1.0000
  H   H42       1.0  0.21276602535066053  0.9113155817569663  0.7808024756937899  1.0000
  H   H43       1.0  0.7127681220031403  0.7808027402711983  0.9113154802568033  1.0000
  H   H44       1.0  0.7872332691807313  0.08868398927373279  0.2191969862290009  1.0000
  H   H45       1.0  0.2641200447374814  0.13459841913019938  0.9894936334457185  1.0000
  H   H46       1.0  0.2358787335225188  0.010506176371478701  0.8654006748814853  1.0000
  H   H47       1.0  0.7358792497939105  0.8654011519004926  0.010505828477065006  1.0000
  H   H48       1.0  0.7641208153739923  0.9894940397903866  0.1345984287370429  1.0000
  H   H49       1.0  0.7918226418888777  0.9383643809871106  0.5450594002485192  1.0000
  H   H50       1.0  0.708177252751689  0.4549403367085318  0.06163434358303026  1.0000
  H   H51       1.0  0.20817715528098543  0.06163648189858859  0.4549405247234191  1.0000
  H   H52       1.0  0.2918209590091577  0.5450585904032367  0.9383647614063408  1.0000
  H   H53       1.0  0.8550415255605797  0.9468363666577844  0.6543172912534417  1.0000
  H   H54       1.0  0.6449566102471065  0.34568450814025187  0.05316237537356017  1.0000
  H   H55       1.0  0.14495827465515984  0.053164495431580895  0.3456820438896672  1.0000
  H   H56       1.0  0.3550418589247428  0.654315063306356  0.9468357814827187  1.0000
  H   H57       1.0  0.8236068414716013  0.038626597804757516  0.6341391341547862  1.0000
  H   H58       1.0  0.6763923277193982  0.3658618834981056  0.961372091789784  1.0000
  H   H59       1.0  0.17639212424694506  0.9613742670895106  0.36586066540831313  1.0000
  H   H60       1.0  0.3236075530358491  0.634137038003857  0.03862608435959917  1.0000
  H   H61       1.0  0.5930577109926034  0.24446784672279884  0.49343680410959223  1.0000
  H   H62       1.0  0.9069428358910938  0.5065629768632434  0.7555319320270756  1.0000
  H   H63       1.0  0.40694024640313126  0.7555304352577962  0.5065626591840343  1.0000
  H   H64       1.0  0.09306085807845935  0.4934372324410817  0.24447015795097835  1.0000
  H   H65       1.0  0.606407300902184  0.32313533859395  0.5956503779796806  1.0000
  H   H66       1.0  0.8935941455805008  0.4043501654149466  0.6768645205663405  1.0000
  H   H67       1.0  0.39359173621821236  0.6768635881019094  0.4043500320761952  1.0000
  H   H68       1.0  0.10640929097804984  0.5956493995545386  0.3231385175448053  1.0000
  H   H69       1.0  0.6812432131827464  0.24261551765454928  0.5920677127863172  1.0000
  H   H70       1.0  0.8187558236972307  0.40793222132232654  0.7573834873029458  1.0000
  H   H71       1.0  0.3187539097157881  0.7573827671309559  0.40793221492729975  1.0000
  H   H72       1.0  0.18124620736968922  0.5920679919991444  0.24261835185743064  1.0000
  Pb  Pb1       1.0  0.4248756509655678  0.1980038027586346  0.7762100706343136  1.0000
  Pb  Pb2       1.0  0.0751225047445061  0.22378878325294244  0.8019981114126724  1.0000
  Pb  Pb3       1.0  0.5751235691180909  0.801997707266807  0.22378937062452314  1.0000
  Pb  Pb4       1.0  0.9248776121005517  0.7762107881581742  0.19800324540545247  1.0000
  Pb  Pb5       1.0  0.7499976439871076  0.14640148798594765  0.853601691740387  1.0000
  Pb  Pb6       1.0  0.2500024136396419  0.8536000184382574  0.14639669526962967  1.0000
  C   C1        1.0  0.20065685494425614  0.08449414467423819  0.6506816531134164  1.0000
  C   C2        1.0  0.29934411406375006  0.34931860730849  0.9155050095103335  1.0000
  C   C3        1.0  0.7993441055356526  0.9155054215429814  0.3493174697982157  1.0000
  C   C4        1.0  0.7006561857445774  0.650683547432216  0.08449537851075929  1.0000
  C   C5        1.0  0.09324370415558997  0.04060754110481211  0.5747998587451235  1.0000
  C   C6        1.0  0.4067558884208252  0.4252002824768438  0.9593919201456843  1.0000
  C   C7        1.0  0.9067561735537736  0.9593913811934769  0.4251989072330888  1.0000
  C   C8        1.0  0.593242497165633  0.5748012303535006  0.040607985533149815  1.0000
  C   C9        1.0  0.05200852287825345  0.9500245209562549  0.5406516134899564  1.0000
  C   C10       1.0  0.44799109905650175  0.4593476861155353  0.04997440082470215  1.0000
  C   C11       1.0  0.9479911004659909  0.04997375621086769  0.45934751079251174  1.0000
  C   C12       1.0  0.5520086981133544  0.5406531767701636  0.950025524147236  1.0000
  C   C13       1.0  0.0424622345947157  0.0913706393472395  0.5348844214987949  1.0000
  C   C14       1.0  0.4575384367044889  0.4651164452489099  0.9086298683887861  1.0000
  C   C15       1.0  0.9575408853345165  0.9086302163004946  0.465116594937328  1.0000
  C   C16       1.0  0.5424610286066313  0.5348857122966991  0.091370984052297  1.0000
  C   C17       1.0  0.21979737252900125  0.8664807956880055  0.5305318861882997  1.0000
  C   C18       1.0  0.2802011406562599  0.46946662924761984  0.13351919816722102  1.0000
  C   C19       1.0  0.7802010966428481  0.13351877575860266  0.4694662706679793  1.0000
  C   C20       1.0  0.7197983991026005  0.5305335893032462  0.866481674937802  1.0000
  C   C21       1.0  0.17082175864135954  0.23675684224229343  0.5115916587363359  1.0000
  C   C22       1.0  0.3291784178645685  0.4884076850562025  0.7632427181918191  1.0000
  C   C23       1.0  0.829178621706468  0.7632433719109954  0.48840757029103105  1.0000
  C   C24       1.0  0.6708211310319426  0.5115925311056629  0.236756385426709  1.0000
  C   C25       1.0  0.5017304977951298  0.11993604888464657  0.9086556652725478  1.0000
  C   C26       1.0  0.9982688201041935  0.09134412448241852  0.8800649484299826  1.0000
  C   C27       1.0  0.49827046877654596  0.8800635157399056  0.09134227798141845  1.0000
  C   C28       1.0  0.0017312936949808032  0.9086554477250317  0.11993699821697132  1.0000
  C   C29       1.0  0.5047575419287114  0.058684152814727504  0.9572748949065826  1.0000
  C   C30       1.0  0.9952431788384003  0.0427247482901691  0.9413164673418422  1.0000
  C   C31       1.0  0.4952431763696267  0.9413147650859912  0.04272222699397337  1.0000
  C   C32       1.0  0.0047574375992382656  0.9572761157722807  0.05868594235426628  1.0000
  C   C33       1.0  0.5265858516172558  0.9794323403148013  0.9204588995886455  1.0000
  C   C34       1.0  0.9734160481798991  0.07954060077202031  0.02056863844531875  1.0000
  C   C35       1.0  0.4734146031783126  0.020565934843744995  0.0795403501026684  1.0000
  C   C36       1.0  0.0265857254760179  0.9204589682146109  0.9794341488481495  1.0000
  C   C37       1.0  0.4789909293810338  0.08032445322684369  0.03677138949832679  1.0000
  C   C38       1.0  0.02100996536496789  0.9632256195241667  0.9196750418163122  1.0000
  C   C39       1.0  0.5210101238219238  0.9196731692176386  0.9632242151042478  1.0000
  C   C40       1.0  0.9789923914689139  0.03677330073005441  0.08032704953258463  1.0000
  C   C41       1.0  0.43354302160392416  0.9166076891205179  0.7405452502181548  1.0000
  C   C42       1.0  0.06645856848313508  0.2594534557302167  0.0833918821846282  1.0000
  C   C43       1.0  0.5664590338300783  0.08339251783029768  0.2594518703115654  1.0000
  C   C44       1.0  0.933541808818809  0.7405467592194057  0.916607936671568  1.0000
  C   C45       1.0  0.3052235668139502  0.15803401018771276  0.05918331263833214  1.0000
  C   C46       1.0  0.1947763829972899  0.9408163609554591  0.8419654614136294  1.0000
  C   C47       1.0  0.6947773906200749  0.8419655568258406  0.9408164001021363  1.0000
  C   C48       1.0  0.8052239851669966  0.05918385638316441  0.15803612692906907  1.0000
  C   C49       1.0  0.6240378673722801  0.10938123513395942  0.676362064512368  1.0000
  C   C50       1.0  0.8759636586218634  0.323637729965519  0.8906188095671583  1.0000
  C   C51       1.0  0.3759625068837805  0.8906189806119967  0.3236383441726646  1.0000
  C   C52       1.0  0.124036464314969  0.6763618398529303  0.1093813675933006  1.0000
  C   C53       1.0  0.5593606717509019  0.053949829702766294  0.5842788387231155  1.0000
  C   C54       1.0  0.9406392394232767  0.41572151128536206  0.9460514459014464  1.0000
  C   C55       1.0  0.44063720510532534  0.9460503928652385  0.41572178356423  1.0000
  C   C56       1.0  0.05936220541978795  0.5842793515648451  0.053951679032330384  1.0000
  C   C57       1.0  0.5702156817018391  0.9696481484829603  0.5546004320975656  1.0000
  C   C58       1.0  0.9297837393319738  0.44539989925969076  0.030353028510418826  1.0000
  C   C59       1.0  0.4297825209213569  0.0303507810178019  0.4454004423783005  1.0000
  C   C60       1.0  0.07021661969466202  0.5546003204679265  0.9696503293187818  1.0000
  C   C61       1.0  0.4901390035625752  0.0850230847416995  0.5311606463441905  1.0000
  C   C62       1.0  0.009860687310073552  0.4688397511298703  0.9149769312516087  1.0000
  C   C63       1.0  0.5098589477413852  0.9149751988315629  0.46883999660710185  1.0000
  C   C64       1.0  0.9901400066211821  0.5311591731415036  0.08502490927961055  1.0000
  C   C65       1.0  0.7957012198059418  0.968060531814544  0.6129277388367529  1.0000
  C   C66       1.0  0.7042972901035254  0.38707510629991043  0.031940376726858226  1.0000
  C   C67       1.0  0.20429857736392165  0.031940331071155  0.3870721861351854  1.0000
  C   C68       1.0  0.2957020013819829  0.6129244655271151  0.9680596750247618  1.0000
  C   C69       1.0  0.6022822919099724  0.2556836856402072  0.5620626366670366  1.0000
  C   C70       1.0  0.8977195851853566  0.43793827873251706  0.7443161058969496  1.0000
  C   C71       1.0  0.39771591071322393  0.7443152438605554  0.4379382378088368  1.0000
  C   C72       1.0  0.1022838544190776  0.5620612854406274  0.25568634238536003  1.0000
  S   S1        1.0  0.12031662595179426  0.889868305452822  0.5939886125862658  1.0000
  S   S2        1.0  0.3796825341418781  0.4060112233047377  0.11013138956264616  1.0000
  S   S3        1.0  0.8796840801630026  0.11013061563322421  0.406010868629622  1.0000
  S   S4        1.0  0.6203170117087494  0.5939889936534611  0.8898683038847183  1.0000
  S   S5        1.0  0.09495120289232518  0.20587950078437697  0.5838260797423447  1.0000
  S   S6        1.0  0.4050490990197702  0.4161738163321401  0.7941197748605191  1.0000
  S   S7        1.0  0.9050505859930168  0.794120064220593  0.41617375840695564  1.0000
  S   S8        1.0  0.594950443784974  0.5838264014223927  0.20588050841567462  1.0000
  S   S9        1.0  0.5708910839763346  0.9577225012958904  0.8243402327545015  1.0000
  S   S10       1.0  0.9291113274342491  0.17565818747463166  0.04227905099993734  1.0000
  S   S11       1.0  0.42910938300276763  0.04227577067732819  0.1756566576214809  1.0000
  S   S12       1.0  0.07088986913547049  0.824342028651742  0.9577232525804292  1.0000
  S   S13       1.0  0.4616550130490467  0.18422399363243613  0.08287426651774157  1.0000
  S   S14       1.0  0.03834537926704942  0.9171254167854173  0.815775906108705  1.0000
  S   S15       1.0  0.5383448616144334  0.8157749294621865  0.9171250892893072  1.0000
  S   S16       1.0  0.9616555659834417  0.0828741534134565  0.18422616594708777  1.0000
  S   S17       1.0  0.6539674297777721  0.9331487662461911  0.6274718625148809  1.0000
  S   S18       1.0  0.8460313976917391  0.3725288546877578  0.06685120497749608  1.0000
  S   S19       1.0  0.34603293838651433  0.06685145109242543  0.3725297258278175  1.0000
  S   S20       1.0  0.15396705929656918  0.6274707199441778  0.9331493111941145  1.0000
  S   S21       1.0  0.47524593560403616  0.1905039306713618  0.5751794643120364  1.0000
  S   S22       1.0  0.024754024768078926  0.42482095640040285  0.8094959452130228  1.0000
  S   S23       1.0  0.5247522670191599  0.8094949988294003  0.4248214101638298  1.0000
  S   S24       1.0  0.9752477488878382  0.5751786125862283  0.19050684208044547  1.0000
  O   O1        1.0  0.19290037275104768  0.1204917275602284  0.7259260630003297  1.0000
  O   O2        1.0  0.3070996678211769  0.2740740976279312  0.8795083204745567  1.0000
  O   O3        1.0  0.80710000759678  0.8795084865930604  0.2740731660270371  1.0000
  O   O4        1.0  0.6928995522624816  0.7259274123975101  0.12049112078428698  1.0000
  O   O5        1.0  0.2974093957351087  0.0858994818811993  0.6339289667190472  1.0000
  O   O6        1.0  0.20259219396471204  0.3660719684142181  0.9140990085516665  1.0000
  O   O7        1.0  0.7025921357392304  0.914099438788938  0.3660718195633451  1.0000
  O   O8        1.0  0.7974081119353826  0.6339301847338206  0.08590019981176063  1.0000
  O   O9        1.0  0.4048857790246528  0.1022967680359628  0.8516265316381819  1.0000
  O   O10       1.0  0.09511320564389789  0.14837160638315788  0.8977033595258633  1.0000
  O   O11       1.0  0.5951151875470303  0.8977027965885898  0.14837141161578438  1.0000
  O   O12       1.0  0.904887491333241  0.8516273170918822  0.10229789117651938  1.0000
  O   O13       1.0  0.5895958981897067  0.18239014963017303  0.9244942188594865  1.0000
  O   O14       1.0  0.910402687373171  0.07550693389990931  0.8176130987238182  1.0000
  O   O15       1.0  0.4104050622902022  0.8176094165870468  0.07550490405214566  1.0000
  O   O16       1.0  0.0895974233801198  0.9244926391038746  0.1823894377519651  1.0000
  O   O17       1.0  0.5667295198870831  0.1138250836147492  0.7324481333437448  1.0000
  O   O18       1.0  0.9332723902279126  0.2675530868967186  0.8861780767138471  1.0000
  O   O19       1.0  0.4332707799212372  0.8861770711259567  0.2675522546773409  1.0000
  O   O20       1.0  0.0667282323014931  0.732447775573064  0.11382315332459571  1.0000
  O   O21       1.0  0.7320776190403462  0.14297443725625666  0.6958069893650034  1.0000
  O   O22       1.0  0.7679234297016818  0.3041932750352601  0.8570237394067989  1.0000
  O   O23       1.0  0.2679225069423622  0.8570251317658658  0.30419259796661896  1.0000
  O   O24       1.0  0.23207637355994842  0.6958075862577785  0.14297500590747353  1.0000
