data_image0
_chemical_formula_structural       Cd8H40C64O32
_chemical_formula_sum              "Cd8 H40 C64 O32"
_cell_length_a       6.560971586
_cell_length_b       9.067408965477314
_cell_length_c       27.9974
_cell_angle_alpha    95.14932674144984
_cell_angle_beta     90.0
_cell_angle_gamma    111.2096892990255

_space_group_name_H-M_alt    "P 1"
_space_group_IT_number       1

loop_
  _space_group_symop_operation_xyz
  'x, y, z'

loop_
  _atom_site_type_symbol
  _atom_site_label
  _atom_site_symmetry_multiplicity
  _atom_site_fract_x
  _atom_site_fract_y
  _atom_site_fract_z
  _atom_site_occupancy
  Cd  Cd1       1.0  0.6825648704388031  0.5894288950162547  0.7194770466409963  1.0000
  Cd  Cd2       1.0  0.09270389360504791  0.410156187531598  0.7806096876107134  1.0000
  Cd  Cd3       1.0  0.31743595682295483  0.4105709753179951  0.2805231638955519  1.0000
  Cd  Cd4       1.0  0.9072975278979885  0.5898448713063402  0.21939055747272818  1.0000
  Cd  Cd5       1.0  0.18294699114334637  0.8171557092733153  0.7794846803881088  1.0000
  Cd  Cd6       1.0  0.36499259172035897  0.1825268305767835  0.7205520246577422  1.0000
  Cd  Cd7       1.0  0.8170532418771402  0.1828429725572462  0.22051513842551884  1.0000
  Cd  Cd8       1.0  0.6350073056181671  0.8174742282611476  0.2794482204257065  1.0000
  H   H1        1.0  0.11978489907592402  0.5792279678797669  0.7062100405004799  1.0000
  H   H2        1.0  0.5400894747202757  0.4203725652159989  0.793839639378433  1.0000
  H   H3        1.0  0.8802165224271122  0.4207730909581642  0.2937898474069485  1.0000
  H   H4        1.0  0.4599098283769792  0.5796273051182439  0.20616021398208775  1.0000
  H   H5        1.0  0.39819734357863723  0.2179537484475134  0.5763040227930675  1.0000
  H   H6        1.0  0.17960288072321623  0.7819070669554833  0.9237853686985744  1.0000
  H   H7        1.0  0.6017973870251084  0.7820461218867365  0.4236961877434808  1.0000
  H   H8        1.0  0.820399470703052  0.2180928033787666  0.07621519901399408  1.0000
  H   H9        1.0  0.17878843467973846  0.1230802532130539  0.4990757955863359  1.0000
  H   H10       1.0  0.05488248023767987  0.8769992468681522  0.0009424453374009932  1.0000
  H   H11       1.0  0.8212074844065571  0.8769219941285655  0.5009248412200336  1.0000
  H   H12       1.0  0.945118347024085  0.1230006234660976  0.9990581223751748  1.0000
  H   H13       1.0  0.8014007704079518  0.4123632388764022  0.5408572868055402  1.0000
  H   H14       1.0  0.3882862981839709  0.5878945367576947  0.9590700558025418  1.0000
  H   H15       1.0  0.19860209813694504  0.5876437624799635  0.4591431310123966  1.0000
  H   H16       1.0  0.6117154590010259  0.4121041450728669  0.04093012018711311  1.0000
  H   H17       1.0  0.02431439849716812  0.5098348031683386  0.6166712523368361  1.0000
  H   H18       1.0  0.5139194951477464  0.48999748814618727  0.8833530183450335  1.0000
  H   H19       1.0  0.9756882114884108  0.49016863267696215  0.38332834748835865  1.0000
  H   H20       1.0  0.4860846390023356  0.5100059476991206  0.1166465814801612  1.0000
  H   H21       1.0  0.1269482997449174  0.2489261545033088  0.42321180135845543  1.0000
  H   H22       1.0  0.8772997792644193  0.7514718645657297  0.0766774710127862  1.0000
  H   H23       1.0  0.8730500734291129  0.7510749043346223  0.5767888009010136  1.0000
  H   H24       1.0  0.12270197792057759  0.24852681726483178  0.9233234193289093  1.0000
  H   H25       1.0  0.3179421006565519  0.0324009874863052  0.4277789524038696  1.0000
  H   H26       1.0  0.28501094229463325  0.9682240357867541  0.0722040693745782  1.0000
  H   H27       1.0  0.6820562725174781  0.9676000713516258  0.5722209355035517  1.0000
  H   H28       1.0  0.7149863195194968  0.0317687035253797  0.9277955767045614  1.0000
  H   H29       1.0  0.5377721950210983  0.1581922176070023  0.5015965538858609  1.0000
  H   H30       1.0  0.3787335120476172  0.8423139552974561  0.9983740838022258  1.0000
  H   H31       1.0  0.46222617815292477  0.8418088412309288  0.4984036911975808  1.0000
  H   H32       1.0  0.6212643440077843  0.1576799725183591  0.0016259539998345002  1.0000
  H   H33       1.0  0.18378887296596255  0.0110209946797895  0.3512922293429526  1.0000
  H   H34       1.0  0.17214089734666527  0.9888837953595767  0.1487762954704479  1.0000
  H   H35       1.0  0.8162104301312922  0.9889788756544534  0.6487083383696233  1.0000
  H   H36       1.0  0.8278547631803124  0.0111148864709847  0.8512235233431796  1.0000
  H   H37       1.0  0.20406092564576991  0.8349606829924952  0.3719279062766603  1.0000
  H   H38       1.0  0.36773345524262885  0.16506652292653  0.128057025917478  1.0000
  H   H39       1.0  0.7959404958572593  0.165040375845436  0.628071981630761  1.0000
  H   H40       1.0  0.6322646593720834  0.8349309704003502  0.8719424011732286  1.0000
  C   C1        1.0  0.3658185005536582  0.4322682986086548  0.6457848535114153  1.0000
  C   C2        1.0  0.9334389447637579  0.5675651812095595  0.8543144586822818  1.0000
  C   C3        1.0  0.6341835151906495  0.5677339487329647  0.3542154261189268  1.0000
  C   C4        1.0  0.0665645951450458  0.43243706613206  0.1456858209480671  1.0000
  C   C5        1.0  0.22677237237463294  0.3706550790254397  0.6009674124665949  1.0000
  C   C6        1.0  0.8556742464125051  0.6291510652079992  0.8990789574490208  1.0000
  C   C7        1.0  0.7732250708761654  0.6293471683161798  0.39903250998772694  1.0000
  C   C8        1.0  0.14433081766080852  0.3708511821336202  0.10092132218132123  1.0000
  C   C9        1.0  0.26893814378542663  0.2610774161884351  0.5677376820180768  1.0000
  C   C10       1.0  0.007218738999199635  0.7387762681924386  0.9323340005670248  1.0000
  C   C11       1.0  0.7310608236298748  0.7389248311531844  0.4322636691403403  1.0000
  C   C12       1.0  0.992785730832843  0.2612247906454925  0.0676662445164169  1.0000
  C   C13       1.0  0.1474266045228205  0.209329965702274  0.5247700170504359  1.0000
  C   C14       1.0  0.9373035889183827  0.7907055597425483  0.9752540891585468  1.0000
  C   C15       1.0  0.8525677903989717  0.7906722816393454  0.4752306197559264  1.0000
  C   C16       1.0  0.0626966441021111  0.2092931220880132  0.024746086831108  1.0000
  C   C17       1.0  0.9775823560625343  0.2626212824764806  0.514377599406366  1.0000
  C   C18       1.0  0.7140947013645517  0.7376828448013697  0.9855732354441784  1.0000
  C   C19       1.0  0.022414492946985814  0.7373797763614505  0.4856222885010554  1.0000
  C   C20       1.0  0.28590646157916677  0.2623146485255106  0.014427263174596302  1.0000
  C   C21       1.0  0.9318669453396922  0.3691112127373941  0.5484898101504072  1.0000
  C   C22       1.0  0.562072077009951  0.631024147017051  0.9514632625611272  1.0000
  C   C23       1.0  0.06813109215237742  0.6308922231079137  0.4515094324987601  1.0000
  C   C24       1.0  0.43792934449307813  0.3689769118208801  0.04853626817027391  1.0000
  C   C25       1.0  0.057017973476526214  0.4242292596769062  0.5909878974188061  1.0000
  C   C26       1.0  0.6322967668710435  0.5756600798145541  0.9090137435445557  1.0000
  C   C27       1.0  0.9429809939387754  0.5757729876647204  0.40901238221153596  1.0000
  C   C28       1.0  0.367706178796496  0.4243409790233841  0.0909861443628657  1.0000
  C   C29       1.0  0.8488045034429776  0.2031235994542584  0.46888622640722133  1.0000
  C   C30       1.0  0.6448675765565499  0.7973100747253596  0.0310508724300362  1.0000
  C   C31       1.0  0.15119505821359522  0.7968798363910494  0.5311140877700211  1.0000
  C   C32       1.0  0.3551320622226656  0.2026874186015135  0.9689489118366909  1.0000
  C   C33       1.0  0.9493828838846597  0.1966890404985335  0.42512264310908426  1.0000
  C   C34       1.0  0.7520130038064183  0.8037446336810845  0.0747898105825442  1.0000
  C   C35       1.0  0.05061489504809908  0.8033108298357092  0.5748775674274641  1.0000
  C   C36       1.0  0.2479860407315257  0.1962516711421074  0.9252099391372824  1.0000
  C   C37       1.0  0.8291976412560373  0.1325657011306021  0.3819831158833083  1.0000
  C   C38       1.0  0.696140766219358  0.8678929316264217  0.11795077950254299  1.0000
  C   C39       1.0  0.17080166184121742  0.8674341692036478  0.6180170946532398  1.0000
  C   C40       1.0  0.3038552299895798  0.1321033731967702  0.8820486130412634  1.0000
  C   C41       1.0  0.5988314952526609  0.0642588287881338  0.3835443599408919  1.0000
  C   C42       1.0  0.5340765078766411  0.9362318935684115  0.11641511335682252  1.0000
  C   C43       1.0  0.4011656894388196  0.9357398530424277  0.6164554588727357  1.0000
  C   C44       1.0  0.4659167756852512  0.0637620342474037  0.8835849244452378  1.0000
  C   C45       1.0  0.49544663776875103  0.0784353007541156  0.4265700351717855  1.0000
  C   C46       1.0  0.4164446521213422  0.9221302973346397  0.0734034013892639  1.0000
  C   C47       1.0  0.504553259569775  0.9215657580838155  0.5734302099116634  1.0000
  C   C48       1.0  0.5835504912870066  0.0778612534738059  0.9265965673190024  1.0000
  C   C49       1.0  0.6198995417081861  0.1494876166111254  0.4682972495374571  1.0000
  C   C50       1.0  0.46961720360700104  0.8510126137749054  0.0316667862477189  1.0000
  C   C51       1.0  0.3800982372245656  0.8505122537231244  0.5317029609990911  1.0000
  C   C52       1.0  0.5303806524484003  0.1489813140409098  0.9683332515543414  1.0000
  C   C53       1.0  0.9498659513885742  0.15697756683997  0.3362519682376046  1.0000
  C   C54       1.0  0.7922374172736326  0.8433313144526267  0.1636750740069672  1.0000
  C   C55       1.0  0.05013454019123036  0.8430246805016495  0.6637483113927445  1.0000
  C   C56       1.0  0.20776433991135695  0.1566673673779349  0.8363247448066602  1.0000
  C   C57       1.0  0.2533239582572833  0.9183045039695799  0.34401554780809823  1.0000
  C   C58       1.0  0.3342125196450922  0.0818700764065028  0.15600117075516812  1.0000
  C   C59       1.0  0.7466774632457529  0.0816965548683584  0.6559846972753435  1.0000
  C   C60       1.0  0.6657840708051168  0.9181274169203704  0.843998613511559  1.0000
  C   C61       1.0  0.1630567523914266  0.8253682697432154  0.2963624445058954  1.0000
  C   C62       1.0  0.3370588435150665  0.1748288922029033  0.20363528576714174  1.0000
  C   C63       1.0  0.8369449276709205  0.1746363546057808  0.7036371898661998  1.0000
  C   C64       1.0  0.6629413895054201  0.8251697896276582  0.7963641758704583  1.0000
  O   O1        1.0  0.49304159268140785  0.3597707622695339  0.6577441906272412  1.0000
  O   O2        1.0  0.13312913514248245  0.6401898874430785  0.8424081083757571  1.0000
  O   O3        1.0  0.5069619472274028  0.6402314850720856  0.3422560890031008  1.0000
  O   O4        1.0  0.8668716921192756  0.3598099828911643  0.15759210216079114  1.0000
  O   O5        1.0  0.3615807376407717  0.5565192279523643  0.669798061677703  1.0000
  O   O6        1.0  0.8052185384225227  0.4432001555120024  0.8302911476693638  1.0000
  O   O7        1.0  0.638422802268039  0.4434830193892552  0.3302025751286664  1.0000
  O   O8        1.0  0.19478195315727487  0.5568020918296241  0.1697087747849579  1.0000
  O   O9        1.0  0.14064786889721861  0.2622148142158878  0.3395720535208967  1.0000
  O   O10       1.0  0.8774161992206049  0.7378741938948039  0.1603260954581032  1.0000
  O   O11       1.0  0.8593532169238574  0.73778862162942  0.6604289750083936  1.0000
  O   O12       1.0  0.12259038901720493  0.2621280534468156  0.8396738269962185  1.0000
  O   O13       1.0  0.8605601916521978  0.0771945029059893  0.2964326016550416  1.0000
  O   O14       1.0  0.7828937207339239  0.923094173823948  0.2035159982057166  1.0000
  O   O15       1.0  0.13944182409210978  0.9228077444356302  0.7035676779753004  1.0000
  O   O16       1.0  0.21710591804529142  0.0769033195029323  0.7964841432370378  1.0000
  O   O17       1.0  0.4853849233274232  0.9882360608507382  0.3422518633193548  1.0000
  O   O18       1.0  0.49676024807342156  0.0123093326753576  0.1577013412631345  1.0000
  O   O19       1.0  0.5146134498466  0.0117649979871928  0.657748381764094  1.0000
  O   O20       1.0  0.503235153894245  0.9876857836441458  0.8422987310858191  1.0000
  O   O21       1.0  0.9552816082678961  0.7643837686098678  0.29191631155160996  1.0000
  O   O22       1.0  0.19035744185418932  0.2358716300168595  0.2080713247106445  1.0000
  O   O23       1.0  0.04472040747641161  0.2356184787317517  0.7080836109027118  1.0000
  O   O24       1.0  0.8096427911663044  0.764127051813702  0.7919284941029829  1.0000
  O   O25       1.0  0.28624714307414223  0.8038218864206712  0.263957478634417  1.0000
  O   O26       1.0  0.48181977067439874  0.1962932687711145  0.2360267954459445  1.0000
  O   O27       1.0  0.7137548726701652  0.1961803609209483  0.7360424438198976  1.0000
  O   O28       1.0  0.5181795324228561  0.8037066015631353  0.7639727007385559  1.0000
  O   O29       1.0  0.02914646778886982  0.5806862619024216  0.7341518059147063  1.0000
  O   O30       1.0  0.4480640071810527  0.4190628341540901  0.7659054069106405  1.0000
  O   O31       1.0  0.9708543594728881  0.4193136084318212  0.2658480474458216  1.0000
  O   O32       1.0  0.5519374143219835  0.5809382246838481  0.23409448099678093  1.0000
