data_image0
_chemical_formula_structural       Ca2H44C32N8O20
_chemical_formula_sum              "Ca2 H44 C32 N8 O20"
_cell_length_a       9.041817571403728
_cell_length_b       9.041848986397781
_cell_length_c       11.703
_cell_angle_alpha    95.51883219062947
_cell_angle_beta     95.51885142484439
_cell_angle_gamma    91.35379582443032

_space_group_name_H-M_alt    "P 1"
_space_group_IT_number       1

loop_
  _space_group_symop_operation_xyz
  'x, y, z'

loop_
  _atom_site_type_symbol
  _atom_site_label
  _atom_site_symmetry_multiplicity
  _atom_site_fract_x
  _atom_site_fract_y
  _atom_site_fract_z
  _atom_site_occupancy
  Ca  Ca1       1.0  0.5739110863720641  0.4260865176711945  0.7499999074187399  1.0000
  Ca  Ca2       1.0  0.42608804517346505  0.5739134052858361  0.2500001932232649  1.0000
  H   H1        1.0  0.3316941498132735  0.9669448214345379  0.9341777130015103  1.0000
  H   H2        1.0  0.033053888038246305  0.6683082715984199  0.5658216874424511  1.0000
  H   H3        1.0  0.6683072039778821  0.0330551015224927  0.06582169828072179  1.0000
  H   H4        1.0  0.9669463546300961  0.3316916513586108  0.43417764127878655  1.0000
  H   H5        1.0  0.6338323362466057  0.5307471091867058  0.005441866080438719  1.0000
  H   H6        1.0  0.4692528308734439  0.366166433526999  0.49455820895126124  1.0000
  H   H7        1.0  0.3661678695319566  0.46925170203920163  0.9945582317753079  1.0000
  H   H8        1.0  0.5307473749051185  0.6338323776989156  0.5054418889044854  1.0000
  H   H9        1.0  0.6543472745612817  0.3585399580134521  0.005845295444721886  1.0000
  H   H10       1.0  0.6414605912469113  0.3456516590880057  0.4941556915114517  1.0000
  H   H11       1.0  0.34565404234009384  0.6414588532124625  0.9941548849720122  1.0000
  H   H12       1.0  0.3585396145316508  0.654347152137909  0.5058444063442948  1.0000
  H   H13       1.0  0.6608454136239245  0.7955670216800996  0.6883122773565873  1.0000
  H   H14       1.0  0.2044326661264151  0.3391558141279916  0.8116871070877636  1.0000
  H   H15       1.0  0.33915482904442484  0.204432901276931  0.3116887603281668  1.0000
  H   H16       1.0  0.7955675765419272  0.6608441088290391  0.18831222163347408  1.0000
  H   H17       1.0  0.8697538283544121  0.9883289696128301  0.62336610249843  1.0000
  H   H18       1.0  0.011673121292695003  0.1302481950752536  0.8766318106646622  1.0000
  H   H19       1.0  0.1302452663013369  0.0116698416130774  0.3766339127963221  1.0000
  H   H20       1.0  0.9883282324984678  0.869751727881777  0.12336760061756988  1.0000
  H   H21       1.0  0.802265542318878  0.1669041937097546  0.6011229247394282  1.0000
  H   H22       1.0  0.8330944022492304  0.1977336095211584  0.8988753698456192  1.0000
  H   H23       1.0  0.1977346634596842  0.8330946175161529  0.3988763186345565  1.0000
  H   H24       1.0  0.1669058404191119  0.8022663134358794  0.10112481335737297  1.0000
  H   H25       1.0  0.65385941800605  0.8766911535604365  0.47891290238172957  1.0000
  H   H26       1.0  0.1233090695787382  0.3461385973204969  0.021087137625386297  1.0000
  H   H27       1.0  0.3461407877725193  0.12330765766547812  0.5210871954740169  1.0000
  H   H28       1.0  0.8766922473226374  0.6538602139054106  0.9789130427913477  1.0000
  H   H29       1.0  0.6159023619106208  0.0597811177536443  0.44764603229342015  1.0000
  H   H30       1.0  0.9402182616849261  0.3840953213705802  0.052353065869176894  1.0000
  H   H31       1.0  0.3840978438679414  0.9402176934722632  0.5523540655623194  1.0000
  H   H32       1.0  0.05978305521645671  0.6159034898553273  0.9476479690293118  1.0000
  H   H33       1.0  0.8760261424682199  0.0876388762694589  0.38630990264538667  1.0000
  H   H34       1.0  0.9123599588602717  0.1239735846090042  0.113689306935278  1.0000
  H   H35       1.0  0.1239729890773091  0.9123610466875717  0.6136893435148636  1.0000
  H   H36       1.0  0.0876402469182906  0.8760252266169033  0.8863099364387068  1.0000
  H   H37       1.0  0.7770069933287616  0.9351115124177837  0.3059681895535816  1.0000
  H   H38       1.0  0.06488888316757618  0.22299214066806877  0.19403023742527378  1.0000
  H   H39       1.0  0.2229921382167745  0.0648884105392469  0.6940302021249066  1.0000
  H   H40       1.0  0.9351113226109931  0.7770066705578387  0.8059698604304657  1.0000
  H   H41       1.0  0.9111089453179205  0.9028813153896138  0.4204837618470734  1.0000
  H   H42       1.0  0.0971194767368644  0.0888906855155582  0.0795164404769366  1.0000
  H   H43       1.0  0.08889129735042188  0.097118607567424  0.5795155668741643  1.0000
  H   H44       1.0  0.9028818770542913  0.9111092374414723  0.9204838252870502  1.0000
  C   C1        1.0  0.5232723629766838  0.91666900479472  0.7992297406244546  1.0000
  C   C2        1.0  0.0833307866061972  0.4767292055820747  0.7007696768407284  1.0000
  C   C3        1.0  0.47672569433581913  0.083332029893441  0.2007703628038087  1.0000
  C   C4        1.0  0.9166684187188919  0.5232729408372094  0.299230594495782  1.0000
  C   C5        1.0  0.5012849831589605  0.0694398377626371  0.8115484457405628  1.0000
  C   C6        1.0  0.9305569747903064  0.4987136885675553  0.6884505351374343  1.0000
  C   C7        1.0  0.49871303726375527  0.9305600851943936  0.1884498633769383  1.0000
  C   C8        1.0  0.0694421936450027  0.5012873461205984  0.3115513598153399  1.0000
  C   C9        1.0  0.6634937889455514  0.0332885650586263  0.6871613001945889  1.0000
  C   C10       1.0  0.966711675665529  0.3365065588584883  0.8128380599500673  1.0000
  C   C11       1.0  0.3365064168330107  0.9667102461672813  0.3128387976611506  1.0000
  C   C12       1.0  0.0332874189902199  0.6634922523674192  0.1871619553446848  1.0000
  C   C13       1.0  0.466289001758625  0.7902118128537481  0.8554079496600409  1.0000
  C   C14       1.0  0.2097862174500307  0.5337109843644186  0.6445912193669159  1.0000
  C   C15       1.0  0.533710129786904  0.2097881101032826  0.14459215098196407  1.0000
  C   C16       1.0  0.7902129509852784  0.46629005032373533  0.3554089666223419  1.0000
  C   C17       1.0  0.39535508253420204  0.1548307936985154  0.8756345539126968  1.0000
  C   C18       1.0  0.8451654517406979  0.6046427652960418  0.6243651780892989  1.0000
  C   C19       1.0  0.604644049011327  0.8451691292585224  0.12436554672930808  1.0000
  C   C20       1.0  0.1548336798048311  0.395357157660996  0.3756349225527131  1.0000
  C   C21       1.0  0.7693845428525493  0.0491162810770476  0.599222657863244  1.0000
  C   C22       1.0  0.9508822389285143  0.23061416925711598  0.9007755984043797  1.0000
  C   C23       1.0  0.23061566292601304  0.9508825301488598  0.40077829447425734  1.0000
  C   C24       1.0  0.049116929506794804  0.7693868654310378  0.09922458758487808  1.0000
  C   C25       1.0  0.7051141883276272  0.9876219086176973  0.4765830255419842  1.0000
  C   C26       1.0  0.0123793750542092  0.2948833455600592  0.023415348530676297  1.0000
  C   C27       1.0  0.2948838320950884  0.0123780143393333  0.5234161380572786  1.0000
  C   C28       1.0  0.9876208676141403  0.7051165773969714  0.9765848346723232  1.0000
  C   C29       1.0  0.8243324005239998  0.9781877582958387  0.39288706162750486  1.0000
  C   C30       1.0  0.0218125663601896  0.1756679701635875  0.10711230645397758  1.0000
  C   C31       1.0  0.1756667679113093  0.0218132763923222  0.6071114153982364  1.0000
  C   C32       1.0  0.9781876763081528  0.8243319527934432  0.892887022267267  1.0000
  N   N1        1.0  0.589887682849934  0.1400803451396584  0.7424922094973283  1.0000
  N   N2        1.0  0.8599185161848056  0.4101131648754688  0.7575070852984779  1.0000
  N   N3        1.0  0.41011259670818834  0.8599206895485024  0.25750720457116927  1.0000
  N   N4        1.0  0.1400817264835368  0.5898867580815619  0.24249309790452137  1.0000
  N   N5        1.0  0.6253519772212499  0.8981075419413358  0.7204846152382202  1.0000
  N   N6        1.0  0.10189268712207421  0.3746500537374757  0.7795157235870603  1.0000
  N   N7        1.0  0.37464826544709245  0.1018923810156949  0.2795155679647721  1.0000
  N   N8        1.0  0.8981075555462679  0.6253498692195549  0.2204853140976937  1.0000
  O   O1        1.0  0.5201174877132502  0.6650475642104894  0.8353223114600468  1.0000
  O   O2        1.0  0.3349514251258441  0.4798831867820681  0.6646778344576134  1.0000
  O   O3        1.0  0.47988271806531196  0.3349512470154252  0.1646786408774545  1.0000
  O   O4        1.0  0.6650488544322782  0.5201178479060928  0.3353232885743935  1.0000
  O   O5        1.0  0.3651854573015854  0.8175281583119656  0.9250188232571829  1.0000
  O   O6        1.0  0.1824696505149959  0.6348151480129047  0.5749820842851108  1.0000
  O   O7        1.0  0.634814785366757  0.1824717646450651  0.07498135994580929  1.0000
  O   O8        1.0  0.8175294441407601  0.3651836632130028  0.4250179310096414  1.0000
  O   O9        1.0  0.30894859889478715  0.0852475426208201  0.938150514819732  1.0000
  O   O10       1.0  0.9147488942449088  0.6910498434796395  0.5618501300648759  1.0000
  O   O11       1.0  0.6910516437735553  0.9147523803362105  0.06184966838326741  1.0000
  O   O12       1.0  0.0852502373006203  0.3089500794773983  0.4381491160953743  1.0000
  O   O13       1.0  0.3844013573659452  0.2916104091297598  0.8659349729061887  1.0000
  O   O14       1.0  0.7083840752600068  0.6155944286027406  0.6340619115925392  1.0000
  O   O15       1.0  0.615598885302397  0.708389513827278  0.1340652102968107  1.0000
  O   O16       1.0  0.2916150562855222  0.3844054943542972  0.365937334567711  1.0000
  O   O17       1.0  0.6662963297769764  0.4432927802839046  0.9596785104602148  1.0000
  O   O18       1.0  0.5567076190398836  0.3337016612315722  0.5403223953129768  1.0000
  O   O19       1.0  0.3337038760015858  0.5567060309420029  0.040321587395531794  1.0000
  O   O20       1.0  0.4432925867386786  0.6662971499943353  0.4596785570245245  1.0000
