data_image0
_chemical_formula_structural       Cd2H68C64N8O8
_chemical_formula_sum              "Cd2 H68 C64 N8 O8"
_cell_length_a       10.140293099714297
_cell_length_b       12.113722397192443
_cell_length_c       13.287059649724691
_cell_angle_alpha    105.49386547166728
_cell_angle_beta     98.27701830255154
_cell_angle_gamma    108.0942495822504

_space_group_name_H-M_alt    "P 1"
_space_group_IT_number       1

loop_
  _space_group_symop_operation_xyz
  'x, y, z'

loop_
  _atom_site_type_symbol
  _atom_site_label
  _atom_site_symmetry_multiplicity
  _atom_site_fract_x
  _atom_site_fract_y
  _atom_site_fract_z
  _atom_site_occupancy
  Cd  Cd1       1.0  0.24093978716816616  0.4733291105178524  0.7398122719109639  1.0000
  Cd  Cd2       1.0  0.7590611048733462  0.5266719560234777  0.2601874162659713  1.0000
  H   H1        1.0  0.21519104473072298  0.8618058879768001  0.8824311106082379  1.0000
  H   H2        1.0  0.7848064625425976  0.13819425886831033  0.11757023709744638  1.0000
  H   H3        1.0  0.38247944285372887  0.8551690415166892  0.8690694250099613  1.0000
  H   H4        1.0  0.6175186656589133  0.1448301825894944  0.13093176270416515  1.0000
  H   H5        1.0  0.3024635626569462  0.07407087666818063  0.848219455589977  1.0000
  H   H6        1.0  0.697537328173638  0.9259301879171602  0.15178098458775227  1.0000
  H   H7        1.0  0.37556760297173497  0.0698846782934908  0.9741338526240002  1.0000
  H   H8        1.0  0.6244328922935694  0.9301154638246062  0.025867070442444684  1.0000
  H   H9        1.0  0.525056092323311  0.04890144992672421  0.7887311040334313  1.0000
  H   H10       1.0  0.4749426174286597  0.9510968514405393  0.21126992368914455  1.0000
  H   H11       1.0  0.5934538486445148  0.054770081886495306  0.9207683966908535  1.0000
  H   H12       1.0  0.4065466478317107  0.945230062187591  0.0792317743748044  1.0000
  H   H13       1.0  0.5708432692970788  0.2648534654599999  0.9920126801795563  1.0000
  H   H14       1.0  0.4291568340357159  0.7351457600588206  0.007986469773229058  1.0000
  H   H15       1.0  0.7010383320529741  0.26031527337461563  0.9167986955062802  1.0000
  H   H16       1.0  0.2989617700688926  0.7396839501882159  0.08320120644729924  1.0000
  H   H17       1.0  0.7006557932189424  0.18004328917626825  0.7172663203759913  1.0000
  H   H18       1.0  0.29934431132478073  0.8199559382985416  0.282732077575993  1.0000
  H   H19       1.0  0.71698489942964  0.21176488274689123  0.542212953013106  1.0000
  H   H20       1.0  0.28301460387474714  0.7882352674668383  0.457785604930436  1.0000
  H   H21       1.0  0.5822617798287271  0.3239562425042309  0.4683091969973604  1.0000
  H   H22       1.0  0.4177387178584268  0.6760439035258443  0.5316902220675034  1.0000
  H   H23       1.0  0.41971378491829375  0.4024097249040111  0.56529586970877  1.0000
  H   H24       1.0  0.5802867115579317  0.5975904191700752  0.4347043013568881  1.0000
  H   H25       1.0  0.307495184830934  0.4169240062840701  0.948406901827504  1.0000
  H   H26       1.0  0.6925067028042662  0.5830770580295876  0.05159289546995179  1.0000
  H   H27       1.0  0.44787208382199845  0.3888435812392502  0.02450010578045444  1.0000
  H   H28       1.0  0.5521294094588427  0.6111565625631601  0.975499422404923  1.0000
  H   H29       1.0  0.2881596741137997  0.2668492116252139  0.9487830983820448  1.0000
  H   H30       1.0  0.7118428135498007  0.7331509279935347  0.05121729092465444  1.0000
  H   H31       1.0  0.32137690398932517  0.8842279875593138  0.6812372880689993  1.0000
  H   H32       1.0  0.6786208101689581  0.11577031603561494  0.3187636305330558  1.0000
  H   H33       1.0  0.2275806841240992  0.7413530745582974  0.6948965992298428  1.0000
  H   H34       1.0  0.77241781995383  0.2586470720151297  0.30510410559556805  1.0000
  H   H35       1.0  0.11109546447949724  0.9508007007459511  0.718457142470726  1.0000
  H   H36       1.0  0.8889018553244269  0.0491966823377297  0.28154350701925784  1.0000
  H   H37       1.0  0.021642774247205017  0.8020045358141559  0.7229510439139235  1.0000
  H   H38       1.0  0.9783545479785687  0.1979928511815032  0.27704810157446513  1.0000
  H   H39       1.0  0.24545654911087672  0.056890407865338916  0.6039263350415001  1.0000
  H   H40       1.0  0.7545419537561244  0.9431097367521065  0.39607512178470494  1.0000
  H   H41       1.0  0.27309526928492284  0.12526565664073536  0.4457842254657011  1.0000
  H   H42       1.0  0.7269056179128909  0.8747354020766309  0.5542184707144174  1.0000
  H   H43       1.0  0.1314026240240337  0.9893761542320832  0.26114491330358913  1.0000
  H   H44       1.0  0.8686012535876132  0.010624903670255  0.738855854235702  1.0000
  H   H45       1.0  0.9589044420845169  0.7762612359733936  0.22844785937029152  1.0000
  H   H46       1.0  0.04109904238369208  0.22373890337367897  0.7715518870561271  1.0000
  H   H47       1.0  0.957281741287403  0.5850473018418754  0.6097087138514754  1.0000
  H   H48       1.0  0.04271875518882241  0.41495284223220374  0.39029145721418274  1.0000
  H   H49       1.0  0.8060956337558381  0.6270850294220552  0.6023249063968097  1.0000
  H   H50       1.0  0.19390446836602857  0.37291419414077626  0.39767499555676994  1.0000
  H   H51       1.0  0.8142548418262834  0.5144136559681771  0.48915661310652353  1.0000
  H   H52       1.0  0.18574387034753664  0.4855846493110718  0.5108429106144572  1.0000
  H   H53       1.0  0.8101589554240292  0.4448539905032263  0.8153941632190326  1.0000
  H   H54       1.0  0.18984133053445618  0.555147990953067  0.18460869295263654  1.0000
  H   H55       1.0  0.9102489547379022  0.5053961605378134  0.9516394117444027  1.0000
  H   H56       1.0  0.08975372039509472  0.4946067428423648  0.04836167577799705  1.0000
  H   H57       1.0  0.03562711313260546  0.738565701791096  0.03803629876602355  1.0000
  H   H58       1.0  0.9643751676460257  0.2614362810778275  0.9619645196443048  1.0000
  H   H59       1.0  0.9872480570918399  0.9324848683395859  0.06371842190860393  1.0000
  H   H60       1.0  0.012749846957689192  0.0675162029287577  0.9362816909075635  1.0000
  H   H61       1.0  0.7986869863652615  0.942594968557977  0.9292066209475965  1.0000
  H   H62       1.0  0.2013119144888762  0.0574061024386836  0.07079284898829741  1.0000
  H   H63       1.0  0.706903155093464  0.5660657384527428  0.742085639934601  1.0000
  H   H64       1.0  0.2930963457890813  0.43393440784900883  0.25791442201052933  1.0000
  H   H65       1.0  0.6336529159531351  0.7326461638277948  0.6633584810939797  1.0000
  H   H66       1.0  0.36634658614033105  0.26735398442994557  0.3366408288503565  1.0000
  H   H67       1.0  0.615583746434723  0.8504486399540031  0.7668564553825166  1.0000
  H   H68       1.0  0.3844157556587433  0.14955150830373753  0.23314285456181952  1.0000
  C   C1        1.0  0.3033400413597035  0.8940091652731043  0.8449189647922781  1.0000
  C   C2        1.0  0.6966584627182185  0.10599098130032303  0.1550817400331255  1.0000
  C   C3        1.0  0.37098704172372976  0.03492274648348831  0.8877871544229239  1.0000
  C   C4        1.0  0.6290134547524958  0.9650773975905981  0.11221301664273411  1.0000
  C   C5        1.0  0.522588610210768  0.08559155525478701  0.8734885818391691  1.0000
  C   C6        1.0  0.4774114907001774  0.9144076663520552  0.12651207211520443  1.0000
  C   C7        1.0  0.5853552508717924  0.22636963776350436  0.9115056088615463  1.0000
  C   C8        1.0  0.41464485125007394  0.7736295857993271  0.08849429309203331  1.0000
  C   C9        1.0  0.5472270695243182  0.27208115466112304  0.7380634565720642  1.0000
  C   C10       1.0  0.4527734269519073  0.727918989412956  0.2619367144935938  1.0000
  C   C11       1.0  0.63783349405049  0.22647487526788276  0.684477394413783  1.0000
  C   C12       1.0  0.36216760608691345  0.7735243499792619  0.31552111265872196  1.0000
  C   C13       1.0  0.6466774254089033  0.24509333398845712  0.586168939607788  1.0000
  C   C14       1.0  0.35332207789548403  0.7549068162252723  0.41382961833575393  1.0000
  C   C15       1.0  0.5686133265333098  0.3071204881392688  0.543469151881766  1.0000
  C   C16       1.0  0.43138677679947796  0.6928787373795517  0.45652999807101236  1.0000
  C   C17       1.0  0.4769223258735024  0.35119556634040094  0.5967251778971348  1.0000
  C   C18       1.0  0.5230781718136442  0.6488045796896744  0.40327424116772914  1.0000
  C   C19       1.0  0.4661200734044825  0.33265411187009164  0.6952552513113305  1.0000
  C   C20       1.0  0.5338804242826711  0.6673460341599836  0.3047441677535263  1.0000
  C   C21       1.0  0.42400917525601756  0.33457254444648044  0.8529403169628157  1.0000
  C   C22       1.0  0.5759919224595363  0.6654266768886785  0.14705969411128458  1.0000
  C   C23       1.0  0.3649385045390686  0.35395256787565904  0.9489229623008131  1.0000
  C   C24       1.0  0.6350629887417654  0.6460475759267441  0.05107656588456423  1.0000
  C   C25       1.0  0.24437154736926903  0.8396771186659322  0.7222368960029899  1.0000
  C   C26       1.0  0.7556261679999424  0.1603211868849854  0.2777632705982712  1.0000
  C   C27       1.0  0.1015818359670105  0.8541249352452523  0.688580545501921  1.0000
  C   C28       1.0  0.8984154838369136  0.14587244783842834  0.31142010398805553  1.0000
  C   C29       1.0  0.08516279049554508  0.8777315596064031  0.5039664154144463  1.0000
  C   C30       1.0  0.9148361079367432  0.12226950747828626  0.49603455852303585  1.0000
  C   C31       1.0  0.18267627955035687  0.996052240110082  0.5232825896031488  1.0000
  C   C32       1.0  0.8173232201212598  0.0039479042356803  0.4767182243427826  1.0000
  C   C33       1.0  0.1970661807551579  0.033751656855955006  0.433707895770482  1.0000
  C   C34       1.0  0.8029337108489614  0.9662494040890836  0.566294691289116  1.0000
  C   C35       1.0  0.11649007343935826  0.9560430351248144  0.3288871393884848  1.0000
  C   C36       1.0  0.8835128073676728  0.0439580230491998  0.6711142710310797  1.0000
  C   C37       1.0  0.019107502426201985  0.8376767625806639  0.30963215996792587  1.0000
  C   C38       1.0  0.9808943827871415  0.16232429782102292  0.690369141331118  1.0000
  C   C39       1.0  0.004160932037876711  0.7986986242677361  0.39889024258546624  1.0000
  C   C40       1.0  0.9958405612429642  0.2013015195346739  0.6011092855999111  1.0000
  C   C41       1.0  0.9459559335899641  0.6973457761577465  0.5098023325380157  1.0000
  C   C42       1.0  0.054044169742830696  0.3026534493610741  0.4901968174147628  1.0000
  C   C43       1.0  0.8782505850266203  0.600465484194665  0.5546425732011147  1.0000
  C   C44       1.0  0.12174991266053334  0.39953466183541064  0.44535684586374225  1.0000
  C   C45       1.0  0.032435413492798715  0.517511143410829  0.832480507315488  1.0000
  C   C46       1.0  0.9675630966397577  0.48248901294255125  0.1675164375059453  1.0000
  C   C47       1.0  0.9015438265613793  0.5225577954208661  0.8743100474390959  1.0000
  C   C48       1.0  0.09845666991484588  0.47744234865322016  0.125690123626555  1.0000
  C   C49       1.0  0.8763968784237547  0.6405875837135327  0.8866214550527405  1.0000
  C   C50       1.0  0.12360500921144524  0.3594134806001321  0.11337834224471526  1.0000
  C   C51       1.0  0.9559026890351062  0.7446678381915105  0.9773039623039994  1.0000
  C   C52       1.0  0.04409660617339737  0.2553341533164115  0.02269577674397282  1.0000
  C   C53       1.0  0.9283246294723284  0.8527020339386552  0.9919403165189282  1.0000
  C   C54       1.0  0.07167566132986279  0.1472999553416017  0.008059531649557503  1.0000
  C   C55       1.0  0.822078276825934  0.858601150124912  0.9160538762350331  1.0000
  C   C56       1.0  0.17791923529108536  0.14139900454415513  0.08394446346746783  1.0000
  C   C57       1.0  0.7422499884777877  0.7563609249027579  0.82499971624965  1.0000
  C   C58       1.0  0.25774912047224063  0.24363830479971685  0.17499857258182067  1.0000
  C   C59       1.0  0.7710985791915447  0.6480229240256464  0.8113628261611014  1.0000
  C   C60       1.0  0.2288999273082339  0.3519772264597592  0.18863637466272115  1.0000
  C   C61       1.0  0.6205856673632794  0.7577996472824111  0.7460956583768523  1.0000
  C   C62       1.0  0.3794138347301867  0.24220050097532927  0.2539036515674838  1.0000
  C   C63       1.0  0.47721827411896095  0.6680955169165088  0.7483769175425865  1.0000
  C   C64       1.0  0.5227802323808247  0.3319046335689039  0.25162228328122893  1.0000
  N   N1        1.0  0.9189112377963794  0.6876493139603427  0.4057995290046394  1.0000
  N   N2        1.0  0.0810884711820492  0.3123489910472231  0.5941993518360675  1.0000
  N   N3        1.0  0.04518992992969119  0.8109795381214584  0.5720165565700415  1.0000
  N   N4        1.0  0.9548081810048005  0.18901968989670345  0.427983127142497  1.0000
  N   N5        1.0  0.390068828381864  0.36926896926563324  0.7684757778720555  1.0000
  N   N6        1.0  0.6099326648989772  0.630731174536777  0.23152375031332192  1.0000
  N   N7        1.0  0.5193023645143101  0.2758038586475564  0.8380456401474419  1.0000
  N   N8        1.0  0.48069813196192257  0.7241962854265226  0.1619545309182088  1.0000
  O   O1        1.0  0.09898819984940838  0.45367928036578326  0.8641329313567214  1.0000
  O   O2        1.0  0.9010132934314327  0.5463208634366197  0.13586659682865604  1.0000
  O   O3        1.0  0.06807690048027834  0.5713315438987578  0.7651616384668788  1.0000
  O   O4        1.0  0.9319208185217035  0.42866676752013444  0.23483627213199307  1.0000
  O   O5        1.0  0.4501633776327409  0.6692857581834276  0.838771077727323  1.0000
  O   O6        1.0  0.5498355232214038  0.3307153128132327  0.16122839220857096  1.0000
  O   O7        1.0  0.39139347943448394  0.5931325845472699  0.6584553023668109  1.0000
  O   O8        1.0  0.6086066238983109  0.40686664097155056  0.3415438475859745  1.0000
