data_image0
_chemical_formula_structural       Zn2H40C58N4O8
_chemical_formula_sum              "Zn2 H40 C58 N4 O8"
_cell_length_a       9.610592612228716
_cell_length_b       10.40060038729431
_cell_length_c       13.330180676564492
_cell_angle_alpha    96.90777360947537
_cell_angle_beta     111.12419784634235
_cell_angle_gamma    90.01045944719031

_space_group_name_H-M_alt    "P 1"
_space_group_IT_number       1

loop_
  _space_group_symop_operation_xyz
  'x, y, z'

loop_
  _atom_site_type_symbol
  _atom_site_label
  _atom_site_symmetry_multiplicity
  _atom_site_fract_x
  _atom_site_fract_y
  _atom_site_fract_z
  _atom_site_occupancy
  Zn  Zn1       1.0  0.491988601957125  0.22306418360111727  0.6650676503377183  1.0000
  Zn  Zn2       1.0  0.17319508997011468  0.7230232025799097  0.665225426320184  1.0000
  H   H1        1.0  0.1516528914095119  0.3877751110463876  0.3334781035738388  1.0000
  H   H2        1.0  0.1817622108569878  0.8880677969962393  0.3335607603908173  1.0000
  H   H3        1.0  0.36069334923393365  0.7705749823260105  0.42437777113326547  1.0000
  H   H4        1.0  0.063296957360933  0.27074786273958296  0.4242290451913746  1.0000
  H   H5        1.0  0.4516046407584753  0.7416269089444752  0.2697564608823271  1.0000
  H   H6        1.0  0.8179691509108763  0.24167898085502057  0.26938238775454687  1.0000
  H   H7        1.0  0.517126201402327  0.6632692269068555  0.0999079963284188  1.0000
  H   H8        1.0  0.582817863169744  0.16314464585884278  0.09994616761098031  1.0000
  H   H9        1.0  0.5470244347464046  0.544846917610478  0.9344334264551648  1.0000
  H   H10       1.0  0.38723410175997947  0.044626517821555495  0.9345332266217455  1.0000
  H   H11       1.0  0.29142628816423866  0.2151324443645564  0.9493668133714763  1.0000
  H   H12       1.0  0.6580547429757502  0.715203318762576  0.9490596867871232  1.0000
  H   H13       1.0  0.2706188430357627  0.18068135825481588  0.2555662470774536  1.0000
  H   H14       1.0  0.9848300035132094  0.6807443921219303  0.2555652501959641  1.0000
  H   H15       1.0  0.31546369456419393  0.1283638283902278  0.13907162587864258  1.0000
  H   H16       1.0  0.8235577839945237  0.6283762542845109  0.13904810127559133  1.0000
  H   H17       1.0  0.44209704036295955  0.23542697898260903  0.24828836648066496  1.0000
  H   H18       1.0  0.8060699520581026  0.7354589299237373  0.24821736285603888  1.0000
  H   H19       1.0  0.0265552310824759  0.2558670360234885  0.1371620382878334  1.0000
  H   H20       1.0  0.11056769619951007  0.7558296730190576  0.13718257316073587  1.0000
  H   H21       1.0  0.017399859582724296  0.3753906046104872  0.05059313791282699  1.0000
  H   H22       1.0  0.033333787557147304  0.8752722189490783  0.0505347025035974  1.0000
  H   H23       1.0  0.0639229461244142  0.2139824342483222  0.0164377092487769  1.0000
  H   H24       1.0  0.9525572284287944  0.7138780140326658  0.016466096910953368  1.0000
  H   H25       1.0  0.6194992616684232  0.013940498199488595  0.8240469986974261  1.0000
  H   H26       1.0  0.20394243019246258  0.5139073193371145  0.8241444311657204  1.0000
  H   H27       1.0  0.8669609853219954  0.913828667667957  0.8974070711177902  1.0000
  H   H28       1.0  0.029330230922234093  0.41372493308483627  0.8970884308983997  1.0000
  H   H29       1.0  0.0764776621027679  0.9802084258564533  0.8386605173545476  1.0000
  H   H30       1.0  0.76115834729125  0.4802587111378215  0.8379724241109798  1.0000
  H   H31       1.0  0.16556069189733344  0.12495981123905145  0.7312520891501109  1.0000
  H   H32       1.0  0.5650934922865715  0.6251228362055555  0.730428676150403  1.0000
  H   H33       1.0  0.10847031286795067  0.2833977748791979  0.6011547770903433  1.0000
  H   H34       1.0  0.4926594815576379  0.7836579434516793  0.6004724057157986  1.0000
  H   H35       1.0  0.9192004826777235  0.4283896471248665  0.4833249297527685  1.0000
  H   H36       1.0  0.5644923360308312  0.9285556948767775  0.4827367367555481  1.0000
  H   H37       1.0  0.6541770770423697  0.5000160674394535  0.4151265415264974  1.0000
  H   H38       1.0  0.7619341708699351  0.0006457485520527987  0.41520171520679844  1.0000
  H   H39       1.0  0.4706526029614791  0.4133744157428722  0.48735139723029863  1.0000
  H   H40       1.0  0.017668275698177586  0.9142214342896008  0.48797446546925727  1.0000
  C   C1        1.0  0.21719712679220748  0.46307631080069445  0.3178513489921854  1.0000
  C   C2        1.0  0.1005466992625301  0.9632984117935804  0.3178540657980875  1.0000
  C   C3        1.0  0.2529516948340742  0.5804678104202381  0.3879203651442467  1.0000
  C   C4        1.0  0.1347548503932074  0.0807703711899279  0.387828018566104  1.0000
  C   C5        1.0  0.33710253223016906  0.6798154287662326  0.369955543122181  1.0000
  C   C6        1.0  0.032540697021140395  0.1799798636451868  0.3698173756999664  1.0000
  C   C7        1.0  0.3869171265795828  0.6636747138958867  0.28330201084135354  1.0000
  C   C8        1.0  0.8962087349310225  0.1637527583756651  0.28306084945038623  1.0000
  C   C9        1.0  0.46957733792696377  0.5648292725398463  0.06893008571920231  1.0000
  C   C10       1.0  0.5993238513425679  0.06471807629079508  0.06891173825962228  1.0000
  C   C11       1.0  0.4884055731894393  0.4990226932056814  0.9777732415929491  1.0000
  C   C12       1.0  0.48928527513123043  0.9989343557101832  0.9777846751823632  1.0000
  C   C13       1.0  0.4259927505228163  0.3731849467873261  0.9354618589160993  1.0000
  C   C14       1.0  0.5095557903741083  0.8732072536839722  0.9353597289644854  1.0000
  C   C15       1.0  0.34156399834807877  0.31176985692898995  0.9847585244299424  1.0000
  C   C16       1.0  0.6432578839079994  0.8117741641800504  0.9845659794733521  1.0000
  C   C17       1.0  0.24484980959901034  0.32791316859783837  0.14710565308960347  1.0000
  C   C18       1.0  0.9022697645970581  0.8279345615207634  0.14705312523256014  1.0000
  C   C19       1.0  0.2669480614956185  0.4461416426839832  0.23175308567586939  1.0000
  C   C20       1.0  0.9647853261481885  0.9462126960951875  0.23170592297418585  1.0000
  C   C21       1.0  0.3517250658002808  0.5462815905781467  0.21419360104374624  1.0000
  C   C22       1.0  0.8624367806812501  0.0462866156295192  0.2140609508177889  1.0000
  C   C23       1.0  0.38781874694844737  0.5024697837280314  0.11863263100558193  1.0000
  C   C24       1.0  0.730807700495852  0.0024199108582649985  0.1185162996188041  1.0000
  C   C25       1.0  0.3238522775188599  0.37576527484559097  0.07662036247121758  1.0000
  C   C26       1.0  0.7527672973309407  0.8757239308961785  0.07652164566383853  1.0000
  C   C27       1.0  0.3233136575035047  0.2109514380915058  0.20094720313492334  1.0000
  C   C28       1.0  0.8775551959810031  0.7109860752507443  0.20090681659122817  1.0000
  C   C29       1.0  0.0781456656749882  0.2913695398812877  0.0837296423337506  1.0000
  C   C30       1.0  0.005597528970547195  0.7913322110438441  0.08370974166606258  1.0000
  C   C31       1.0  0.2016533054550038  0.5983240915422383  0.48226676497788656  1.0000
  C   C32       1.0  0.28043160514639703  0.09878286350670612  0.48215598766816475  1.0000
  C   C33       1.0  0.4488596537178323  0.3067222242912705  0.8373240206064807  1.0000
  C   C34       1.0  0.388494175233582  0.8068543657361358  0.8372560529902913  1.0000
  C   C35       1.0  0.7121184173300961  0.03967793598412329  0.8002398235138841  1.0000
  C   C36       1.0  0.087535224355257  0.5397023923594304  0.8001734837961793  1.0000
  C   C37       1.0  0.8523496179201756  0.9855769105245713  0.8418707413185089  1.0000
  C   C38       1.0  0.9886563042324779  0.48552124143525077  0.8415514028867647  1.0000
  C   C39       1.0  0.9671070691819851  0.022535511149470697  0.8101697496021317  1.0000
  C   C40       1.0  0.8422603846710928  0.5225575736028459  0.8096304837304585  1.0000
  C   C41       1.0  0.0532627472014013  0.16092999497130478  0.699893122894167  1.0000
  C   C42       1.0  0.6462245273199727  0.6610664821723375  0.6992112013371709  1.0000
  C   C43       1.0  0.0214999381750118  0.2499813712535968  0.6278185982271792  1.0000
  C   C44       1.0  0.6062510799839772  0.7502219691468993  0.6272278270307369  1.0000
  C   C45       1.0  0.8342284376677824  0.3893029902001357  0.5094611391407113  1.0000
  C   C46       1.0  0.6756825396414001  0.8896645554334485  0.5091373173919251  1.0000
  C   C47       1.0  0.6891266344109822  0.4298043113922246  0.4728784473737448  1.0000
  C   C48       1.0  0.7845014677716975  0.9304073392760158  0.47292329060664423  1.0000
  C   C49       1.0  0.5852794567939981  0.38239040118902773  0.5131676752444747  1.0000
  C   C50       1.0  0.9286447142846512  0.8831193702771145  0.5135415121467588  1.0000
  C   C51       1.0  0.941561434492229  0.11529262982475068  0.736664709559335  1.0000
  C   C52       1.0  0.7946293589677608  0.6154017684099031  0.7361708208341327  1.0000
  C   C53       1.0  0.7961370263688252  0.16330443776269019  0.6975499093569725  1.0000
  C   C54       1.0  0.9012010066035998  0.6634708750697624  0.697304756161735  1.0000
  C   C55       1.0  0.76236738399907  0.2553898763811802  0.6204524945839864  1.0000
  C   C56       1.0  0.8582521960381584  0.7557299749987294  0.6203218772440097  1.0000
  C   C57       1.0  0.8747638445787017  0.2983272141601034  0.5850482045412875  1.0000
  C   C58       1.0  0.7104482406720009  0.7986500140483483  0.584680890579051  1.0000
  N   N1        1.0  0.6850619132835547  0.1251747028762793  0.7295303132136226  1.0000
  N   N2        1.0  0.0442182742721826  0.6252588572771599  0.7294817366926196  1.0000
  N   N3        1.0  0.6218664365904303  0.2985885681009961  0.5854318456164691  1.0000
  N   N4        1.0  0.9640142490183621  0.7990972022741402  0.5856294043885127  1.0000
  O   O1        1.0  0.1172886612953832  0.5144823430875647  0.4941497381104795  1.0000
  O   O2        1.0  0.37680643752032944  0.015084568111085193  0.4940081552524233  1.0000
  O   O3        1.0  0.2515718388242831  0.7047625425891154  0.5483065727074106  1.0000
  O   O4        1.0  0.2965342179850055  0.20516557689020226  0.5482547728681837  1.0000
  O   O5        1.0  0.5136938882443545  0.37176306844442303  0.7883458956543592  1.0000
  O   O6        1.0  0.2746482543808142  0.8718918719548868  0.7884599252955837  1.0000
  O   O7        1.0  0.4050519187458264  0.18911895823135436  0.803038840077896  1.0000
  O   O8        1.0  0.3980227973050389  0.6893029970754513  0.8027896428488219  1.0000
