data_image0
_chemical_formula_structural       Ag4H24C28N4O8
_chemical_formula_sum              "Ag4 H24 C28 N4 O8"
_cell_length_a       5.412992063711502
_cell_length_b       7.620038342805407
_cell_length_c       16.961794891221835
_cell_angle_alpha    90.00033874270702
_cell_angle_beta     89.99876099243791
_cell_angle_gamma    93.4135952872812

_space_group_name_H-M_alt    "P 1"
_space_group_IT_number       1

loop_
  _space_group_symop_operation_xyz
  'x, y, z'

loop_
  _atom_site_type_symbol
  _atom_site_label
  _atom_site_symmetry_multiplicity
  _atom_site_fract_x
  _atom_site_fract_y
  _atom_site_fract_z
  _atom_site_occupancy
  Ag  Ag1       1.0  0.10681885079944209  0.9493927445194073  0.722135532395335  1.0000
  Ag  Ag2       1.0  0.39318647169546495  0.050588672777493605  0.22213805369534617  1.0000
  Ag  Ag3       1.0  0.8931942714049085  0.050605568524751704  0.2778652522069579  1.0000
  Ag  Ag4       1.0  0.6068243577312417  0.9494057250625189  0.7778639100296733  1.0000
  H   H1        1.0  0.8063168480455121  0.3237223205466081  0.43433693150712593  1.0000
  H   H2        1.0  0.693700661456262  0.6762509828082202  0.9343313998247215  1.0000
  H   H3        1.0  0.1936735855501581  0.6763039846189541  0.565664442762426  1.0000
  H   H4        1.0  0.30631236382541266  0.3237302155731285  0.06566643695486363  1.0000
  H   H5        1.0  0.9042849117784189  0.46746284864694587  0.5641797863720017  1.0000
  H   H6        1.0  0.5956792362236242  0.5325314321048822  0.06417420451807493  1.0000
  H   H7        1.0  0.0957006375843079  0.5325529973718518  0.4358227670201133  1.0000
  H   H8        1.0  0.4043334904233333  0.4674471375317354  0.9358212740181177  1.0000
  H   H9        1.0  0.6001894714636221  0.4423010944609302  0.6735960186237764  1.0000
  H   H10       1.0  0.8997519501562509  0.5576945729104849  0.17359330339220955  1.0000
  H   H11       1.0  0.3998007156987882  0.5577067816976607  0.3264065347436046  1.0000
  H   H12       1.0  0.1002606270874722  0.44228268236629736  0.8264033542632778  1.0000
  H   H13       1.0  0.11469812166399862  0.11136386908506778  0.5282775990779529  1.0000
  H   H14       1.0  0.3852890126489044  0.8886238749178047  0.02827227961370941  1.0000
  H   H15       1.0  0.8853009901542421  0.8886412388862936  0.4717220064565811  1.0000
  H   H16       1.0  0.6147047144823077  0.11138263109580751  0.9717296841805384  1.0000
  H   H17       1.0  0.9931494166122902  0.23527871446012943  0.6520814651991886  1.0000
  H   H18       1.0  0.5068135197124946  0.7646808737080234  0.15207939157122755  1.0000
  H   H19       1.0  0.006854183473578207  0.7647171093100058  0.34792285679139234  1.0000
  H   H20       1.0  0.4931842478845569  0.23531240496532044  0.8479196243922406  1.0000
  H   H21       1.0  0.1964151630935405  0.3312774388591251  0.7154494404881151  1.0000
  H   H22       1.0  0.3035206990177031  0.668706281425024  0.21544820291996572  1.0000
  H   H23       1.0  0.8035890345623216  0.6687236423565962  0.2845513441457826  1.0000
  H   H24       1.0  0.696489383779287  0.33128154455942393  0.7845490443170607  1.0000
  C   C1        1.0  0.6790069008506877  0.3088392315886921  0.4838373811861205  1.0000
  C   C2        1.0  0.8209814770092904  0.6911376172983171  0.9838310861880193  1.0000
  C   C3        1.0  0.32098572851406004  0.6911738741307476  0.516162224378981  1.0000
  C   C4        1.0  0.17901723931596794  0.3088477472560954  0.016161444599667608  1.0000
  C   C5        1.0  0.7332992602348228  0.38652117380922135  0.5566255964742128  1.0000
  C   C6        1.0  0.7666877230445266  0.6134740063424221  0.05662327123396691  1.0000
  C   C7        1.0  0.26669027707025356  0.6134972451785644  0.44337931514961343  1.0000
  C   C8        1.0  0.23333253132035742  0.3865057661464207  0.9433792820030438  1.0000
  C   C9        1.0  0.5656164238615632  0.36826177481161443  0.6191141811708862  1.0000
  C   C10       1.0  0.9343274199552312  0.6317359698226711  0.11910907846368705  1.0000
  C   C11       1.0  0.4343703728211423  0.6317487858392425  0.38088542440933565  1.0000
  C   C12       1.0  0.065677427794121  0.3682545685293732  0.880882862751037  1.0000
  C   C13       1.0  0.3440212743604931  0.2661686887182029  0.6093009287623945  1.0000
  C   C14       1.0  0.155938121407452  0.7338228802937864  0.10930373359981625  1.0000
  C   C15       1.0  0.6559762914171684  0.7338390758889022  0.3907016245816239  1.0000
  C   C16       1.0  0.8440572039013787  0.26616516883125035  0.8907005884069154  1.0000
  C   C17       1.0  0.2886347154889819  0.18869551472842258  0.5362527211139538  1.0000
  C   C18       1.0  0.2113302995178259  0.8112979062064272  0.036248889281679915  1.0000
  C   C19       1.0  0.7113605576828022  0.8113083346494535  0.4637462948708093  1.0000
  C   C20       1.0  0.7886614337495602  0.1887073133070203  0.9637489475954698  1.0000
  C   C21       1.0  0.4522310652453143  0.21374332346442063  0.47303605100662355  1.0000
  C   C22       1.0  0.04777074097733451  0.7862405387078581  0.9730334862459533  1.0000
  C   C23       1.0  0.5477645065611797  0.7862631546581866  0.5269653232215392  1.0000
  C   C24       1.0  0.9522347038482265  0.2137552571618713  0.026968477497796114  1.0000
  C   C25       1.0  0.3719161754999263  0.14799760495443343  0.3930116703116583  1.0000
  C   C26       1.0  0.1280960970101077  0.8519774363834571  0.8930058194804436  1.0000
  C   C27       1.0  0.6280858264941996  0.8520166756917362  0.6069879352254406  1.0000
  C   C28       1.0  0.8718981307040111  0.14801721242232455  0.10699142781516002  1.0000
  N   N1        1.0  0.17207442348164653  0.23946046348175537  0.672058945163315  1.0000
  N   N2        1.0  0.32787995351100113  0.7605278297650672  0.17205837750422157  1.0000
  N   N3        1.0  0.8279204015877824  0.7605394428009619  0.32794066037809  1.0000
  N   N4        1.0  0.6721274854789527  0.23946925256094434  0.8279394593131502  1.0000
  O   O1        1.0  0.5109251646429698  0.19452526929123343  0.3340104606764457  1.0000
  O   O2        1.0  0.9891119669393265  0.8054415145513544  0.8340069358186288  1.0000
  O   O3        1.0  0.4890779351605516  0.8054824116428492  0.665990323969304  1.0000
  O   O4        1.0  0.010885203259476806  0.19454650665133502  0.1659909010195336  1.0000
  O   O5        1.0  0.1681025478501468  0.0581173148935932  0.38820728134741983  1.0000
  O   O6        1.0  0.3319223371825686  0.9418680229862064  0.8882068615402192  1.0000
  O   O7        1.0  0.8318908283160837  0.941902362656336  0.6117923242236929  1.0000
  O   O8        1.0  0.6680747806644974  0.05813579850066469  0.11179156487845185  1.0000
