data_image0
_chemical_formula_structural       Zn8H44C92O44
_chemical_formula_sum              "Zn8 H44 C92 O44"
_cell_length_a       12.575615439895726
_cell_length_b       16.32649439060455
_cell_length_c       19.703306209394565
_cell_angle_alpha    93.52263279785096
_cell_angle_beta     89.99313290504492
_cell_angle_gamma    89.97736313846579

_space_group_name_H-M_alt    "P 1"
_space_group_IT_number       1

loop_
  _space_group_symop_operation_xyz
  'x, y, z'

loop_
  _atom_site_type_symbol
  _atom_site_label
  _atom_site_symmetry_multiplicity
  _atom_site_fract_x
  _atom_site_fract_y
  _atom_site_fract_z
  _atom_site_occupancy
  Zn  Zn1       1.0  0.429704357411005  0.8559007333709657  0.7862663601126769  1.0000
  Zn  Zn2       1.0  0.9292157808130669  0.14433354731273335  0.713980739512337  1.0000
  Zn  Zn3       1.0  0.5710097417708084  0.14457878906591048  0.21421097316807192  1.0000
  Zn  Zn4       1.0  0.07087117746795  0.8554066350086555  0.2858356740346082  1.0000
  Zn  Zn5       1.0  0.871557898266559  0.33516767440832496  0.6518787800204393  1.0000
  Zn  Zn6       1.0  0.3714507958801789  0.664536731399906  0.8479526191884261  1.0000
  Zn  Zn7       1.0  0.1284462305719529  0.6649983141257536  0.3481391456501726  1.0000
  Zn  Zn8       1.0  0.6283769455540167  0.3351518978956419  0.1518450383887213  1.0000
  H   H1        1.0  0.4255397053855462  0.9155277276923994  0.90722366417765  1.0000
  H   H2        1.0  0.9249758747807633  0.08557512344055598  0.5928961214270032  1.0000
  H   H3        1.0  0.575330000097253  0.0860630342440487  0.0930730366760955  1.0000
  H   H4        1.0  0.0749178481954829  0.9141999604453657  0.40688495474689995  1.0000
  H   H5        1.0  0.4171984277549612  0.9930658596205788  0.8667611558654684  1.0000
  H   H6        1.0  0.9172606824257201  0.0080242845613725  0.6333756864119523  1.0000
  H   H7        1.0  0.5832498131102144  0.008553970570254399  0.1335912837624704  1.0000
  H   H8        1.0  0.08303385747059623  0.9916381316443005  0.3662958241228651  1.0000
  H   H9        1.0  0.22072301695038732  0.16358674987957755  0.6452435321991531  1.0000
  H   H10       1.0  0.7204672829431333  0.83657526987961  0.8549455457834796  1.0000
  H   H11       1.0  0.77937191614204  0.8361516751862296  0.3543916067849082  1.0000
  H   H12       1.0  0.27935694765987057  0.16398855975652535  0.1457780269921543  1.0000
  H   H13       1.0  0.4508595126508084  0.2542443438098232  0.5052228860797213  1.0000
  H   H14       1.0  0.9508499118680762  0.7456293492628204  0.9947151421131508  1.0000
  H   H15       1.0  0.5488711044227089  0.7459715384807809  0.4944259750896621  1.0000
  H   H16       1.0  0.048922157612608395  0.2538593978430299  0.0055488029515515964  1.0000
  H   H17       1.0  0.1204065298910706  0.32443150718122377  0.4939820500752532  1.0000
  H   H18       1.0  0.6204437250805982  0.6754600967164562  0.0060721236440031065  1.0000
  H   H19       1.0  0.8791548103856996  0.6753178535584112  0.5057967614836016  1.0000
  H   H20       1.0  0.3791564612122897  0.3245238401772568  0.9941952402949498  1.0000
  H   H21       1.0  0.6591636757694559  0.07152236337727662  0.7245796532718529  1.0000
  H   H22       1.0  0.158826986335832  0.9289819220433628  0.7757207623895681  1.0000
  H   H23       1.0  0.3410249428575441  0.9287758398827746  0.2751295586204989  1.0000
  H   H24       1.0  0.8409162206225888  0.07132796856889459  0.22481529260160468  1.0000
  H   H25       1.0  0.5525330616104185  0.2600232535862616  0.5980028723284151  1.0000
  H   H26       1.0  0.0525060066344665  0.7398780451914175  0.9017564733009634  1.0000
  H   H27       1.0  0.4475285304456876  0.7396998143535284  0.4012036680866373  1.0000
  H   H28       1.0  0.9475497534243615  0.2602868072148041  0.0987161427776044  1.0000
  H   H29       1.0  0.33874842385662873  0.06419809899445279  0.648633129006086  1.0000
  H   H30       1.0  0.8383293854323385  0.9357903776528572  0.8515549602582837  1.0000
  H   H31       1.0  0.661360748151111  0.9357470403874117  0.3511928022721236  1.0000
  H   H32       1.0  0.16138051253044955  0.06419716518753658  0.1489029011302279  1.0000
  H   H33       1.0  0.39059393055883634  0.45284858159488534  0.2696170695342062  1.0000
  H   H34       1.0  0.8907563585689503  0.5469570229811395  0.2303374795732935  1.0000
  H   H35       1.0  0.6098238258942246  0.5469428090465197  0.7301038868724703  1.0000
  H   H36       1.0  0.1095580460295338  0.45257824294596816  0.7697074434781328  1.0000
  H   H37       1.0  0.2018077109952046  0.4371200502539735  0.45009889654320284  1.0000
  H   H38       1.0  0.7020357649152729  0.562806455917091  0.04987352367567151  1.0000
  H   H39       1.0  0.7974777228686777  0.5627916647573129  0.5491610474496511  1.0000
  H   H40       1.0  0.2977044396080686  0.4369002030254164  0.9504208754692839  1.0000
  H   H41       1.0  0.427246950397091  0.24485494362544094  0.39079620021892236  1.0000
  H   H42       1.0  0.9272361019095712  0.7550631519551272  0.1092654647255173  1.0000
  H   H43       1.0  0.5727786563834698  0.7552577849094959  0.6092642897933942  1.0000
  H   H44       1.0  0.0725717065557845  0.2446468567224613  0.8909189623783434  1.0000
  C   C1        1.0  0.04978701279532061  0.24017150550269406  0.5994309092017858  1.0000
  C   C2        1.0  0.5495615814511012  0.7599232887566386  0.9007212367843422  1.0000
  C   C3        1.0  0.9502204073009609  0.7595917104194  0.4004947371666745  1.0000
  C   C4        1.0  0.4501943538161158  0.24046334184299667  0.0996201273162853  1.0000
  C   C5        1.0  0.16066401163481464  0.24256577823265246  0.5713015481565834  1.0000
  C   C6        1.0  0.6604829017649864  0.7574527184240621  0.9288070286705974  1.0000
  C   C7        1.0  0.8392416420737236  0.7572153366657515  0.42844429558544317  1.0000
  C   C8        1.0  0.33922375307233926  0.24279555154293317  0.0716366876256203  1.0000
  C   C9        1.0  0.24130064624041841  0.1993936071120146  0.6022288343707344  1.0000
  C   C10       1.0  0.7410964234748223  0.8006517343465731  0.8978844283637032  1.0000
  C   C11       1.0  0.7586988465548716  0.800405637387165  0.3974270457838003  1.0000
  C   C12       1.0  0.25870483274783856  0.19964227619519895  0.10267977753795782  1.0000
  C   C13       1.0  0.3478978155698655  0.205541855794479  0.5804334731818344  1.0000
  C   C14       1.0  0.8477795095560482  0.7944088271226873  0.9196030642719818  1.0000
  C   C15       1.0  0.6520340679368888  0.7943499406721273  0.4191853185954741  1.0000
  C   C16       1.0  0.1520894157878132  0.20562164033225364  0.0808548625479872  1.0000
  C   C17       1.0  0.3694759571479906  0.25073479571504725  0.5238989733090875  1.0000
  C   C18       1.0  0.869446980308915  0.7491763084212903  0.9761020089431582  1.0000
  C   C19       1.0  0.6302690118991023  0.7493105907126673  0.475777074504947  1.0000
  C   C20       1.0  0.13033376048765183  0.2505923887155888  0.0242177551891842  1.0000
  C   C21       1.0  0.2888081524250694  0.2923626868117849  0.4908939387781572  1.0000
  C   C22       1.0  0.7888168730096157  0.7075691790457698  0.009139645319493215  1.0000
  C   C23       1.0  0.7108064193441948  0.7076098017970408  0.5088150887329945  1.0000
  C   C24       1.0  0.2108533207656222  0.29227310684874647  0.991160375043485  1.0000
  C   C25       1.0  0.18426739743890863  0.29035563321635033  0.5168678140057352  1.0000
  C   C26       1.0  0.6842267264761617  0.7095931229968997  0.9831878909064642  1.0000
  C   C27       1.0  0.8154076418064592  0.7094684423519128  0.48286897162816433  1.0000
  C   C28       1.0  0.3154020687524479  0.2904321006655053  0.017141888028554295  1.0000
  C   C29       1.0  0.4740459826001101  0.9852837890642405  0.7264061311517338  1.0000
  C   C30       1.0  0.9732627004344822  0.014860719402193499  0.7738114139760981  1.0000
  C   C31       1.0  0.5264058545547671  0.014863440729357094  0.2735159569219334  1.0000
  C   C32       1.0  0.026198316544885407  0.9851405807908548  0.2265111087447735  1.0000
  C   C33       1.0  0.7221459586176878  0.20963541153864898  0.6680942222965953  1.0000
  C   C34       1.0  0.2221440148061191  0.7906091277714109  0.8317379565746207  1.0000
  C   C35       1.0  0.2779886908451914  0.7903950057743713  0.3313095542035924  1.0000
  C   C36       1.0  0.7779133130743007  0.20970144204660807  0.16862759312802922  1.0000
  C   C37       1.0  0.4962045740066188  0.0603941210087342  0.6895503441441592  1.0000
  C   C38       1.0  0.9957563897246048  0.9397946802255248  0.8106448470705487  1.0000
  C   C39       1.0  0.5039840887635095  0.9396986856484021  0.3102102315924142  1.0000
  C   C40       1.0  0.003918489173585701  0.06032474570972109  0.1897991653187248  1.0000
  C   C41       1.0  0.5964014215696879  0.0976651005725344  0.6945104706311795  1.0000
  C   C42       1.0  0.09610279802665643  0.902642435076764  0.8056724712507161  1.0000
  C   C43       1.0  0.40374588955267404  0.9024899786990302  0.3051409881267162  1.0000
  C   C44       1.0  0.9036666743288748  0.09758941147281767  0.1948237307165144  1.0000
  C   C45       1.0  0.6157127093577799  0.16927929323844637  0.6606522569957606  1.0000
  C   C46       1.0  0.11557774219325273  0.8308931899911441  0.8393327346916877  1.0000
  C   C47       1.0  0.3844020582666162  0.8307292147289473  0.3388118594842169  1.0000
  C   C48       1.0  0.8843555437271462  0.16933486531347341  0.1611348558034749  1.0000
  C   C49       1.0  0.5355117827728223  0.2033911692938517  0.6224955680623906  1.0000
  C   C50       1.0  0.0354271229148537  0.7966031778033268  0.8774133645536679  1.0000
  C   C51       1.0  0.46455452975801853  0.7964477707449402  0.3768897082277647  1.0000
  C   C52       1.0  0.9645459361349396  0.20356049761557668  0.123071884387997  1.0000
  C   C53       1.0  0.4337845939665926  0.16738394781322796  0.6182241010190168  1.0000
  C   C54       1.0  0.9336099692040847  0.8325998521379316  0.8818100484914524  1.0000
  C   C55       1.0  0.5662490886827243  0.8324818631214866  0.3813264229240545  1.0000
  C   C56       1.0  0.06627802001726481  0.1674939301908012  0.1186890397775855  1.0000
  C   C57       1.0  0.415528688599835  0.09514163884553276  0.6519921803852143  1.0000
  C   C58       1.0  0.9151781763231241  0.9049072879745523  0.8481527010669865  1.0000
  C   C59       1.0  0.5845844671217364  0.9048258898639003  0.3477267420030756  1.0000
  C   C60       1.0  0.084580208708573  0.09515390835829858  0.1523163748982483  1.0000
  C   C61       1.0  0.49263989637594113  0.30413609689684756  0.2754732126899029  1.0000
  C   C62       1.0  0.9925866705663327  0.6957449983311362  0.2245821892402233  1.0000
  C   C63       1.0  0.5077642517463801  0.6957995431123647  0.7246882313535252  1.0000
  C   C64       1.0  0.007460516966737902  0.30391797833602396  0.7754781235893802  1.0000
  C   C65       1.0  0.23500269972060295  0.5297263431786874  0.3450689385630882  1.0000
  C   C66       1.0  0.735102356676734  0.470175893016318  0.1548645173737029  1.0000
  C   C67       1.0  0.7653045386597556  0.47022458521594496  0.6542284238902596  1.0000
  C   C68       1.0  0.2650267639909956  0.5293808645079848  0.8451758790146685  1.0000
  C   C69       1.0  0.41661547792254094  0.3446614008763332  0.3258018921475809  1.0000
  C   C70       1.0  0.9166877164994532  0.6552004274844877  0.1742058092140653  1.0000
  C   C71       1.0  0.5835326455020535  0.6552846435411438  0.674126096011328  1.0000
  C   C72       1.0  0.08333323064442771  0.3444338609945916  0.8259043615528726  1.0000
  C   C73       1.0  0.36853166058308773  0.41974463759676434  0.313856737498611  1.0000
  C   C74       1.0  0.8686903634863583  0.5800785413012832  0.1861135350035568  1.0000
  C   C75       1.0  0.6316324167076603  0.5801081168317663  0.6858525089146568  1.0000
  C   C76       1.0  0.1314562382895801  0.4195010905692483  0.8139868534049484  1.0000
  C   C77       1.0  0.28984227444568234  0.4513595137221599  0.3585210379485346  1.0000
  C   C78       1.0  0.7900315788074438  0.5484840252030023  0.14143558947868937  1.0000
  C   C79       1.0  0.7100800925590961  0.5484901985834438  0.6409733806019347  1.0000
  C   C80       1.0  0.21002674412800812  0.45112459168151986  0.8587103742604612  1.0000
  C   C81       1.0  0.26173465110499455  0.40978293909235924  0.41573861850258  1.0000
  C   C82       1.0  0.7619105244453908  0.590115128332215  0.0842455012704733  1.0000
  C   C83       1.0  0.7378155603887253  0.5901109129016716  0.5837224418708189  1.0000
  C   C84       1.0  0.23790761771336122  0.40958337612794776  0.9159921610466101  1.0000
  C   C85       1.0  0.3133604061455344  0.3361902318994153  0.4298283315272897  1.0000
  C   C86       1.0  0.8134526772747463  0.6637214043206611  0.070189266234479  1.0000
  C   C87       1.0  0.6862279231256495  0.6637926605583644  0.5698700399257177  1.0000
  C   C88       1.0  0.18626287417179546  0.3360206923652811  0.9300525612950635  1.0000
  C   C89       1.0  0.3899381222469672  0.3039378533838216  0.3835747833403644  1.0000
  C   C90       1.0  0.8900022636099223  0.6959632788782668  0.1164474095354322  1.0000
  C   C91       1.0  0.6099610879740496  0.6960928568078657  0.6163370517230576  1.0000
  C   C92       1.0  0.10983974127001518  0.30373505736994116  0.8837339080386002  1.0000
  O   O1        1.0  0.9902126633502776  0.30061968072601525  0.5878807286476615  1.0000
  O   O2        1.0  0.49019034281425894  0.6992752219170626  0.9118882751334071  1.0000
  O   O3        1.0  0.009917142858348901  0.6993020062639558  0.4123201349832968  1.0000
  O   O4        1.0  0.5098250028593727  0.3007350654278085  0.087759657048835  1.0000
  O   O5        1.0  0.0256059436878289  0.17855849683675729  0.6330100757259274  1.0000
  O   O6        1.0  0.5251874437094841  0.8218514399993424  0.8675399182482125  1.0000
  O   O7        1.0  0.974435719322507  0.8210797113519772  0.3667622709130143  1.0000
  O   O8        1.0  0.4744227825455242  0.17901059365254204  0.13338501857399623  1.0000
  O   O9        1.0  0.3879469087047483  0.9451931287485136  0.7153833004584982  1.0000
  O   O10       1.0  0.8869297139282324  0.05474632071153  0.7847485582656404  1.0000
  O   O11       1.0  0.6127857115827028  0.05464103643940629  0.28450519501087257  1.0000
  O   O12       1.0  0.11252017897522391  0.9452444098709092  0.21552573984769202  1.0000
  O   O13       1.0  0.539950967650988  0.9612049621971152  0.7704804970517571  1.0000
  O   O14       1.0  0.039175086290953204  0.0391259167326155  0.7297705169309836  1.0000
  O   O15       1.0  0.4604673615829995  0.03930964979736021  0.22959964149104908  1.0000
  O   O16       1.0  0.9601953073474621  0.9608253229390085  0.2704231842735894  1.0000
  O   O17       1.0  0.7470995492653998  0.2637993763723542  0.6268878903158637  1.0000
  O   O18       1.0  0.2468526185518911  0.7358326313166966  0.8724633475147883  1.0000
  O   O19       1.0  0.25293486592359227  0.73634851916848  0.3726084231984643  1.0000
  O   O20       1.0  0.7527692248109973  0.2636607261349936  0.12726944257450157  1.0000
  O   O21       1.0  0.7804295680840029  0.18775768549937058  0.71645089792721  1.0000
  O   O22       1.0  0.2806449280321104  0.8131950400399857  0.7837635557919569  1.0000
  O   O23       1.0  0.2198243807332929  0.8122185403237836  0.28289185855178545  1.0000
  O   O24       1.0  0.7198057416415155  0.1879839379262549  0.2171144365820297  1.0000
  O   O25       1.0  0.5349022736541472  0.3497870140838017  0.23278519539161377  1.0000
  O   O26       1.0  0.034959936571773695  0.6500785756897826  0.267222464087979  1.0000
  O   O27       1.0  0.4647807583030429  0.6498890854454372  0.7669159298072543  1.0000
  O   O28       1.0  0.965007700836374  0.34966505781517293  0.7329290915573807  1.0000
  O   O29       1.0  0.5052428250217318  0.2275799309077584  0.2800814424840752  1.0000
  O   O30       1.0  0.004984895661017703  0.7723416749471139  0.22006552838116283  1.0000
  O   O31       1.0  0.4960144399260855  0.7725383826432831  0.72069947414262  1.0000
  O   O32       1.0  0.9951473950213767  0.22730317945759984  0.7798868067886318  1.0000
  O   O33       1.0  0.1643720660491397  0.5577498449396215  0.3880261289544578  1.0000
  O   O34       1.0  0.6643020774707936  0.44235816168157527  0.11196831200179962  1.0000
  O   O35       1.0  0.836157758429991  0.4424435821461045  0.6113307977769864  1.0000
  O   O36       1.0  0.33553831545184204  0.5574645180817512  0.8881404208731142  1.0000
  O   O37       1.0  0.2570916152062921  0.5682645332504206  0.2932055340343567  1.0000
  O   O38       1.0  0.757201381084336  0.4315113088627101  0.20664089485593  1.0000
  O   O39       1.0  0.7434471116049225  0.4313737833173121  0.7060004007807308  1.0000
  O   O40       1.0  0.24317276315703407  0.5677184080448042  0.7932002787892074  1.0000
  O   O41       1.0  0.37730081398566284  0.9444583607144137  0.8778959585117434  1.0000
  O   O42       1.0  0.8769880928914235  0.056496274108511095  0.6222683376472986  1.0000
  O   O43       1.0  0.6233748709993351  0.05707068241378719  0.122476395586439  1.0000
  O   O44       1.0  0.12310048900469181  0.9431205121382785  0.37752478367691106  1.0000
