data_image0
_chemical_formula_structural       Zn2H46C65N7Cl3O12
_chemical_formula_sum              "Zn2 H46 C65 N7 Cl3 O12"
_cell_length_a       14.646934533994795
_cell_length_b       16.025273293073756
_cell_length_c       28.063167738761635
_cell_angle_alpha    89.95887484155716
_cell_angle_beta     89.54749334459031
_cell_angle_gamma    90.00511081424624

_space_group_name_H-M_alt    "P 1"
_space_group_IT_number       1

loop_
  _space_group_symop_operation_xyz
  'x, y, z'

loop_
  _atom_site_type_symbol
  _atom_site_label
  _atom_site_symmetry_multiplicity
  _atom_site_fract_x
  _atom_site_fract_y
  _atom_site_fract_z
  _atom_site_occupancy
  Zn  Zn1       1.0  0.4058774247419025  0.4987558274728841  0.5014954029474482  1.0000
  Zn  Zn2       1.0  0.5947460655485418  0.5001904663967378  0.5025095399066544  1.0000
  H   H1        1.0  0.35075192456789495  0.5178469836007622  0.6517381892082528  1.0000
  H   H2        1.0  0.4555631952152695  0.9258768149343053  0.43066325000641115  1.0000
  H   H3        1.0  0.6138324708409897  0.9278930521029093  0.45678873237155676  1.0000
  H   H4        1.0  0.6452695830531496  0.9218944554688447  0.5167365547598736  1.0000
  H   H5        1.0  0.364436575072098  0.9290765412024552  0.472558191645696  1.0000
  H   H6        1.0  0.345682649571053  0.5220779254619216  0.7412796177651515  1.0000
  H   H7        1.0  0.6419754960717512  0.06876702067825137  0.5236532373861778  1.0000
  H   H8        1.0  0.367929168227306  0.07483370158708878  0.4699933178990038  1.0000
  H   H9        1.0  0.39564063328257515  0.07387652505276782  0.5579098490576797  1.0000
  H   H10       1.0  0.5074143719982231  0.07261381524268269  0.5806172200107582  1.0000
  H   H11       1.0  0.08508187834735992  0.6311063930564771  0.4758941798227668  1.0000
  H   H12       1.0  0.6382227671693743  0.5019673184969661  0.7445487998594873  1.0000
  H   H13       1.0  0.9272549805564055  0.6233886530996174  0.4651436652386353  1.0000
  H   H14       1.0  0.9299821855103476  0.3892205785888336  0.4549527929053028  1.0000
  H   H15       1.0  0.08294369723919463  0.3998127885021388  0.44521913696701193  1.0000
  H   H16       1.0  0.9247664373995477  0.48602977036627926  0.5734226071782731  1.0000
  H   H17       1.0  0.0833678327739307  0.46718774045305606  0.5717974344420399  1.0000
  H   H18       1.0  0.9152152492585658  0.390660382213987  0.5423462954142053  1.0000
  H   H19       1.0  0.07412390779388289  0.38105727324205657  0.5329772097467187  1.0000
  H   H20       1.0  0.9157792478210711  0.6251972248232462  0.527947759806736  1.0000
  H   H21       1.0  0.0744722350613856  0.6140266470617277  0.537969214590639  1.0000
  H   H22       1.0  0.3715850654580494  0.5518125671573698  0.35492662201951936  1.0000
  H   H23       1.0  0.4211462863975656  0.31562786752636635  0.8776975026619952  1.0000
  H   H24       1.0  0.3632193842240667  0.5609356186463044  0.2659259117347474  1.0000
  H   H25       1.0  0.5293738520868558  0.7140534269383282  0.126294272738221  1.0000
  H   H26       1.0  0.5301286117124633  0.7194744516040642  0.038366544792282305  1.0000
  H   H27       1.0  0.535088024183672  0.71907876948044  0.969613790168559  1.0000
  H   H28       1.0  0.6422595617080945  0.4964308038240829  0.6550648153943897  1.0000
  H   H29       1.0  0.3763503768820585  0.8560214393924849  0.5690616308334314  1.0000
  H   H30       1.0  0.24961784671828016  0.9165227544666334  0.5995368709499616  1.0000
  H   H31       1.0  0.27548369958886104  0.014617624081587599  0.5743582828450542  1.0000
  H   H32       1.0  0.33120475407183386  0.9822428903185952  0.6274013546276438  1.0000
  H   H33       1.0  0.5926099199130022  0.9321941954623439  0.5815662608059995  1.0000
  H   H34       1.0  0.4433014069764171  0.3033853130712315  0.0341253471689313  1.0000
  H   H35       1.0  0.5645843637178914  0.911328337001251  0.6613107248686916  1.0000
  H   H36       1.0  0.4460266939404607  0.901575663998713  0.6515200700595616  1.0000
  H   H37       1.0  0.4985406672798549  0.0019911836365266995  0.6480612338154543  1.0000
  H   H38       1.0  0.5443935920639903  0.7875940401455777  0.9078559856582731  1.0000
  H   H39       1.0  0.5069793798932309  0.848259935071354  0.8389406108338451  1.0000
  H   H40       1.0  0.41108140326846154  0.7797912210022773  0.8444587753954877  1.0000
  H   H41       1.0  0.5068529953701885  0.750997991802265  0.8078568928815459  1.0000
  H   H42       1.0  0.4479927199647521  0.3021091651723465  0.12219198179646902  1.0000
  H   H43       1.0  0.62590614503727  0.4410950552585574  0.2560160685184982  1.0000
  H   H44       1.0  0.4264357165841305  0.3083294563303554  0.9658479158582197  1.0000
  H   H45       1.0  0.46060108147922574  0.07207750757945058  0.42943384385340283  1.0000
  H   H46       1.0  0.6247485084849415  0.07326706336689878  0.4615336808645553  1.0000
  C   C1        1.0  0.49728048072648795  0.6613524398801544  0.5006971753189904  1.0000
  C   C2        1.0  0.5034015771018049  0.5879164722024725  0.0284532728355416  1.0000
  C   C3        1.0  0.4686971256727476  0.4356467394894706  0.0269603106787386  1.0000
  C   C4        1.0  0.49915105953844124  0.5036585044616969  0.5949104220151613  1.0000
  C   C5        1.0  0.48666388440227604  0.5108512113604889  0.05259666991769051  1.0000
  C   C6        1.0  0.5182077208739103  0.6596481816139388  0.0557329095771948  1.0000
  C   C7        1.0  0.518004542103789  0.6576336761928943  0.1054787964669046  1.0000
  C   C8        1.0  0.5034233980869871  0.5831171987985896  0.1296406947170112  1.0000
  C   C9        1.0  0.4878684225424764  0.5089120360985078  0.1036066204431165  1.0000
  C   C10       1.0  0.47354793520209176  0.4327083333379989  0.1281387941317362  1.0000
  C   C11       1.0  0.4751633628024691  0.4287807995796484  0.18075771765137466  1.0000
  C   C12       1.0  0.4104502638505352  0.5172771178628324  0.7220897027377475  1.0000
  C   C13       1.0  0.5048489340672903  0.5828938120693437  0.18237885956704503  1.0000
  C   C14       1.0  0.4223794916051703  0.5334682846862009  0.2832330983142413  1.0000
  C   C15       1.0  0.4274024542335653  0.5288460651403355  0.33261894124763813  1.0000
  C   C16       1.0  0.5000790688922693  0.3374431163782816  0.5038679237361025  1.0000
  C   C17       1.0  0.5753806272398735  0.46377929619918484  0.3272003892131892  1.0000
  C   C18       1.0  0.5706231654028644  0.46698124304920424  0.2775457635220988  1.0000
  C   C19       1.0  0.4946043964918446  0.502208099558075  0.2559941942520041  1.0000
  C   C20       1.0  0.504032074385762  0.5890722387750598  0.9761824649881632  1.0000
  C   C21       1.0  0.4829240240302894  0.5142723063761991  0.9505333582782572  1.0000
  C   C22       1.0  0.46429001756450117  0.4381415940089965  0.9748913824331853  1.0000
  C   C23       1.0  0.4917069174501236  0.5125192844059541  0.7475594041282749  1.0000
  C   C24       1.0  0.521343754774918  0.6611083652454893  0.950610139495936  1.0000
  C   C25       1.0  0.43902866514080335  0.3702501791155298  0.8987727405813077  1.0000
  C   C26       1.0  0.45566125452587875  0.3617760366333442  0.052769378090644616  1.0000
  C   C27       1.0  0.4581897287589457  0.3600745480528288  0.10251497217738861  1.0000
  C   C28       1.0  0.503480259193701  0.49540105568222254  0.4092778153040301  1.0000
  C   C29       1.0  0.4420577610509398  0.3671259435039929  0.9481914951679615  1.0000
  C   C30       1.0  0.4335103298273141  0.9520691331013393  0.46503366686593495  1.0000
  C   C31       1.0  0.5954159661302613  0.9502990241927446  0.49260097646411793  1.0000
  C   C32       1.0  0.5976993259494776  0.046531423968936295  0.4948338008824963  1.0000
  C   C33       1.0  0.43630425664927236  0.0484201538426206  0.4640372159511373  1.0000
  C   C34       1.0  0.4818428459971216  0.5174682703316903  0.8995538091318525  1.0000
  C   C35       1.0  0.5006561044220419  0.24726818472118584  0.5042696153617641  1.0000
  C   C36       1.0  0.4979197326963389  0.9177345314585775  0.5039240349282182  1.0000
  C   C37       1.0  0.5002316359477917  0.0808451937277397  0.5036289003396277  1.0000
  C   C38       1.0  0.46408818937884183  0.04795910392304848  0.5520794443631729  1.0000
  C   C39       1.0  0.4638343352676416  0.9507419218808548  0.5542722419655419  1.0000
  C   C40       1.0  0.5007242156333548  0.17143728122523066  0.5040530876661508  1.0000
  C   C41       1.0  0.4968957391347573  0.8271698054746751  0.5033980492261634  1.0000
  C   C42       1.0  0.5198982056707282  0.5865087077856328  0.8222850610518792  1.0000
  C   C43       1.0  0.49634244181574866  0.7514295573835239  0.501343868162536  1.0000
  C   C44       1.0  0.9480491955260179  0.5919833303969002  0.49807810951437403  1.0000
  C   C45       1.0  0.5036117309511782  0.5921520774998965  0.8738895188353127  1.0000
  C   C46       1.0  0.05298692337329671  0.5911315859226604  0.502941605058247  1.0000
  C   C47       1.0  0.9475659857580895  0.4555682695117297  0.45170920256582303  1.0000
  C   C48       1.0  0.054383959904974716  0.4626883931788511  0.44932829693250653  1.0000
  C   C49       1.0  0.9120971089201221  0.5012157743437626  0.49711266821715583  1.0000
  C   C50       1.0  0.08838680599345142  0.5006801325611221  0.49699002329109737  1.0000
  C   C51       1.0  0.05205389466934211  0.44584668981036646  0.5385606277532135  1.0000
  C   C52       1.0  0.9470444216132138  0.4526798411843983  0.5412186224848483  1.0000
  C   C53       1.0  0.1874213698754232  0.49981690411569685  0.49777819833538933  1.0000
  C   C54       1.0  0.8130199085984131  0.5010291647522179  0.49827073150351014  1.0000
  C   C55       1.0  0.4555652336851566  0.44188168956129187  0.8219205716235011  1.0000
  C   C56       1.0  0.518795595271378  0.6666692111722269  0.9000050626388969  1.0000
  C   C57       1.0  0.5755227581441247  0.505052018360949  0.7240094259824945  1.0000
  C   C58       1.0  0.5778079343265079  0.5022469609060422  0.6744229431835153  1.0000
  C   C59       1.0  0.41312787582826616  0.5145451317494433  0.6725348215803139  1.0000
  C   C60       1.0  0.3057566450096729  0.9604318403281052  0.5925423154083164  1.0000
  C   C61       1.0  0.5078479940164372  0.9347546740145489  0.6397258552540495  1.0000
  C   C62       1.0  0.48610605984235633  0.782609152181777  0.8407877241036135  1.0000
  C   C63       1.0  0.4592894401840155  0.44370470991948  0.8743495841227329  1.0000
  C   C64       1.0  0.4967607591690069  0.5069229613532257  0.6483625694744151  1.0000
  C   C65       1.0  0.5036631837288398  0.49498862090418055  0.35563976872111885  1.0000
  N   N1        1.0  0.4874503939639752  0.5141699885354925  0.7989271250797714  1.0000
  N   N2        1.0  0.491107232590764  0.5048863431409598  0.2046538527348076  1.0000
  N   N3        1.0  0.2662155706102922  0.4985436892642879  0.5003500534096332  1.0000
  N   N4        1.0  0.7342358406079657  0.5010417962891863  0.5016353547003476  1.0000
  N   N5        1.0  0.3720742428631498  0.918269277802757  0.5620959818965333  1.0000
  N   N6        1.0  0.5271104839346422  0.9159634632027648  0.5898885182642319  1.0000
  N   N7        1.0  0.5306795285110439  0.7454784777583041  0.8819078592374296  1.0000
  Cl  Cl1       1.0  0.6708145790316992  0.4166182821256116  0.351281842683548  1.0000
  Cl  Cl2       1.0  0.8900947820733978  0.4906370443176583  0.4000644015413855  1.0000
  Cl  Cl3       1.0  0.09854917854098492  0.5208761710762884  0.4003024542024107  1.0000
  O   O1        1.0  0.4212638572353101  0.6250843034612642  0.4929164069099344  1.0000
  O   O2        1.0  0.517731033541594  0.6463001883446037  0.2060761615061821  1.0000
  O   O3        1.0  0.42899069594271577  0.3809590039236213  0.7991023604749474  1.0000
  O   O4        1.0  0.463377536468272  0.3636607866680492  0.20319335146243134  1.0000
  O   O5        1.0  0.5740294944369995  0.6263893655691176  0.508199922574029  1.0000
  O   O6        1.0  0.4234817750659233  0.5141638730618607  0.5735947613792121  1.0000
  O   O7        1.0  0.5764019762267977  0.4906816220702763  0.575079983178135  1.0000
  O   O8        1.0  0.4229055623676957  0.37253995306254223  0.5104350094231479  1.0000
  O   O9        1.0  0.5767138012869069  0.37330343577865926  0.49687215759139053  1.0000
  O   O10       1.0  0.4263987130943434  0.48281899382529747  0.4293269129946183  1.0000
  O   O11       1.0  0.5785166374851374  0.5102791241962521  0.429900897666471  1.0000
  O   O12       1.0  0.5616163413757604  0.6397602367473921  0.7987922695012346  1.0000
