data_image0
_chemical_formula_structural       Cd2H24C24Br2N12O4
_chemical_formula_sum              "Cd2 H24 C24 Br2 N12 O4"
_cell_length_a       8.359454409665467
_cell_length_b       8.700348121543703
_cell_length_c       11.38625898127107
_cell_angle_alpha    99.17533964017905
_cell_angle_beta     104.54810113835453
_cell_angle_gamma    98.19936762463804

_space_group_name_H-M_alt    "P 1"
_space_group_IT_number       1

loop_
  _space_group_symop_operation_xyz
  'x, y, z'

loop_
  _atom_site_type_symbol
  _atom_site_label
  _atom_site_symmetry_multiplicity
  _atom_site_fract_x
  _atom_site_fract_y
  _atom_site_fract_z
  _atom_site_occupancy
  Cd  Cd1       1.0  0.45021277642761975  0.8291108168014747  0.8478998390306889  1.0000
  Cd  Cd2       1.0  0.5497905957390258  0.1708887347200374  0.1521005942907863  1.0000
  H   H1        1.0  0.1728355216381203  0.15579702326684955  0.5118522034246952  1.0000
  H   H2        1.0  0.8271606462094567  0.8442036602222629  0.4881478755411452  1.0000
  H   H3        1.0  0.8633661422620379  0.5256305658192559  0.7979466322728117  1.0000
  H   H4        1.0  0.13663502626241814  0.4743701808657903  0.202050895717811  1.0000
  H   H5        1.0  0.9851937452288838  0.7085157500086225  0.8839882477341451  1.0000
  H   H6        1.0  0.014806160312240003  0.29148497274507434  0.11601079284136524  1.0000
  H   H7        1.0  0.8162260083439321  0.4594833834080135  0.0012624026596626211  1.0000
  H   H8        1.0  0.18377637190740612  0.5405173546789328  0.9987371121104193  1.0000
  H   H9        1.0  0.9582244631078893  0.6375341084840401  0.08129311963087099  1.0000
  H   H10       1.0  0.04177645997675941  0.36246544396895797  0.9187050898138553  1.0000
  H   H11       1.0  0.432750051669295  0.4342578740078622  0.8916137976185613  1.0000
  H   H12       1.0  0.5672518505165486  0.565740483747348  0.10838620521865054  1.0000
  H   H13       1.0  0.06805171331268413  0.09873987162059447  0.7549031765617119  1.0000
  H   H14       1.0  0.9319439764693911  0.9012584315367891  0.24509739047125845  1.0000
  H   H15       1.0  0.27758414904707956  0.13814400602845472  0.8516344013152521  1.0000
  H   H16       1.0  0.7224152399862193  0.8618543119964244  0.14836775185065684  1.0000
  H   H17       1.0  0.2440528778724057  0.9950577282177161  0.28735186256757583  1.0000
  H   H18       1.0  0.7559457774994982  0.004942978736998798  0.7126478157517372  1.0000
  H   H19       1.0  0.34351530269967884  0.7504914558221288  0.2160175262290026  1.0000
  H   H20       1.0  0.6564845900273326  0.2495092587992076  0.7839823891875995  1.0000
  H   H21       1.0  0.4362056883893715  0.5724999710945723  0.35927505114901953  1.0000
  H   H22       1.0  0.5637919238107969  0.4275018898961137  0.6407272079832611  1.0000
  H   H23       1.0  0.4395151163778905  0.6385965670961085  0.581594354365237  1.0000
  H   H24       1.0  0.5604827797044081  0.36140651252371475  0.4184045987896641  1.0000
  C   C1        1.0  0.7249249530482871  0.6860948915935552  0.8688123294479697  1.0000
  C   C2        1.0  0.27507572459655455  0.3139034666274014  0.13118656145086768  1.0000
  C   C3        1.0  0.8813029775054348  0.6144346312671018  0.8830793647982917  1.0000
  C   C4        1.0  0.11869770013940692  0.3855637269538549  0.11691952610054565  1.0000
  C   C5        1.0  0.9264204743979153  0.5427611537059391  0.9978560532154507  1.0000
  C   C6        1.0  0.0735801648045964  0.45723718011792164  0.0021454622066557224  1.0000
  C   C7        1.0  0.330091307937991  0.4338196451918606  0.8117569186112593  1.0000
  C   C8        1.0  0.6699098605864577  0.5661811014931857  0.18824060937935638  1.0000
  C   C9        1.0  0.2003029331958501  0.1408466113889091  0.7587286814721853  1.0000
  C   C10       1.0  0.7996949858566396  0.8591505128696684  0.24127304120946047  1.0000
  C   C11       1.0  0.24923958690810366  0.03889286119988359  0.6597358342482169  1.0000
  C   C12       1.0  0.7507590300214776  0.9611078213577431  0.340266468594372  1.0000
  C   C13       1.0  0.2740460901531918  0.9444114460540193  0.47259971364315606  1.0000
  C   C14       1.0  0.7259538025738266  0.055589268567317204  0.5274002017734462  1.0000
  C   C15       1.0  0.2792870787510964  0.9144529488082968  0.34956287439498385  1.0000
  C   C16       1.0  0.7207167458528331  0.08554896678022321  0.6504388205415454  1.0000
  C   C17       1.0  0.3388959838290619  0.7785929583626868  0.311778936665519  1.0000
  C   C18       1.0  0.6611039088979498  0.2214077562586496  0.6882209787510833  1.0000
  C   C19       1.0  0.3933538933642566  0.6789353456261793  0.3936798251830071  1.0000
  C   C20       1.0  0.6066452400731491  0.321067741660265  0.606319365069183  1.0000
  C   C21       1.0  0.3927753061442445  0.7122249394449583  0.5170587276602563  1.0000
  C   C22       1.0  0.6072238272931613  0.287778147841486  0.48294046259193396  1.0000
  C   C23       1.0  0.3317761502634582  0.8471004523955089  0.5563596151651995  1.0000
  C   C24       1.0  0.6682254066277339  0.15290261769472124  0.4436435486459305  1.0000
  Br  Br1       1.0  0.29411034329148583  0.897473723939797  0.020152035382388144  1.0000
  Br  Br2       1.0  0.7058871361378323  0.10252104438413312  0.9798475508431114  1.0000
  N   N1        1.0  0.2908131976015156  0.5576008949481448  0.7640823132765322  1.0000
  N   N2        1.0  0.7091864624998081  0.4423986335735038  0.23591740875308903  1.0000
  N   N3        1.0  0.1508742304975996  0.5025430989005172  0.6659566898223377  1.0000
  N   N4        1.0  0.8491254296037171  0.4974564296211311  0.33404303220728343  1.0000
  N   N5        1.0  0.10467653018041288  0.3505336632763587  0.6528240013370736  1.0000
  N   N6        1.0  0.8953228844811036  0.6494646710132486  0.3471764021466584  1.0000
  N   N7        1.0  0.21630206868087495  0.3053335610058667  0.7445987112940744  1.0000
  N   N8        1.0  0.7836975657922309  0.6946659512510608  0.2554027604177308  1.0000
  N   N9        1.0  0.22078387414203604  0.06308238353345531  0.5413405831369362  1.0000
  N   N10       1.0  0.779216212768354  0.9369194927904732  0.45866215018991624  1.0000
  N   N11       1.0  0.3164094174675611  0.9109064623603232  0.6726069375076097  1.0000
  N   N12       1.0  0.683590436817127  0.0890942278639244  0.3273956024322616  1.0000
  O   O1        1.0  0.6453222095247213  0.6840850088228692  0.9515986103560794  1.0000
  O   O2        1.0  0.3546807102046472  0.3159121786316419  0.04840056135034841  1.0000
  O   O3        1.0  0.6749757185112769  0.7467950086735442  0.7742971095134836  1.0000
  O   O4        1.0  0.3250241485875236  0.2532056896830639  0.22570455558530264  1.0000
