data_image0
_chemical_formula_structural       U4H48C56N8O32
_chemical_formula_sum              "U4 H48 C56 N8 O32"
_cell_length_a       8.831339640647087
_cell_length_b       11.994019235138468
_cell_length_c       16.252844301098957
_cell_angle_alpha    89.99958412801695
_cell_angle_beta     89.99991167303608
_cell_angle_gamma    90.00145009214806

_space_group_name_H-M_alt    "P 1"
_space_group_IT_number       1

loop_
  _space_group_symop_operation_xyz
  'x, y, z'

loop_
  _atom_site_type_symbol
  _atom_site_label
  _atom_site_symmetry_multiplicity
  _atom_site_fract_x
  _atom_site_fract_y
  _atom_site_fract_z
  _atom_site_occupancy
  U   U1        1.0  0.3463604200554045  0.24999152262002164  0.2500033853361926  1.0000
  U   U2        1.0  0.15363688680130846  0.7500150487592805  0.7500049866270044  1.0000
  U   U3        1.0  0.6536369069251294  0.7500003203563351  0.7500004717976265  1.0000
  U   U4        1.0  0.8463593081538932  0.2499934692042913  0.24999456352138333  1.0000
  H   H1        1.0  0.8010675138772926  0.06953749112552289  0.9306999494528794  1.0000
  H   H2        1.0  0.8010858374062337  0.43046320758762135  0.5693049477830596  1.0000
  H   H3        1.0  0.6989210847928716  0.569522243123089  0.0693096490778444  1.0000
  H   H4        1.0  0.6989213909937958  0.9304621359523254  0.43070075068370517  1.0000
  H   H5        1.0  0.1989207546416836  0.9304643567794029  0.06929898544086648  1.0000
  H   H6        1.0  0.1989228129507623  0.569531970504805  0.43069460239810536  1.0000
  H   H7        1.0  0.30108869783701653  0.43046959998959256  0.9306886705585026  1.0000
  H   H8        1.0  0.3010748037702128  0.06953554328726601  0.5692963383878435  1.0000
  H   H9        1.0  0.7001335365295134  0.17648217149539394  0.07488333012859977  1.0000
  H   H10       1.0  0.7001402072009739  0.3235321803794733  0.4251102253923874  1.0000
  H   H11       1.0  0.7998577722577309  0.6764658308102723  0.9251133541970302  1.0000
  H   H12       1.0  0.7998654437459792  0.8235215701987072  0.5748850067085484  1.0000
  H   H13       1.0  0.29986152594662485  0.8235180089750641  0.92511498949014  1.0000
  H   H14       1.0  0.29986051699115995  0.6764713351396664  0.5748874789375902  1.0000
  H   H15       1.0  0.2001452164872433  0.3235318484727259  0.07488742653321619  1.0000
  H   H16       1.0  0.20013188343542512  0.17648111153283003  0.42511454345597594  1.0000
  H   H17       1.0  0.6712081663780083  0.047612614670981705  0.8137759161551299  1.0000
  H   H18       1.0  0.6712269433996809  0.45237910369537093  0.6862303196681054  1.0000
  H   H19       1.0  0.8287796450273247  0.5476244451229277  0.18623749874438286  1.0000
  H   H20       1.0  0.8287799402892162  0.9523889242479338  0.31377463875799794  1.0000
  H   H21       1.0  0.3287755728423675  0.9523909006772087  0.18622609512035374  1.0000
  H   H22       1.0  0.32877717781201454  0.5476260793403822  0.31376984576339584  1.0000
  H   H23       1.0  0.1712335347859977  0.4523782367411259  0.8137638972443069  1.0000
  H   H24       1.0  0.17122531322795706  0.04761459131433549  0.6862224502931722  1.0000
  H   H25       1.0  0.4236242837920656  0.0588429919482323  0.745473480874409  1.0000
  H   H26       1.0  0.42363793299396957  0.4411576615588828  0.7545286539103627  1.0000
  H   H27       1.0  0.07636841962131058  0.5588513694103767  0.25453290265856043  1.0000
  H   H28       1.0  0.0763628451256722  0.9411686236219408  0.2454706314775946  1.0000
  H   H29       1.0  0.576357190766231  0.9411605233798143  0.2545285304020196  1.0000
  H   H30       1.0  0.5763684528498487  0.5588458539992802  0.24547151152494703  1.0000
  H   H31       1.0  0.9236470249906577  0.44115881621933534  0.7454672627539974  1.0000
  H   H32       1.0  0.9236424083580345  0.0588332244312397  0.7545289186860059  1.0000
  H   H33       1.0  0.1947189169944963  0.12161771195950878  0.8246478469082134  1.0000
  H   H34       1.0  0.1947294046875356  0.37838553901399036  0.6753532477044073  1.0000
  H   H35       1.0  0.305274909469702  0.6216217207412597  0.17535325714314345  1.0000
  H   H36       1.0  0.30527025037685007  0.878394841109838  0.3246439338444844  1.0000
  H   H37       1.0  0.8052636897230485  0.8783766321183321  0.1753590866092125  1.0000
  H   H38       1.0  0.8052747165091817  0.6216188102728922  0.32464691772946697  1.0000
  H   H39       1.0  0.6947405350268382  0.37838179491166835  0.8246438319037919  1.0000
  H   H40       1.0  0.694731606051178  0.1216036719091278  0.6753574621607823  1.0000
  H   H41       1.0  0.2218683014920231  0.167709406468326  0.9734173570278413  1.0000
  H   H42       1.0  0.22188321984101833  0.33229182630971366  0.5265855608384482  1.0000
  H   H43       1.0  0.27811925448965985  0.6677017976609605  0.026583484731318694  1.0000
  H   H44       1.0  0.27812270531645567  0.832295104914941  0.4734118830643296  1.0000
  H   H45       1.0  0.7781165697809982  0.8322791013818929  0.026590807059093894  1.0000
  H   H46       1.0  0.7781231660327563  0.6677133567461907  0.47341460459210777  1.0000
  H   H47       1.0  0.7218893958135837  0.3322900454558351  0.9734117585208961  1.0000
  H   H48       1.0  0.7218723570971406  0.1677017405515215  0.5265882823946695  1.0000
  C   C1        1.0  0.4658835836029311  0.1700502622575897  0.06493749441956  1.0000
  C   C2        1.0  0.4658927214664886  0.3299565870209378  0.43506363927782826  1.0000
  C   C3        1.0  0.0341051887355874  0.6700382730483413  0.9350639493056504  1.0000
  C   C4        1.0  0.0341142520059279  0.8299538467790695  0.5649368943171067  1.0000
  C   C5        1.0  0.5341103465360179  0.829949918182933  0.9350651321380993  1.0000
  C   C6        1.0  0.5341102673991854  0.6700477622558766  0.5649365261565149  1.0000
  C   C7        1.0  0.9658978000419864  0.3299610737409181  0.0649349855890904  1.0000
  C   C8        1.0  0.9658853397653003  0.1700446662367696  0.43506081002757907  1.0000
  C   C9        1.0  0.46107271210613016  0.13898303157440492  0.9772997366699695  1.0000
  C   C10       1.0  0.46108980598702937  0.36101745446995887  0.5227017516898868  1.0000
  C   C11       1.0  0.038911547106515294  0.6389762052881096  0.022702499136457294  1.0000
  C   C12       1.0  0.03891715124216691  0.8610197764865575  0.4772979898328343  1.0000
  C   C13       1.0  0.5389121593703976  0.8610163150395068  0.022702274616904095  1.0000
  C   C14       1.0  0.5389177121904678  0.6389860611067845  0.4772965679141804  1.0000
  C   C15       1.0  0.9611027649708748  0.3610223078671879  0.9772933593713444  1.0000
  C   C16       1.0  0.9610790435350581  0.13897873649622738  0.5227003297901831  1.0000
  C   C17       1.0  0.5885669966470602  0.10584786465355475  0.9308623676026497  1.0000
  C   C18       1.0  0.5885851482810623  0.39414821966908414  0.5691427063898329  1.0000
  C   C19       1.0  0.9114172451672713  0.6058430687553267  0.06914394785741959  1.0000
  C   C20       1.0  0.9114230401270264  0.8941534284542598  0.4308588918045898  1.0000
  C   C21       1.0  0.41141787479951125  0.8941498144626152  0.06913964368897747  1.0000
  C   C22       1.0  0.4114246345100625  0.6058527946698433  0.43085807432809975  1.0000
  C   C23       1.0  0.0885902728630796  0.3941521093412135  0.9308525259396132  1.0000
  C   C24       1.0  0.08857655167503957  0.1058467520621633  0.5691381972584253  1.0000
  C   C25       1.0  0.5734273569238084  0.0784461221103854  0.8478855910251324  1.0000
  C   C26       1.0  0.5734473882892602  0.42154802538164654  0.6521188802872684  1.0000
  C   C27       1.0  0.9265592975274827  0.5784508354874307  0.15212149563901528  1.0000
  C   C28       1.0  0.9265595199908815  0.9215576035436186  0.3478831772279775  1.0000
  C   C29       1.0  0.42655411757282014  0.9215540582165075  0.15211765081462394  1.0000
  C   C30       1.0  0.42656126216994744  0.5784529889443704  0.34788251570805767  1.0000
  C   C31       1.0  0.07345388224354109  0.4215493451385157  0.8478780545260347  1.0000
  C   C32       1.0  0.073441204126361  0.07844174323115989  0.6521145271138592  1.0000
  C   C33       1.0  0.4327342538677144  0.08436633140552628  0.8096314053972902  1.0000
  C   C34       1.0  0.4327449046643394  0.415632816654508  0.6903707218159594  1.0000
  C   C35       1.0  0.0672571017805055  0.5843668008624192  0.19037298706356146  1.0000
  C   C36       1.0  0.0672560886382954  0.9156405238874327  0.3096280935772313  1.0000
  C   C37       1.0  0.5672483529907879  0.9156355164320116  0.1903712211603333  1.0000
  C   C38       1.0  0.5672626135096409  0.5843706989108881  0.30963005889579154  1.0000
  C   C39       1.0  0.9327572103647341  0.4156358810145448  0.809627793647742  1.0000
  C   C40       1.0  0.932746900110196  0.08435715540691997  0.6903702260453315  1.0000
  C   C41       1.0  0.3052762165763027  0.11804928074283788  0.8540980409125465  1.0000
  C   C42       1.0  0.3052869166322552  0.38195426967379836  0.645904807575924  1.0000
  C   C43       1.0  0.1947186139005055  0.6180474253797357  0.14590431401840928  1.0000
  C   C44       1.0  0.1947139989283002  0.881960499548306  0.3540935842238325  1.0000
  C   C45       1.0  0.6947086548790936  0.8819492321023432  0.14590827731515077  1.0000
  C   C46       1.0  0.6947194692864542  0.6180534146287185  0.35409535784751967  1.0000
  C   C47       1.0  0.805293433575592  0.38195442275373637  0.8540909292039199  1.0000
  C   C48       1.0  0.8052889898193103  0.11803717974320453  0.6459053506756474  1.0000
  C   C49       1.0  0.3200240371664691  0.1436342811515416  0.9370440589768874  1.0000
  C   C50       1.0  0.32003971660535774  0.35636786419596683  0.5629581619703641  1.0000
  C   C51       1.0  0.17996265381798793  0.6436270918910267  0.06295815035727509  1.0000
  C   C52       1.0  0.179967073607493  0.8563722331052118  0.4370391449017531  1.0000
  C   C53       1.0  0.6799630989184138  0.8563625642075294  0.06296410508537777  1.0000
  C   C54       1.0  0.6799666692842763  0.6436381526116434  0.43704138818090127  1.0000
  C   C55       1.0  0.8200459965909772  0.3563705874707069  0.9370364776014026  1.0000
  C   C56       1.0  0.8200302534990199  0.14362627988197119  0.56296040527463  1.0000
  N   N1        1.0  0.5970745368884778  0.1848194487443919  0.10274370352431819  1.0000
  N   N2        1.0  0.5970798552158029  0.3151914020656363  0.39725239883227187  1.0000
  N   N3        1.0  0.9029193361934419  0.6848076997483191  0.8972547791668715  1.0000
  N   N4        1.0  0.9029243637913139  0.815184869813457  0.6027453418363249  1.0000
  N   N5        1.0  0.4029216579319197  0.8151815654793284  0.8972558466454215  1.0000
  N   N6        1.0  0.40292086903448177  0.6848154484433165  0.6027465360420476  1.0000
  N   N7        1.0  0.0970836525973482  0.31519248078413403  0.10274538627933788  1.0000
  N   N8        1.0  0.0970740956779537  0.18481531068721327  0.39725297778100094  1.0000
  O   O1        1.0  0.5964252516101355  0.22837329629422953  0.17952275627773415  1.0000
  O   O2        1.0  0.5964235626655066  0.2716300391478725  0.3204764230277988  1.0000
  O   O3        1.0  0.9035735835848868  0.7283764405360742  0.8204810159774281  1.0000
  O   O4        1.0  0.9035756942928472  0.7716278131039471  0.6795234113880253  1.0000
  O   O5        1.0  0.4035754725793624  0.7716302192163977  0.820476793883003  1.0000
  O   O6        1.0  0.40357489683194814  0.7283718088448694  0.6795231271386297  1.0000
  O   O7        1.0  0.09642261135270051  0.27163124367011443  0.17952038000409223  1.0000
  O   O8        1.0  0.0964227651447018  0.22837069989331127  0.3204761387878959  1.0000
  O   O9        1.0  0.344255649832057  0.18850402135881686  0.10619673225875907  1.0000
  O   O10       1.0  0.34425971314228576  0.311498162703522  0.3938081942773123  1.0000
  O   O11       1.0  0.15574057955102208  0.6884937427909749  0.8938070675378069  1.0000
  O   O12       1.0  0.15574433254454328  0.8114997072804043  0.6061936749154027  1.0000
  O   O13       1.0  0.6557416772198437  0.8114919903505536  0.8938095859708779  1.0000
  O   O14       1.0  0.65574214339059  0.6885061865575394  0.6061932017113489  1.0000
  O   O15       1.0  0.8442601445521234  0.3115047702377751  0.10619002152948548  1.0000
  O   O16       1.0  0.8442529945214261  0.18849630447434856  0.39380279888349173  1.0000
  O   O17       1.0  0.7266602465145553  0.09876788662911908  0.9693165226114001  1.0000
  O   O18       1.0  0.7266798947354829  0.401228153311102  0.5306872059702525  1.0000
  O   O19       1.0  0.7733260055285243  0.5987601547131618  0.03069106370525529  1.0000
  O   O20       1.0  0.7733308126297019  0.9012288831679383  0.46931558249472966  1.0000
  O   O21       1.0  0.2733257572040201  0.901226457504464  0.030684873412319295  1.0000
  O   O22       1.0  0.2733253587482167  0.5987736947420783  0.4693123441933407  1.0000
  O   O23       1.0  0.22668604174670284  0.4012308546651226  0.9693084864863619  1.0000
  O   O24       1.0  0.2266676468554252  0.09877213108444488  0.5306821218433055  1.0000
  O   O25       1.0  0.3538073704002612  0.10461815995984132  0.2807910225067899  1.0000
  O   O26       1.0  0.35382400492029115  0.39536918665140064  0.21921820306025092  1.0000
  O   O27       1.0  0.146174521927108  0.6046201598838792  0.7192157157993646  1.0000
  O   O28       1.0  0.1461898481747639  0.8953706188436427  0.7807868804437843  1.0000
  O   O29       1.0  0.6461876920397742  0.8953803529930154  0.7192116040551395  1.0000
  O   O30       1.0  0.6461755868289245  0.6046284925928732  0.780784423502169  1.0000
  O   O31       1.0  0.8538205404159881  0.39537251685240443  0.280781373286885  1.0000
  O   O32       1.0  0.85380634651699  0.10462289166009947  0.21920836280886385  1.0000
