data_image0
_chemical_formula_structural       Cd2H32C34N4O10
_chemical_formula_sum              "Cd2 H32 C34 N4 O10"
_cell_length_a       8.212132599695346
_cell_length_b       8.395389714199657
_cell_length_c       12.241806081666622
_cell_angle_alpha    101.35836412494955
_cell_angle_beta     99.58738853399693
_cell_angle_gamma    101.15447436888732

_space_group_name_H-M_alt    "P 1"
_space_group_IT_number       1

loop_
  _space_group_symop_operation_xyz
  'x, y, z'

loop_
  _atom_site_type_symbol
  _atom_site_label
  _atom_site_symmetry_multiplicity
  _atom_site_fract_x
  _atom_site_fract_y
  _atom_site_fract_z
  _atom_site_occupancy
  Cd  Cd1       1.0  0.8699969750810085  0.8716613366957304  0.7826082916414661  1.0000
  Cd  Cd2       1.0  0.130001662727409  0.12833962392858214  0.21739102697247148  1.0000
  H   H1        1.0  0.5387678300380402  0.18586364929790733  0.9960523566607618  1.0000
  H   H2        1.0  0.4612345275195511  0.814137341978331  0.003948183118346549  1.0000
  H   H3        1.0  0.4022268287374757  0.10277379260286781  0.862170298429312  1.0000
  H   H4        1.0  0.5977711508142605  0.8972296591472855  0.13782927981976195  1.0000
  H   H5        1.0  0.6178691762036408  0.9391532738370288  0.5669025172675433  1.0000
  H   H6        1.0  0.3821310766755702  0.06084396061697111  0.43309729772018096  1.0000
  H   H7        1.0  0.0530065576729016  0.6791257324007706  0.2689900802156515  1.0000
  H   H8        1.0  0.9469966584646271  0.3208790011525623  0.731010231460594  1.0000
  H   H9        1.0  0.45395782186002986  0.6376177589469024  0.7885857689445357  1.0000
  H   H10       1.0  0.5460409049094823  0.36237821786409097  0.21141371502242376  1.0000
  H   H11       1.0  0.798693394408261  0.8024837225557492  0.25660206592364426  1.0000
  H   H12       1.0  0.20131077854338034  0.1975197759531042  0.7433990017615386  1.0000
  H   H13       1.0  0.2204549633589395  0.7498005451578394  0.868490038739523  1.0000
  H   H14       1.0  0.7795437634105653  0.25019543165316094  0.13150944522743657  1.0000
  H   H15       1.0  0.5839649966620188  0.9148867691680495  0.35480849584529034  1.0000
  H   H16       1.0  0.4160361333433045  0.08511422054653651  0.64519272855712  1.0000
  H   H17       1.0  0.28280219571475135  0.5955968212678685  0.38434428861256004  1.0000
  H   H18       1.0  0.7171971096234415  0.4044016547223563  0.615655589125005  1.0000
  H   H19       1.0  0.4384997960058713  0.5867407733803772  0.5805266083008005  1.0000
  H   H20       1.0  0.5614982817800468  0.4132577010482024  0.4194739540600664  1.0000
  H   H21       1.0  0.06363365940300272  0.17481391721735665  0.9446598543576312  1.0000
  H   H22       1.0  0.9363659166733456  0.8251857953789924  0.05533858274770147  1.0000
  H   H23       1.0  0.17129814987212913  0.04427771745436361  0.9384795397098384  1.0000
  H   H24       1.0  0.8287023737452445  0.9557207536057607  0.06151883464565338  1.0000
  H   H25       1.0  0.5560526174357322  0.3181594735463947  0.7793315993924349  1.0000
  H   H26       1.0  0.44394785431290984  0.6818440072940319  0.22066988464511889  1.0000
  H   H27       1.0  0.7626456811625317  0.4919257320711311  0.020706018151329872  1.0000
  H   H28       1.0  0.23735571030786679  0.5080764877578332  0.9792929468600702  1.0000
  H   H29       1.0  0.47489708082457577  0.4086537450105964  0.8946579547834899  1.0000
  H   H30       1.0  0.5251031016397293  0.5913484862402143  0.10534333236876135  1.0000
  H   H31       1.0  0.8435584487549905  0.36926378659467934  0.9215177935918245  1.0000
  H   H32       1.0  0.15644201372056446  0.6307396877539944  0.07848287168695828  1.0000
  C   C1        1.0  0.5330019984085013  0.1713025629918263  0.9044028079502621  1.0000
  C   C2        1.0  0.46699663939992325  0.8286983976324862  0.0955965106636754  1.0000
  C   C3        1.0  0.8053631251953349  0.5934135673465023  0.8789714823254896  1.0000
  C   C4        1.0  0.19463550333999544  0.40658738678606454  0.12102701752967698  1.0000
  C   C5        1.0  0.649426988541684  0.061045077886916516  0.8668435334595513  1.0000
  C   C6        1.0  0.3505701046108456  0.938954612110905  0.1331538166160726  1.0000
  C   C7        1.0  0.7483639997584745  0.44502922293978747  0.9282326330682336  1.0000
  C   C8        1.0  0.25163645344398594  0.5549742449171476  0.07176721345177842  1.0000
  C   C9        1.0  0.7049157506244584  0.8882449052385867  0.5194597774515869  1.0000
  C   C10       1.0  0.29508602836445874  0.11175358685841992  0.480540368556916  1.0000
  C   C11       1.0  0.5702903991436231  0.3394150373769805  0.8720225851945782  1.0000
  C   C12       1.0  0.4297110108729498  0.6605871954354752  0.12797801733436387  1.0000
  C   C13       1.0  0.06248510113681507  0.6939644579163089  0.360464859469559  1.0000
  C   C14       1.0  0.9375184839730579  0.30603653492156724  0.6395349956862473  1.0000
  C   C15       1.0  0.9376905389034607  0.7614732681801543  0.4109583625115859  1.0000
  C   C16       1.0  0.0623115293697936  0.23852647350646813  0.5890419803822197  1.0000
  C   C17       1.0  0.945739398555034  0.7812388502041402  0.5299052905250717  1.0000
  C   C18       1.0  0.05425990678315881  0.21875962578608474  0.47009458721249325  1.0000
  C   C19       1.0  0.08379295399087287  0.7377851119631915  0.5988086148074245  1.0000
  C   C20       1.0  0.9162073081614324  0.26221212898255436  0.4011920189390706  1.0000
  C   C21       1.0  0.3488268351100318  0.6633389765070208  0.733213645248483  1.0000
  C   C22       1.0  0.6511742856222043  0.3366620067158266  0.2667867603951563  1.0000
  C   C23       1.0  0.8047943915173479  0.8114653077782422  0.347459311268821  1.0000
  C   C24       1.0  0.1952106492873114  0.18854193949945142  0.6525423470722769  1.0000
  C   C25       1.0  0.22099033831715795  0.7268844686051069  0.7776517951420485  1.0000
  C   C26       1.0  0.7790056440634672  0.27311025549298046  0.22234886118621933  1.0000
  C   C27       1.0  0.20632043853750306  0.6726302349491464  0.5456349036161255  1.0000
  C   C28       1.0  0.7936773592371722  0.3273669963815635  0.45436628061821677  1.0000
  C   C29       1.0  0.6879690730645934  0.8750439138495668  0.40165661823971277  1.0000
  C   C30       1.0  0.31203270592432375  0.12495457824743991  0.5983435277687901  1.0000
  C   C31       1.0  0.19098087633538804  0.6496915679143171  0.42499334341876244  1.0000
  C   C32       1.0  0.8090187275602361  0.3503081641572621  0.5750075499628763  1.0000
  C   C33       1.0  0.3407172699496784  0.6358965197709952  0.6171286351789574  1.0000
  C   C34       1.0  0.659282343219033  0.36410321879233026  0.3828730769614522  1.0000
  N   N1        1.0  0.8295319176884774  0.8427425698647399  0.5813287633448992  1.0000
  N   N2        1.0  0.17046985202735243  0.15725591574052084  0.41867056390483265  1.0000
  N   N3        1.0  0.09339618305103414  0.7633149207104141  0.7124667229465159  1.0000
  N   N4        1.0  0.9066025437184778  0.23668105610057918  0.2875327610204436  1.0000
  O   O1        1.0  0.7180384760108185  0.6052283636911397  0.7855530032185525  1.0000
  O   O2        1.0  0.28195833713046886  0.3947700832088117  0.21444496873053953  1.0000
  O   O3        1.0  0.7206872368040325  0.9874492105446893  0.9359166178191173  1.0000
  O   O4        1.0  0.2793159607873079  0.012555510025151805  0.06408205633958629  1.0000
  O   O5        1.0  0.9412798124426733  0.7021463911547485  0.9322482523963413  1.0000
  O   O6        1.0  0.05872059439433034  0.2978570442434646  0.0677475003298156  1.0000
  O   O7        1.0  0.09717084826687741  0.09154430098180201  0.8871117969509397  1.0000
  O   O8        1.0  0.9028302539191772  0.9084566692575535  0.11288697117515767  1.0000
  O   O9        1.0  0.6717682524481532  0.04391725718366501  0.7645897819433355  1.0000
  O   O10       1.0  0.3282214901671168  0.9560773876970003  0.23540529115496864  1.0000
