data_image0
_chemical_formula_structural       AlH21C30O6
_chemical_formula_sum              "Al1 H21 C30 O6"
_cell_length_a       4.003788285469407
_cell_length_b       15.96709263744576
_cell_length_c       16.07325477142014
_cell_angle_alpha    119.86629887963666
_cell_angle_beta     88.42815860764335
_cell_angle_gamma    91.21254677532774

_space_group_name_H-M_alt    "P 1"
_space_group_IT_number       1

loop_
  _space_group_symop_operation_xyz
  'x, y, z'

loop_
  _atom_site_type_symbol
  _atom_site_label
  _atom_site_symmetry_multiplicity
  _atom_site_fract_x
  _atom_site_fract_y
  _atom_site_fract_z
  _atom_site_occupancy
  Al  Al1       1.0  0.0064478365563758275  0.501886976919039  0.5013753023660071  1.0000
  H   H1        1.0  0.5030226441323646  0.9253933858412612  0.07983888230546658  1.0000
  H   H2        1.0  0.4596960518713119  0.6537578426597507  0.07484790296756927  1.0000
  H   H3        1.0  0.5163665036513054  0.9192051817387751  0.3439467174163083  1.0000
  H   H4        1.0  0.7811937173360023  0.23729408767533042  0.2573664849807073  1.0000
  H   H5        1.0  0.7925046034583403  0.05865024994876932  0.16593589747981236  1.0000
  H   H6        1.0  0.22233658079272794  0.05146012446907382  0.3935751786404679  1.0000
  H   H7        1.0  0.2374972463105252  0.8426583658517119  0.9472184066507479  1.0000
  H   H8        1.0  0.7572256475619882  0.5199357364699468  0.7657405994562082  1.0000
  H   H9        1.0  0.763192072682493  0.6080707202770627  0.943151777224251  1.0000
  H   H10       1.0  0.7519523555196557  0.6037743594960575  0.1540674257821451  1.0000
  H   H11       1.0  0.22916855622032975  0.7381405275868006  0.4768829645349796  1.0000
  H   H12       1.0  0.21148824332043856  0.8316340770941512  0.3916577283463596  1.0000
  H   H13       1.0  0.3134830672443627  0.2223190084184169  0.5640924007075369  1.0000
  H   H14       1.0  0.1934328998139563  0.321009920453676  0.5502501831955441  1.0000
  H   H15       1.0  0.9244004128156645  0.21979349503326528  0.5125212950882697  1.0000
  H   H16       1.0  0.3130618318639549  0.8476474736625904  0.7872895407471315  1.0000
  H   H17       1.0  0.2710927582982307  0.7350983222860564  0.6796834777633477  1.0000
  H   H18       1.0  0.9411257309524358  0.7779273838091145  0.7657534730143212  1.0000
  H   H19       1.0  0.05724264257631971  0.4827701678198865  0.24677706985253414  1.0000
  H   H20       1.0  0.660162712950587  0.4281197153739598  0.22960271020151865  1.0000
  H   H21       1.0  0.8295396588095939  0.4571536248612205  0.14308435510518783  1.0000
  C   C1        1.0  0.4985364251799993  0.5766090329169984  0.6494669981862626  1.0000
  C   C2        1.0  0.5160345257440184  0.5720812956292749  0.42377837650366956  1.0000
  C   C3        1.0  0.5008317420190594  0.3526456391435816  0.42966390590156306  1.0000
  C   C4        1.0  0.49040384404941756  0.7833520386655056  0.06473614979940838  1.0000
  C   C5        1.0  0.4980479709280986  0.884576213685236  0.117684655435859  1.0000
  C   C6        1.0  0.4992050459640395  0.9347482731900743  0.21827561829478975  1.0000
  C   C7        1.0  0.4977465810117252  0.8813677406142376  0.26601472927585945  1.0000
  C   C8        1.0  0.48796143573942163  0.780129552453268  0.21530991755216178  1.0000
  C   C9        1.0  0.4813681015157061  0.732275081676484  0.11482668544150693  1.0000
  C   C10       1.0  0.655135595142383  0.19579520816496654  0.28627398630288775  1.0000
  C   C11       1.0  0.6587158817950537  0.09546583763205524  0.23475679491203033  1.0000
  C   C12       1.0  0.5039804716093171  0.04154501751935411  0.2726979716676822  1.0000
  C   C13       1.0  0.352261150689138  0.09192807675385954  0.36398786559902857  1.0000
  C   C14       1.0  0.34914653416266356  0.1928604741995414  0.4179025885933213  1.0000
  C   C15       1.0  0.49991513811501426  0.2445662985033863  0.37710457934902303  1.0000
  C   C16       1.0  0.3564739539656045  0.7721288761185932  0.9076950739271862  1.0000
  C   C17       1.0  0.357712670276932  0.7247473515297287  0.8073487413487468  1.0000
  C   C18       1.0  0.4950429391190027  0.6317955583105148  0.7568438299186225  1.0000
  C   C19       1.0  0.6374206864989916  0.5901160091564253  0.8061407908128756  1.0000
  C   C20       1.0  0.6376101890835528  0.6393840595610242  0.905818234328606  1.0000
  C   C21       1.0  0.49222060818643615  0.7311782832036189  0.9586109143126504  1.0000
  C   C22       1.0  0.6360721437782358  0.6337989690565211  0.22538349040986808  1.0000
  C   C23       1.0  0.6515702027393215  0.5801698126048509  0.2722729936485847  1.0000
  C   C24       1.0  0.5086694823642759  0.6207281891958304  0.36571424128552366  1.0000
  C   C25       1.0  0.3496859228480673  0.7106392946248619  0.40663446347959087  1.0000
  C   C26       1.0  0.342641411425113  0.7629737926469177  0.3590762666389295  1.0000
  C   C27       1.0  0.4891291011889862  0.7253399080312594  0.2670295607063197  1.0000
  C   C28       1.0  0.18747835882543748  0.24215458720269822  0.5164143337841762  1.0000
  C   C29       1.0  0.21424797515319235  0.7735865791272333  0.7569247219462409  1.0000
  C   C30       1.0  0.8070530104460616  0.4816653118428817  0.22005230214850252  1.0000
  O   O1        1.0  0.27014473312767967  0.3940501030172002  0.41063407345598785  1.0000
  O   O2        1.0  0.2616358049389831  0.5163398807773305  0.6083012215571058  1.0000
  O   O3        1.0  0.2839220410876777  0.5924494924737262  0.48743823006298465  1.0000
  O   O4        1.0  0.7333328405800259  0.39616978518355256  0.48905967483080554  1.0000
  O   O5        1.0  0.7536444453506447  0.513723019869744  0.40872966135169253  1.0000
  O   O6        1.0  0.7399552693692469  0.593416580589235  0.6063921972901054  1.0000
