data_image0
_chemical_formula_structural       Mg4H20C32O20
_chemical_formula_sum              "Mg4 H20 C32 O20"
_cell_length_a       12.566204388283547
_cell_length_b       12.474020540720957
_cell_length_c       12.474021120137571
_cell_angle_alpha    75.30406264369259
_cell_angle_beta     59.755580276275296
_cell_angle_gamma    59.75542792633099

_space_group_name_H-M_alt    "P 1"
_space_group_IT_number       1

loop_
  _space_group_symop_operation_xyz
  'x, y, z'

loop_
  _atom_site_type_symbol
  _atom_site_label
  _atom_site_symmetry_multiplicity
  _atom_site_fract_x
  _atom_site_fract_y
  _atom_site_fract_z
  _atom_site_occupancy
  Mg  Mg1       1.0  0.3202203643889093  0.359559014271582  0.9999994154254351  1.0000
  Mg  Mg2       1.0  0.679775058460571  0.6404426871376784  5.813241884058264e-06  1.0000
  Mg  Mg3       1.0  0.07022650179304436  0.4999928699599251  0.8595562650055656  1.0000
  Mg  Mg4       1.0  0.42977415253058393  0.5000049993263926  0.1404456409860657  1.0000
  H   H1        1.0  0.009301177659516296  0.19076448580959487  0.9399441898030074  1.0000
  H   H2        1.0  0.06668141269173618  0.6041454271631606  0.9991948100977694  1.0000
  H   H3        1.0  0.14000657887738302  0.8092391441743344  0.06005709423350674  1.0000
  H   H4        1.0  0.6700219349425399  0.39585108238780703  0.0008092463963577616  1.0000
  H   H5        1.0  0.6992433906500537  0.5600465576632204  0.6907734948369607  1.0000
  H   H6        1.0  0.8158817613377424  0.500804390614455  0.10414216821729362  1.0000
  H   H7        1.0  0.950063113869469  0.4399509370948491  0.30923854872172274  1.0000
  H   H8        1.0  0.4208294898906997  0.49919409502794565  0.8958565599300813  1.0000
  H   H9        1.0  0.6099947479784124  0.4399443201661838  0.6907584011340403  1.0000
  H   H10       1.0  0.07997413545056997  0.4991946573709497  0.10414694289215015  1.0000
  H   H11       1.0  0.7407048091637308  0.5600497644166395  0.30923052520571276  1.0000
  H   H12       1.0  0.6833138235849816  0.5008028359028032  0.895858222223758  1.0000
  H   H13       1.0  0.7999374813874738  0.19076178543180333  0.06004967768952693  1.0000
  H   H14       1.0  0.32916427049299574  0.6041486347827316  0.0008079720220237471  1.0000
  H   H15       1.0  0.050758003661485585  0.8092275391707557  0.939948595161418  1.0000
  H   H16       1.0  0.9341192045575683  0.39585269053381456  0.999193271058985  1.0000
  H   H17       1.0  0.37039876589345544  0.999994813504912  0.9999882836980304  1.0000
  H   H18       1.0  0.12038619777579398  0.5000065508345201  0.5000068339262284  1.0000
  H   H19       1.0  0.37959958940100363  0.5000154460144016  0.5000034714863942  1.0000
  H   H20       1.0  0.6296118054008988  0.9999972129227855  0.9999941269959648  1.0000
  C   C1        1.0  0.07822388296094815  0.1070722345803716  0.9692437600521944  1.0000
  C   C2        1.0  0.18678992032317152  0.10881896426840137  0.9729991793513619  1.0000
  C   C3        1.0  0.1960157900414573  0.2286683614881538  0.949809178385962  1.0000
  C   C4        1.0  0.15453333703227673  0.8929297143716041  0.0307569649465123  1.0000
  C   C5        1.0  0.26861239915494667  0.8911797393513083  0.026988944619887264  1.0000
  C   C6        1.0  0.3744996689735559  0.7713305834466979  0.05017916611169682  1.0000
  C   C7        1.0  0.7974630802820143  0.5307559635802689  0.6070763720617689  1.0000
  C   C8        1.0  0.909786845352535  0.5269941849165178  0.6088278098221094  1.0000
  C   C9        1.0  0.8958252228777399  0.5501783221995067  0.7286725323230879  1.0000
  C   C10       1.0  0.9352930316122684  0.46924727392705257  0.3929293551687747  1.0000
  C   C11       1.0  0.04560316873697463  0.47300927902435297  0.3911842314562364  1.0000
  C   C12       1.0  0.17467251909163653  0.4498207430729693  0.27133365414209  1.0000
  C   C13       1.0  0.5954645075910109  0.4692424812990338  0.6070701540004889  1.0000
  C   C14       1.0  0.48138843620900945  0.4730117196250416  0.6088194174329046  1.0000
  C   C15       1.0  0.375508086393218  0.44982075518422693  0.7286686036464118  1.0000
  C   C16       1.0  0.6717737084351256  0.5307560683318826  0.39292809336909335  1.0000
  C   C17       1.0  0.5632178280847315  0.5269974990399219  0.39117621604088254  1.0000
  C   C18       1.0  0.5539859436545101  0.5501826543882016  0.2713361260083359  1.0000
  C   C19       1.0  0.8147095577091863  0.10707061564409061  0.030752416733683684  1.0000
  C   C20       1.0  0.7043968687633253  0.10881865764866211  0.026989788403781533  1.0000
  C   C21       1.0  0.5753223807848258  0.2286682881150596  0.05017763367217032  1.0000
  C   C22       1.0  0.9525364932891448  0.8929243422158349  0.9692424633258125  1.0000
  C   C23       1.0  0.8402115420242566  0.8911776894185623  0.973001811904453  1.0000
  C   C24       1.0  0.8541665131086309  0.7713296736682619  0.9498211167535968  1.0000
  C   C25       1.0  0.05883511969367547  0.9999978723996887  0.9999976233263795  1.0000
  C   C26       1.0  0.28376674744223634  0.9999964878788035  0.9999900439037859  1.0000
  C   C27       1.0  0.8088302307651671  0.5000042820349578  0.5000008328127521  1.0000
  C   C28       1.0  0.03376069125331354  0.500002657253269  0.5000011124900252  1.0000
  C   C29       1.0  0.6911693937431455  0.500001251388383  0.49999631475810696  1.0000
  C   C30       1.0  0.4662312031338871  0.5000091317775811  0.5000053965457666  1.0000
  C   C31       1.0  0.9411688627068742  0.9999987940502564  0.999996524067491  1.0000
  C   C32       1.0  0.7162380141596572  7.181922398999974e-07  0.9999957589794163  1.0000
  O   O1        1.0  0.27409121003365305  0.23592010957597853  0.9802138075383977  1.0000
  O   O2        1.0  0.11968272288539368  0.3174086189417763  0.9033631286345879  1.0000
  O   O3        1.0  0.4902229628018876  0.7640755298152508  0.019784946678967644  1.0000
  O   O4        1.0  0.3404510598198274  0.6825891666925796  0.09663180091293798  1.0000
  O   O5        1.0  0.0043027386682867215  0.5197758863956351  0.7359303059299478  1.0000
  O   O6        1.0  0.7730413078643253  0.596625429501067  0.8174178035277817  1.0000
  O   O7        1.0  0.2600067534974784  0.48022520083441117  0.26408065863159896  1.0000
  O   O8        1.0  0.18708384982603124  0.40337618831924255  0.1825866648563306  1.0000
  O   O9        1.0  0.2597705527952671  0.4802249550756129  0.735921872147685  1.0000
  O   O10       1.0  0.40954329318544325  0.4033726800730974  0.8174129203267384  1.0000
  O   O11       1.0  0.4759108366169686  0.519780832121661  0.2640805290264651  1.0000
  O   O12       1.0  0.6303277179652299  0.5966281768477726  0.18258351497555472  1.0000
  O   O13       1.0  0.48999180468873504  0.23592550366059575  0.01978212157841588  1.0000
  O   O14       1.0  0.5629186234048831  0.31741436740526296  0.09662766352813174  1.0000
  O   O15       1.0  0.7457033103636663  0.7640720518963416  0.980218858377505  1.0000
  O   O16       1.0  0.9769601983534814  0.6825801139126495  0.9033751799946399  1.0000
  O   O17       1.0  0.37499761445069185  0.5141058090192842  0.9858942068363844  1.0000
  O   O18       1.0  0.8749997461858786  0.48589548843904845  0.014106466984180869  1.0000
  O   O19       1.0  0.11089843450616856  0.5141045009079618  0.014108098150018051  1.0000
  O   O20       1.0  0.6391068529194399  0.4858929645172976  0.9858967196256784  1.0000
