data_image0
_chemical_formula_structural       Fe3H84C66S6N30
_chemical_formula_sum              "Fe3 H84 C66 S6 N30"
_cell_length_a       10.619315634499173
_cell_length_b       14.611692801867397
_cell_length_c       14.613537468265562
_cell_angle_alpha    114.32569143728439
_cell_angle_beta     104.02865806770282
_cell_angle_gamma    104.02223820194656

_space_group_name_H-M_alt    "P 1"
_space_group_IT_number       1

loop_
  _space_group_symop_operation_xyz
  'x, y, z'

loop_
  _atom_site_type_symbol
  _atom_site_label
  _atom_site_symmetry_multiplicity
  _atom_site_fract_x
  _atom_site_fract_y
  _atom_site_fract_z
  _atom_site_occupancy
  Fe  Fe1       1.0  4.139928904449777e-06  0.9999968846921233  0.4999998090336888  1.0000
  Fe  Fe2       1.0  8.840028157353362e-07  0.4999998544346623  0.9999997362902421  1.0000
  Fe  Fe3       1.0  0.4999942698295001  0.4999987324557578  0.5000015599126612  1.0000
  H   H1        1.0  0.7861454336860589  0.8868450562543089  0.557164980636216  1.0000
  H   H2        1.0  0.899232623076017  0.6702026497691378  0.11335509156052143  1.0000
  H   H3        1.0  0.22890561847360397  0.44281319059017926  0.32984145675582255  1.0000
  H   H4        1.0  0.10077251476095475  0.3297988890061204  0.8866471576253758  1.0000
  H   H5        1.0  0.7711004290233134  0.5571940498195217  0.670164669476044  1.0000
  H   H6        1.0  0.2138516861391437  0.11315403828044171  0.4428396385689908  1.0000
  H   H7        1.0  0.7750213180954686  0.9515311518709093  0.2553715636544922  1.0000
  H   H8        1.0  0.8232588045337651  0.3035565195359665  0.04834327225847098  1.0000
  H   H9        1.0  0.5198872255835029  0.7448139527579869  0.6963099330077185  1.0000
  H   H10       1.0  0.17673402881055716  0.6964417606103978  0.9516479385711847  1.0000
  H   H11       1.0  0.48011193093653765  0.2551892144969655  0.3036967224959497  1.0000
  H   H12       1.0  0.22498300447942648  0.04846875774763499  0.7446319237718484  1.0000
  H   H13       1.0  0.6808204397560688  0.0303545348378549  0.30890487441386943  1.0000
  H   H14       1.0  0.6501941786786175  0.2781749581885221  0.969411699264555  1.0000
  H   H15       1.0  0.3721790455431062  0.6912431782042958  0.7216507825307161  1.0000
  H   H16       1.0  0.34980100293863353  0.7218241365841962  0.030581629609784475  1.0000
  H   H17       1.0  0.6278133773468185  0.308754287031995  0.27835096909166884  1.0000
  H   H18       1.0  0.319180719089104  0.9696429309747499  0.6910984174614967  1.0000
  H   H19       1.0  0.5877561817987739  0.8953407914379238  0.197512175947594  1.0000
  H   H20       1.0  0.6921061612600069  0.3018656636097035  0.1044163446718969  1.0000
  H   H21       1.0  0.3903708842390186  0.8025701291315029  0.6979323469644001  1.0000
  H   H22       1.0  0.30788698424655075  0.6981293585114513  0.8955728951441487  1.0000
  H   H23       1.0  0.6096226042946071  0.1974314087151967  0.3020726383237857  1.0000
  H   H24       1.0  0.4122510527612064  0.10465911837272297  0.8024918248964141  1.0000
  H   H25       1.0  0.5272580625013604  0.8038350783013541  0.5539421456980167  1.0000
  H   H26       1.0  0.7229175473486222  0.7497348748555482  0.19596499865802747  1.0000
  H   H27       1.0  0.9729009375526303  0.44594660526810503  0.25017741455359743  1.0000
  H   H28       1.0  0.27708386363061516  0.25026503461664606  0.8040366068440934  1.0000
  H   H29       1.0  0.02710420047905158  0.5540549335300256  0.7498241503790198  1.0000
  H   H30       1.0  0.4727401247199836  0.19616808904969932  0.4460595488935084  1.0000
  H   H31       1.0  0.5235576066817416  0.6815367077238504  0.45425602907355517  1.0000
  H   H32       1.0  0.8418401971525002  0.7724720091292882  0.3181948108016216  1.0000
  H   H33       1.0  0.06896903770127237  0.5454593165021535  0.22740847850894144  1.0000
  H   H34       1.0  0.15816299916636467  0.22752952949501545  0.6818077803591153  1.0000
  H   H35       1.0  0.9310318099552434  0.4545414074500441  0.772593363113657  1.0000
  H   H36       1.0  0.4764432400011954  0.318464016113964  0.5457492338154283  1.0000
  H   H37       1.0  0.3904513517353862  0.7293907386789724  0.4215047078736803  1.0000
  H   H38       1.0  0.6609204185749887  0.6919493548627783  0.2706209813186716  1.0000
  H   H39       1.0  0.9687985612150597  0.5784363757065519  0.30808126624825866  1.0000
  H   H40       1.0  0.3390821192444164  0.3080489256722814  0.7293794676892277  1.0000
  H   H41       1.0  0.031202442814638624  0.42156271926735644  0.6919185634876186  1.0000
  H   H42       1.0  0.609546332775551  0.2706075415359166  0.5784948854381184  1.0000
  H   H43       1.0  0.24994779323775138  0.9650283535540322  0.25787779321792925  1.0000
  H   H44       1.0  0.2842735416647812  0.2926451000171895  0.03481394818434322  1.0000
  H   H45       1.0  0.9919818834354288  0.7422638282526249  0.7072618568806988  1.0000
  H   H46       1.0  0.7157283992410582  0.7073442209268491  0.9651786000041512  1.0000
  H   H47       1.0  0.008012889285133346  0.25773445179303417  0.2927365387601597  1.0000
  H   H48       1.0  0.7500468841113702  0.0349658538995072  0.7421189084029081  1.0000
  H   H49       1.0  0.40624698754810135  0.9816356184800766  0.23298006240324307  1.0000
  H   H50       1.0  0.4238760384637885  0.251165250664279  0.017905612684678825  1.0000
  H   H51       1.0  0.17312068158344102  0.7668308676063373  0.748606180819877  1.0000
  H   H52       1.0  0.5761301312313449  0.748830586627477  0.9820924174804162  1.0000
  H   H53       1.0  0.8268721500084482  0.23316741233413293  0.2513911882892685  1.0000
  H   H54       1.0  0.5937513554622953  0.018365919824056196  0.767021673061386  1.0000
  H   H55       1.0  0.4105618964795069  0.9951577410017477  0.36004755478706585  1.0000
  H   H56       1.0  0.4145934731008937  0.3648780706479612  0.004775358137223416  1.0000
  H   H57       1.0  0.049979666318193734  0.6398660890118747  0.6350651217242032  1.0000
  H   H58       1.0  0.5854071845915884  0.635114508211494  0.9952203584322207  1.0000
  H   H59       1.0  0.9500159214697349  0.36013382016761847  0.36493271992949156  1.0000
  H   H60       1.0  0.5894319049952159  0.004840538911246  0.6399527224744048  1.0000
  H   H61       1.0  0.27906649086732926  0.49829471820469706  0.1229903796080194  1.0000
  H   H62       1.0  0.7801899596307749  0.6247133398722653  0.501430356652655  1.0000
  H   H63       1.0  0.15563154726567768  0.8766103796132896  0.3750605858025438  1.0000
  H   H64       1.0  0.21979933740399094  0.37529145613241605  0.49856428278656045  1.0000
  H   H65       1.0  0.8443787898275589  0.1233976755508408  0.6249480007524469  1.0000
  H   H66       1.0  0.7209392104870888  0.5017060061134302  0.8770109492041342  1.0000
  H   H67       1.0  0.39018765655574583  0.5771085170235183  0.2634722013672147  1.0000
  H   H68       1.0  0.8129533982618399  0.6859839015004423  0.4223917057184039  1.0000
  H   H69       1.0  0.1270553300743486  0.7362736505784894  0.3137893207904412  1.0000
  H   H70       1.0  0.1870414709984658  0.314018451274606  0.5776042784228252  1.0000
  H   H71       1.0  0.8729298321795723  0.26372870151045197  0.6862063204651321  1.0000
  H   H72       1.0  0.6098259680231309  0.4228905790116145  0.7365230106457687  1.0000
  H   H73       1.0  0.45516023761933155  0.5860998804075663  0.16587920395708264  1.0000
  H   H74       1.0  0.8686789607932398  0.5793696819236729  0.41394984452963973  1.0000
  H   H75       1.0  0.28936179531542905  0.834403909304193  0.42049986910576126  1.0000
  H   H76       1.0  0.1313146246695567  0.420635928698168  0.5860513607523643  1.0000
  H   H77       1.0  0.7106386118007038  0.16558622607868756  0.5794920598107112  1.0000
  H   H78       1.0  0.5448357594547061  0.41390084354473794  0.8341122024235474  1.0000
  H   H79       1.0  0.10126749283406157  0.7639630943953151  0.12548030594199844  1.0000
  H   H80       1.0  0.3368106274069619  0.36136391773334253  0.2358317456069798  1.0000
  H   H81       1.0  0.9756643091125882  0.8744466202374142  0.6384300964622228  1.0000
  H   H82       1.0  0.6631866507385807  0.6386335480518921  0.7641640191787431  1.0000
  H   H83       1.0  0.0243363839231634  0.1255557328989667  0.361567598767607  1.0000
  H   H84       1.0  0.8987344824414762  0.23603600071125896  0.8745176421732738  1.0000
  C   C1        1.0  0.016681370963986787  0.08615294238573058  0.734554174155413  1.0000
  C   C2        1.0  0.9307419757187888  0.6485410326832975  0.9139228890734402  1.0000
  C   C3        1.0  0.2820135518520743  0.26541607510984017  0.3515234771699057  1.0000
  C   C4        1.0  0.06926234724553375  0.351458876981006  0.08607922984634796  1.0000
  C   C5        1.0  0.7179957539671518  0.7345976816064161  0.6484872756460618  1.0000
  C   C6        1.0  0.9833227950430015  0.9138485961882308  0.26545200941092156  1.0000
  C   C7        1.0  0.6728037151332346  0.9042820987014792  0.34918290299547294  1.0000
  C   C8        1.0  0.768139209966371  0.4446167074632186  0.09553317783452552  1.0000
  C   C9        1.0  0.3236147585833891  0.6508584885764249  0.5552294523102717  1.0000
  C   C10       1.0  0.23185597126145296  0.555382387263741  0.9044615195463734  1.0000
  C   C11       1.0  0.6763788869075781  0.34914142036061674  0.44477146833136055  1.0000
  C   C12       1.0  0.32719678599134033  0.0957121091133928  0.6508155097139651  1.0000
  C   C13       1.0  0.5461762842028007  0.8328977996294495  0.3404136362643299  1.0000
  C   C14       1.0  0.7128346089079259  0.5071930081213978  0.16687306481527026  1.0000
  C   C15       1.0  0.20565964949523163  0.6595309047026774  0.49259804368529103  1.0000
  C   C16       1.0  0.2871630761871486  0.4928052721621228  0.8331244757367033  1.0000
  C   C17       1.0  0.7943356873269207  0.3404665609544821  0.5073973788219917  1.0000
  C   C18       1.0  0.4538256897097385  0.16710129531698925  0.6595891016238725  1.0000
  C   C19       1.0  0.5863320254588587  0.8168873480281035  0.4292259353205666  1.0000
  C   C20       1.0  0.7690520856609169  0.6120238696268457  0.1829337955592152  1.0000
  C   C21       1.0  0.15695133002046885  0.5706617871942966  0.3878166064873837  1.0000
  C   C22       1.0  0.23094851141924977  0.38797441084877693  0.8170642584104186  1.0000
  C   C23       1.0  0.8430512083830878  0.4293364934094015  0.6121817897606903  1.0000
  C   C24       1.0  0.4136706675654551  0.18310930339141146  0.5707766073202691  1.0000
  C   C25       1.0  0.6809732684096943  0.9477313287736564  0.27394341038019127  1.0000
  C   C26       1.0  0.7329575592486465  0.3259184844269213  0.05205908882048499  1.0000
  C   C27       1.0  0.40721504389730956  0.726171008918726  0.6739342494187001  1.0000
  C   C28       1.0  0.267037059240593  0.6740814248486797  0.9479337919210593  1.0000
  C   C29       1.0  0.5927823276725306  0.2738305292298691  0.3260700519198139  1.0000
  C   C30       1.0  0.3190306472156621  0.05226776634660269  0.7260583012798991  1.0000
  C   C31       1.0  0.5025554497077636  0.7547323783102938  0.46660391480705943  1.0000
  C   C32       1.0  0.7475205111934216  0.711589822134151  0.24511899651365354  1.0000
  C   C33       1.0  0.03567969231755792  0.5332491813336232  0.2883196758014747  1.0000
  C   C34       1.0  0.25248243377023977  0.28840927292207397  0.7548825440072235  1.0000
  C   C35       1.0  0.9643217192458238  0.4667507282072023  0.7116798769408206  1.0000
  C   C36       1.0  0.4974422342190294  0.24526590183596395  0.5333977312645716  1.0000
  C   C37       1.0  0.3159127852452741  0.831455440758262  0.230113006676156  1.0000
  C   C38       1.0  0.48397979114534456  0.39833760401102575  0.1683016415568588  1.0000
  C   C39       1.0  0.08569975886708653  0.7698375580323571  0.6013794162532733  1.0000
  C   C40       1.0  0.5160221843249104  0.6016614911184277  0.8316956223051335  1.0000
  C   C41       1.0  0.9142940426076435  0.23016072188063666  0.39862086100819744  1.0000
  C   C42       1.0  0.6840907236252605  0.16854283988659083  0.769886244964411  1.0000
  C   C43       1.0  0.40226404629014906  0.7802945226189235  0.25688498826904277  1.0000
  C   C44       1.0  0.6215610430575323  0.4762195815329448  0.2194517057460601  1.0000
  C   C45       1.0  0.1453179381276825  0.7430619372140014  0.5234935669505133  1.0000
  C   C46       1.0  0.3784378642491646  0.5237811424055677  0.7805463723317133  1.0000
  C   C47       1.0  0.8546825973665977  0.2569420447634059  0.4765102456856951  1.0000
  C   C48       1.0  0.5977351722052049  0.21970294317999614  0.743114540061498  1.0000
  C   C49       1.0  0.31562099057442344  0.6667337504697458  0.19364611307928942  1.0000
  C   C50       1.0  0.64854500741005  0.5265865323484534  0.33299753300442353  1.0000
  C   C51       1.0  0.1219396056116507  0.8062595679868065  0.4731179519356203  1.0000
  C   C52       1.0  0.3514501740124841  0.4734125624013855  0.6669964801232027  1.0000
  C   C53       1.0  0.878058737982883  0.19374197038595747  0.5268817307691833  1.0000
  C   C54       1.0  0.6843827702354588  0.33326697381182396  0.8063521364413119  1.0000
  C   C55       1.0  0.3464265587497337  0.949190603764194  0.27215205149106947  1.0000
  C   C56       1.0  0.39656527900717004  0.32277634520267645  0.05059092478247609  1.0000
  C   C57       1.0  0.07405901657708817  0.7278069721842115  0.6770606563786359  1.0000
  C   C58       1.0  0.603439512297868  0.677218677435249  0.9494078954902605  1.0000
  C   C59       1.0  0.925934785481779  0.2721913077974206  0.32293756812300245  1.0000
  C   C60       1.0  0.6535707184222375  0.050806861906650604  0.7278471345610315  1.0000
  C   C61       1.0  0.3615706205129072  0.5768524728857827  0.1859952344918342  1.0000
  C   C62       1.0  0.7843854062090754  0.6088875355499326  0.4228959280817222  1.0000
  C   C63       1.0  0.1755441184703342  0.8138649024318168  0.390901295784566  1.0000
  C   C64       1.0  0.21560501688700381  0.3911156314261106  0.5771002918763771  1.0000
  C   C65       1.0  0.8244561662528794  0.1861366360461432  0.6090994134519505  1.0000
  C   C66       1.0  0.6384327331527261  0.42314743687462203  0.8140019235158037  1.0000
  S   S1        1.0  0.0436681585810561  0.1371563604478325  0.8628888713497604  1.0000
  S   S2        1.0  0.906977366166153  0.7260051185818739  0.8629967014451837  1.0000
  S   S3        1.0  0.18070950269885339  0.13701075655670536  0.2741506369874713  1.0000
  S   S4        1.0  0.09302664483065118  0.27399804913051173  0.1370067042349348  1.0000
  S   S5        1.0  0.8192941969145694  0.8629956692723937  0.7258520026931521  1.0000
  S   S6        1.0  0.9563333464066234  0.8628476214563464  0.13711921794532603  1.0000
  N   N1        1.0  0.0004241910191495917  0.048687398132336995  0.6413359242006821  1.0000
  N   N2        1.0  0.9517204667948815  0.5927078130718185  0.9513521952001724  1.0000
  N   N3        1.0  0.3589376797099034  0.3586449542929698  0.40733362032776904  1.0000
  N   N4        1.0  0.0482819154302021  0.4072920965330411  0.04864752868134302  1.0000
  N   N5        1.0  0.6410608183106772  0.6413549548727387  0.592670893023076  1.0000
  N   N6        1.0  0.9995811014385794  0.9513125114587312  0.3586704713779768  1.0000
  N   N7        1.0  0.7832652137586039  0.9263991392804556  0.4359490884028007  1.0000
  N   N8        1.0  0.8565975660770138  0.5093185297868317  0.07354015045493871  1.0000
  N   N9        1.0  0.3473454797300093  0.564119153640803  0.49061357955636725  1.0000
  N   N10       1.0  0.14340165280777478  0.49067893605784  0.9264580093690571  1.0000
  N   N11       1.0  0.6526616942176489  0.4358864577860118  0.509392758687831  1.0000
  N   N12       1.0  0.2167338491424218  0.07359995558825717  0.5640497148013566  1.0000
  N   N13       1.0  0.7269102904975782  0.8725409928704692  0.4824319537951922  1.0000
  N   N14       1.0  0.8540850252407283  0.6096477107775654  0.127413816384859  1.0000
  N   N15       1.0  0.24438638523646714  0.5175289716985886  0.3902724088933738  1.0000
  N   N16       1.0  0.14591986124104042  0.39035138442960715  0.8725873821611786  1.0000
  N   N17       1.0  0.7556194103211099  0.4824758250744025  0.6097347194584586  1.0000
  N   N18       1.0  0.2730922467376828  0.1274572875959592  0.5175705479725394  1.0000
  N   N19       1.0  0.18407351189958374  0.6501929788406072  0.13443239072572769  1.0000
  N   N20       1.0  0.5335310925288609  0.4840137184471585  0.34957963752497523  1.0000
  N   N21       1.0  0.049534285554898284  0.8654316861145047  0.51571386186437  1.0000
  N   N22       1.0  0.4664644966220663  0.5159861908924768  0.6504134143557821  1.0000
  N   N23       1.0  0.95046747195628  0.1345747394950223  0.48429117255091814  1.0000
  N   N24       1.0  0.8159276475297333  0.34980448704062894  0.8655688483898133  1.0000
  N   N25       1.0  0.18873880642937724  0.751646121620844  0.15760338967449875  1.0000
  N   N26       1.0  0.43666720819177124  0.40568265561597616  0.2481208140946123  1.0000
  N   N27       1.0  0.03102645425281032  0.8423097954017608  0.5940171166825438  1.0000
  N   N28       1.0  0.5633341085843071  0.594313181401361  0.7518749918678296  1.0000
  N   N29       1.0  0.9689716381812377  0.15768929942579749  0.40598083112912065  1.0000
  N   N30       1.0  0.81126291729624  0.24835052989477183  0.8423941920541864  1.0000
