data_image0
_chemical_formula_structural       Zn8H20C44N8O26
_chemical_formula_sum              "Zn8 H20 C44 N8 O26"
_cell_length_a       16.018174147319115
_cell_length_b       15.94850693875233
_cell_length_c       17.048067185510995
_cell_angle_alpha    62.42897548264022
_cell_angle_beta     62.653718563836776
_cell_angle_gamma    90.12099215708675

_space_group_name_H-M_alt    "P 1"
_space_group_IT_number       1

loop_
  _space_group_symop_operation_xyz
  'x, y, z'

loop_
  _atom_site_type_symbol
  _atom_site_label
  _atom_site_symmetry_multiplicity
  _atom_site_fract_x
  _atom_site_fract_y
  _atom_site_fract_z
  _atom_site_occupancy
  Zn  Zn1       1.0  0.8940762718392747  0.2948274210135295  0.4092254949699027  1.0000
  Zn  Zn2       1.0  0.2934902654959898  0.8945112025740654  0.41037289122678566  1.0000
  Zn  Zn3       1.0  0.6925113693364366  0.2936845100531186  0.41286662588211015  1.0000
  Zn  Zn4       1.0  0.30748996511629656  0.7063156126257722  0.5871335698462091  1.0000
  Zn  Zn5       1.0  0.7065072524260926  0.10548524899567717  0.5896252638309962  1.0000
  Zn  Zn6       1.0  0.10592024445371341  0.7051705040194702  0.5907753879081029  1.0000
  Zn  Zn7       1.0  0.7077523848314582  0.3080041805082202  0.5874175333308784  1.0000
  Zn  Zn8       1.0  0.29224684134504025  0.6919959461668412  0.41258239855352496  1.0000
  H   H1        1.0  0.9751652131674927  0.6644647183391185  0.9276737452525128  1.0000
  H   H2        1.0  0.3037171322910979  0.49291230731257235  0.9756105638872585  1.0000
  H   H3        1.0  0.20124073889819974  0.3898833083489208  0.04578333780558113  1.0000
  H   H4        1.0  0.19151185213936364  0.4830676078810257  0.07738445678006668  1.0000
  H   H5        1.0  0.7602178869572852  0.45713405563790127  0.13520098052689639  1.0000
  H   H6        1.0  0.6962794841274584  0.5070885600018045  0.024389588524648814  1.0000
  H   H7        1.0  0.8084876767621694  0.5169310471741326  0.9226177411152893  1.0000
  H   H8        1.0  0.7987587900033332  0.6101153467062377  0.9542188600897816  1.0000
  H   H9        1.0  0.2665518018015901  0.9825337305205863  0.13649108626695053  1.0000
  H   H10       1.0  0.23193016761142357  0.1286791714923581  0.041737898138109145  1.0000
  H   H11       1.0  0.29028585093433174  0.08468034119664482  0.9559661306145202  1.0000
  H   H12       1.0  0.02482939894318998  0.33553394637475975  0.07233115970881002  1.0000
  H   H13       1.0  0.3580665692457145  0.18154965209451024  0.9467800476133877  1.0000
  H   H14       1.0  0.7334496301080762  0.0174693340857175  0.8635048608404716  1.0000
  H   H15       1.0  0.7680723709453899  0.871325362581018  0.9582610406334455  1.0000
  H   H16       1.0  0.6419363708273804  0.8184563524633646  0.05321866762562891  1.0000
  H   H17       1.0  0.7097178895026985  0.9153286039762563  0.044028619404606846  1.0000
  H   H18       1.0  0.23977622233737603  0.5428653455421254  0.8648026497284393  1.0000
  H   H19       1.0  0.5844739035417986  0.039420520820876  0.07254640248046948  1.0000
  H   H20       1.0  0.41552712996498536  0.9605810737138968  0.927453872673425  1.0000
  C   C1        1.0  0.6118873889179995  0.1124559827963481  0.779470166087293  1.0000
  C   C2        1.0  0.47466894211726895  0.5282187130688953  0.4984218810759344  1.0000
  C   C3        1.0  0.9730964789438588  0.026728009827614595  0.500071312484927  1.0000
  C   C4        1.0  0.026907066579305142  0.9732750514904537  0.49993193477600095  1.0000
  C   C5        1.0  0.5253277707085359  0.4717799466458955  0.5015733196240363  1.0000
  C   C6        1.0  0.527768839086299  0.026606684748458096  0.49930470367532825  1.0000
  C   C7        1.0  0.47223048187849764  0.9733963835000594  0.5006874614333797  1.0000
  C   C8        1.0  0.3881101291642254  0.8875456181824006  0.22052751934325707  1.0000
  C   C9        1.0  0.9093332179535666  0.09093392069244291  0.4998283512006194  1.0000
  C   C10       1.0  0.09066922270154272  0.9090676713945244  0.5001742498326963  1.0000
  C   C11       1.0  0.5869445658638739  0.40564138264909394  0.5036039731686728  1.0000
  C   C12       1.0  0.4130558633670133  0.5943580058934615  0.49639399866793366  1.0000
  C   C13       1.0  0.5933655941117663  0.09049942178143057  0.4979242950930572  1.0000
  C   C14       1.0  0.8833429830878855  0.39061728869381807  0.21966361306742493  1.0000
  C   C15       1.0  0.40663513355658404  0.909503643960285  0.5020696095359513  1.0000
  C   C16       1.0  0.9114397934265597  0.4116170372480498  0.49528995663113323  1.0000
  C   C17       1.0  0.08856384700938949  0.5883786668844309  0.5047070494676902  1.0000
  C   C18       1.0  0.9746317494468996  0.47416042728143987  0.49754777550050727  1.0000
  C   C19       1.0  0.02537420097521443  0.5258308588355901  0.5024513182010183  1.0000
  C   C20       1.0  0.11665504003421735  0.609383576113764  0.7803382788647754  1.0000
  C   C21       1.0  0.02021828827952983  0.549172791268333  0.04019112673162091  1.0000
  C   C22       1.0  0.9797780288120207  0.45082439872889774  0.9598119201696211  1.0000
  C   C23       1.0  0.5157977113554892  0.09873510569380528  0.967176513284834  1.0000
  C   C24       1.0  0.4842054282036726  0.901266484549815  0.032821093917306206  1.0000
  C   C25       1.0  0.9848888716600114  0.59066665557733  0.9608611555244482  1.0000
  C   C26       1.0  0.01510895048156155  0.40933347395850456  0.03914055499445376  1.0000
  C   C27       1.0  0.5477321870522047  0.021734872373159003  0.03948171154804198  1.0000
  C   C28       1.0  0.45227005039851775  0.978265984147093  0.9605177762763193  1.0000
  C   C29       1.0  0.05933858404153368  0.552806940849962  0.895195125782884  1.0000
  C   C30       1.0  0.9406564286958882  0.44719319423042236  0.10480838292762956  1.0000
  C   C31       1.0  0.4464628125937791  0.9442769453544597  0.10546152929089936  1.0000
  C   C32       1.0  0.5535401273191738  0.055723909794401984  0.8945376555753415  1.0000
  C   C33       1.0  0.09754150631054866  0.5106229208987187  0.9712554138776073  1.0000
  C   C34       1.0  0.9024536077266132  0.48937500723101823  0.028749593071431694  1.0000
  C   C35       1.0  0.4115729660392019  0.0206495270227549  0.03530423329074488  1.0000
  C   C36       1.0  0.5884298725740179  0.9793535350767539  0.9646934533369704  1.0000
  C   C37       1.0  0.03911992410202452  0.5988922730798192  0.08366939972354008  1.0000
  C   C38       1.0  0.9608765944148274  0.4011056522481482  0.9163344149501359  1.0000
  C   C39       1.0  0.5304582786317411  0.19985328642063394  0.9362062750162327  1.0000
  C   C40       1.0  0.4695446608364405  0.8001475686692319  0.06379232349087967  1.0000
  C   C41       1.0  0.22413190820459755  0.4698183936053297  0.013072558345193384  1.0000
  C   C42       1.0  0.7758661153622839  0.5301824712612416  0.9869299199461427  1.0000
  C   C43       1.0  0.2995941414768665  0.1123221554266323  0.0009396318687678008  1.0000
  C   C44       1.0  0.7004085971709273  0.8876831138005059  0.9990583155978147  1.0000
  N   N1        1.0  0.055221659984653046  0.639842348281725  0.11921122470652538  1.0000
  N   N2        1.0  0.8039999752416801  0.472180938289867  0.06167993784964675  1.0000
  N   N3        1.0  0.3231783906279447  0.04344762373397509  0.07620644832794453  1.0000
  N   N4        1.0  0.6768251500027272  0.9565554369351472  0.9237903489825146  1.0000
  N   N5        1.0  0.19599674425569447  0.527817722309841  0.9383240582373206  1.0000
  N   N6        1.0  0.9447812808178354  0.3601585069851295  0.8807891328779861  1.0000
  N   N7        1.0  0.5394274386407147  0.2818963885127488  0.9139749220741039  1.0000
  N   N8        1.0  0.4605749975666739  0.7181052029842757  0.08602181536788603  1.0000
  O   O1        1.0  0.7504992405183157  0.24995358129959305  0.49978287515464365  1.0000
  O   O2        1.0  0.3607190159736077  0.7943597907000778  0.2655726814959893  1.0000
  O   O3        1.0  0.9329180798882958  0.35926474847934736  0.26293371994611203  1.0000
  O   O4        1.0  0.06708004319922618  0.6407339092005984  0.7370679111472216  1.0000
  O   O5        1.0  0.8184767950227607  0.04891858968927212  0.5652916957047368  1.0000
  O   O6        1.0  0.18152544420704683  0.9510822670669583  0.43471013755615234  1.0000
  O   O7        1.0  0.6028228045975369  0.37269777937410714  0.44417762493183943  1.0000
  O   O8        1.0  0.3971798337645537  0.6272993981626345  0.5558215226280722  1.0000
  O   O9        1.0  0.24949868247822582  0.750044341226598  0.5002197472436551  1.0000
  O   O10       1.0  0.6195737362855026  0.04868299165022451  0.5637119441003192  1.0000
  O   O11       1.0  0.38042408229789965  0.9513171374136531  0.43628507554552004  1.0000
  O   O12       1.0  0.6176118217937301  0.18173075122275856  0.430987683992676  1.0000
  O   O13       1.0  0.38239382444454845  0.8182723050962222  0.5690058590069003  1.0000
  O   O14       1.0  0.8202942883730486  0.3935497083808741  0.5561652226605319  1.0000
  O   O15       1.0  0.1797110601571673  0.6064445214479192  0.4438340298921447  1.0000
  O   O16       1.0  0.9533286328893238  0.38105115902713027  0.43349581518147334  1.0000
  O   O17       1.0  0.04667350087765944  0.618946754739781  0.566499712235924  1.0000
  O   O18       1.0  0.9510488723962068  0.18225344132451227  0.4343325806245845  1.0000
  O   O19       1.0  0.04895236298064984  0.8177488885999934  0.5656690486608654  1.0000
  O   O20       1.0  0.6186963407195804  0.38767716918176387  0.5642449993171184  1.0000
  O   O21       1.0  0.3813041886368679  0.6123251616421752  0.4357522420533829  1.0000
  O   O22       1.0  0.6296157807224245  0.061416116982449885  0.736947145624619  1.0000
  O   O23       1.0  0.37039016868565966  0.9385854677756175  0.26304924974504484  1.0000
  O   O24       1.0  0.7910639440098493  0.37910283943464407  0.2648618677490405  1.0000
  O   O25       1.0  0.2089350831253539  0.6209017016136682  0.7351397585313679  1.0000
  O   O26       1.0  0.6392651522128218  0.2056418359221013  0.7344266556248727  1.0000
