data_image0
_chemical_formula_structural       Gd2Cu2H44C36I2N10O18
_chemical_formula_sum              "Gd2 Cu2 H44 C36 I2 N10 O18"
_cell_length_a       10.878906927066726
_cell_length_b       12.778667025047897
_cell_length_c       14.54800104506644
_cell_angle_alpha    92.31739690432212
_cell_angle_beta     95.45584754290097
_cell_angle_gamma    120.79235188112222

_space_group_name_H-M_alt    "P 1"
_space_group_IT_number       1

loop_
  _space_group_symop_operation_xyz
  'x, y, z'

loop_
  _atom_site_type_symbol
  _atom_site_label
  _atom_site_symmetry_multiplicity
  _atom_site_fract_x
  _atom_site_fract_y
  _atom_site_fract_z
  _atom_site_occupancy
  Gd  Gd1       1.0  0.7787858871929104  0.37621799227316904  0.96407029338544  1.0000
  Gd  Gd2       1.0  0.22121255431078884  0.6237704298238071  0.03592721015836281  1.0000
  Cu  Cu1       1.0  0.01112666441796532  0.9966865550621267  0.5875949218244969  1.0000
  Cu  Cu2       1.0  0.9888471100933391  0.0033007005700938135  0.41239918376513884  1.0000
  H   H1        1.0  0.23516002590639565  0.797267914959981  0.7763898613863347  1.0000
  H   H2        1.0  0.764837380874205  0.2027389958217967  0.22362677217926571  1.0000
  H   H3        1.0  0.3009121506926462  0.35102163859041  0.8398487855793277  1.0000
  H   H4        1.0  0.6990620085158028  0.6489433489155942  0.1601480028965341  1.0000
  H   H5        1.0  0.7725093197628895  0.6134872026169874  0.7527347792186276  1.0000
  H   H6        1.0  0.22747733077584814  0.3865085694489211  0.24727372280861462  1.0000
  H   H7        1.0  0.8421387957974746  0.21105459877927765  0.7985102134853079  1.0000
  H   H8        1.0  0.15785055767408113  0.7889521145882558  0.20148376764355902  1.0000
  H   H9        1.0  0.2606920829046118  0.2038954205511416  0.7051538519962505  1.0000
  H   H10       1.0  0.739278051309178  0.7960836603039354  0.29483829792562233  1.0000
  H   H11       1.0  0.2276936067664083  0.9347943654048335  0.659055208465695  1.0000
  H   H12       1.0  0.7723138441949262  0.06521217578396941  0.34095740693246057  1.0000
  H   H13       1.0  0.8196338312613849  0.06473327945347761  0.6682278686101172  1.0000
  H   H14       1.0  0.18035938390076472  0.9352736417639703  0.3317636803216645  1.0000
  H   H15       1.0  0.6740269484322  0.34978427800204054  0.1883051809410006  1.0000
  H   H16       1.0  0.3259579112444513  0.6502096981606796  0.8116948644581754  1.0000
  H   H17       1.0  0.783506629297513  0.761515514875093  0.6380438551940628  1.0000
  H   H18       1.0  0.21649709898773042  0.23849262908752417  0.3619685176194097  1.0000
  H   H19       1.0  0.6047822562731541  0.0973499387005816  0.07173600961866812  1.0000
  H   H20       1.0  0.3951680483042353  0.9026068631850565  0.9282496366909427  1.0000
  H   H21       1.0  0.6118348069827847  0.43125875403642067  0.2921333245206981  1.0000
  H   H22       1.0  0.3881516671737587  0.5687425561321646  0.7078512978660285  1.0000
  H   H23       1.0  0.4208379408191263  0.34716753852892873  0.2908740739272631  1.0000
  H   H24       1.0  0.5791586835955088  0.6528422046914812  0.7091192233453257  1.0000
  H   H25       1.0  0.5084486402739684  0.4978699237368572  0.254148627742687  1.0000
  H   H26       1.0  0.4915448883117791  0.5021325727038004  0.7458414154329561  1.0000
  H   H27       1.0  0.5904174292462017  0.9489665212545118  0.1453048745005745  1.0000
  H   H28       1.0  0.409579616228875  0.0510094052134917  0.8546879515207735  1.0000
  H   H29       1.0  0.7570919869492915  0.9513405773805063  0.1600631742288456  1.0000
  H   H30       1.0  0.2428947759990479  0.0486489329192352  0.8399492407147733  1.0000
  H   H31       1.0  0.6071316084737365  0.837425346729795  0.07954178246871631  1.0000
  H   H32       1.0  0.3928906372509149  0.16257754911938352  0.920460206434207  1.0000
  H   H33       1.0  0.39347418474838514  0.32966916065550583  0.02306961239870022  1.0000
  H   H34       1.0  0.6065218240305086  0.670324557199457  0.9769196330295672  1.0000
  H   H35       1.0  0.38150864291520065  0.43908849031675606  0.09657419432828362  1.0000
  H   H36       1.0  0.6184861354544609  0.5609026149228455  0.9034011110976294  1.0000
  H   H37       1.0  0.2712352278835723  0.280082695049181  0.1083632746429828  1.0000
  H   H38       1.0  0.7287519912712597  0.7199231314071568  0.8916181296144855  1.0000
  H   H39       1.0  0.8509195787465915  0.07530486075871322  0.9336757921996722  1.0000
  H   H40       1.0  0.14915866429188193  0.9247795300485111  0.06638237878691201  1.0000
  H   H41       1.0  0.7550113399991076  0.9128089825184914  0.9389866906709159  1.0000
  H   H42       1.0  0.24514482670224422  0.0872749419987784  0.06104678953057171  1.0000
  H   H43       1.0  0.9031838295207422  0.010894224114963396  0.02608327138655399  1.0000
  H   H44       1.0  0.09691763835980542  0.9892100071703068  0.9739733406085165  1.0000
  C   C1        1.0  0.003825476327911219  0.6976652063094163  0.776144435675441  1.0000
  C   C2        1.0  0.9961762465187931  0.30233229296528913  0.2238515892654789  1.0000
  C   C3        1.0  0.13301742671015404  0.7871323999069375  0.7476056062568404  1.0000
  C   C4        1.0  0.8669835186854584  0.21286582380012223  0.2524055056759877  1.0000
  C   C5        1.0  0.09358181959465382  0.383782981597065  0.9065077553501908  1.0000
  C   C6        1.0  0.9064058491986061  0.6161977977945909  0.09348930057278439  1.0000
  C   C7        1.0  0.0026181858937804584  0.6198267260684318  0.8510971425336749  1.0000
  C   C8        1.0  0.9973728931206626  0.3801533727242372  0.14889466378525637  1.0000
  C   C9        1.0  0.07382476560399452  0.2921231873514074  0.830461935337972  1.0000
  C   C10       1.0  0.9261666674857665  0.7078658195487222  0.1695315884712727  1.0000
  C   C11       1.0  0.19243329537416548  0.2889889514102464  0.8037584709686032  1.0000
  C   C12       1.0  0.8075529216167967  0.7109971822932833  0.19622903281688048  1.0000
  C   C13       1.0  0.8750535272058855  0.6854590490672763  0.7346885269364307  1.0000
  C   C14       1.0  0.12494551394933502  0.3145471431047255  0.2653172133967985  1.0000
  C   C15       1.0  0.936955923174523  0.21034200780609782  0.781335887390199  1.0000
  C   C16       1.0  0.0630338057201314  0.7896603071503205  0.21865384409179  1.0000
  C   C17       1.0  0.17033851667392239  0.206012979683507  0.7299917098798048  1.0000
  C   C18       1.0  0.8296407733129669  0.7939674638741676  0.2699970990328779  1.0000
  C   C19       1.0  0.12973856508174464  0.863682222060298  0.6835211948631184  1.0000
  C   C20       1.0  0.8702490043800141  0.13631358219384987  0.3164887570329142  1.0000
  C   C21       1.0  0.9237985978249199  0.129227652909627  0.7091331290737558  1.0000
  C   C22       1.0  0.07618630492520165  0.8707708996324401  0.2908526447097444  1.0000
  C   C23       1.0  0.5851281239884331  0.3303877553511825  0.1336637278046169  1.0000
  C   C24       1.0  0.4148436692674623  0.6696056844879195  0.8663249370764419  1.0000
  C   C25       1.0  0.8806104949130857  0.7660829260412286  0.671764320376468  1.0000
  C   C26       1.0  0.11938920408908166  0.23391442976002716  0.32823703649911806  1.0000
  C   C27       1.0  0.6739930301787211  0.0949218197014119  0.02191961602409981  1.0000
  C   C28       1.0  0.325999912802331  0.905068167158582  0.9780720013066998  1.0000
  C   C29       1.0  0.5091105989630051  0.4122117514654633  0.2545619984900895  1.0000
  C   C30       1.0  0.49087863147827443  0.5877914065687903  0.7454304724754337  1.0000
  C   C31       1.0  0.6648201187100682  0.9332865354293957  0.10970909937061889  1.0000
  C   C32       1.0  0.3351813189130937  0.0666929688933067  0.8903068915844585  1.0000
  C   C33       1.0  0.3776725700082082  0.35157472362249104  0.0927893716842974  1.0000
  C   C34       1.0  0.6223234852703002  0.6484190140067199  0.907197815825903  1.0000
  C   C35       1.0  0.8117610895582743  0.0027897063178201884  0.9801030576046585  1.0000
  C   C36       1.0  0.1883545938131381  0.9972833056361811  0.01993572191341295  1.0000
  I   I1        1.0  0.2507719754834952  0.09710518280946451  0.5073691796340185  1.0000
  I   I2        1.0  0.7491838919313595  0.902874264891423  0.4926032757668608  1.0000
  N   N1        1.0  0.006006066386632308  0.8565520972281317  0.647876741996001  1.0000
  N   N2        1.0  0.9939865617177617  0.1434475683115934  0.3521268780082067  1.0000
  N   N3        1.0  0.03796492848467641  0.12582161293785527  0.6833337445527761  1.0000
  N   N4        1.0  0.9620182953286122  0.8741706332358349  0.31665098449146  1.0000
  N   N5        1.0  0.49277084906223934  0.36114255139069945  0.15959176824276972  1.0000
  N   N6        1.0  0.5072102424074032  0.638849505169631  0.8404030945449463  1.0000
  N   N7        1.0  0.5891458450498065  0.32572623019186864  0.7932796673462619  1.0000
  N   N8        1.0  0.4108380647040662  0.6742677005997918  0.206720300129497  1.0000
  N   N9        1.0  0.7149175330274034  0.014038918045223203  0.036542392707374895  1.0000
  N   N10       1.0  0.2851204273879733  0.9859645645523402  0.9634801281288504  1.0000
  O   O1        1.0  0.8806294991395591  0.5408148798431116  0.8722699230429285  1.0000
  O   O2        1.0  0.1193641370830321  0.45915822462191597  0.1277211546376193  1.0000
  O   O3        1.0  0.9822745703146298  0.3823016613245827  0.9289141937916483  1.0000
  O   O4        1.0  0.017722808372340686  0.6176947284684856  0.0710828178847791  1.0000
  O   O5        1.0  0.12506743349093344  0.6416831556465964  0.8891589750137358  1.0000
  O   O6        1.0  0.8749276849429111  0.3583192997078656  0.11084494346248161  1.0000
  O   O7        1.0  0.22078751315140727  0.4621831613254557  0.9448070854826085  1.0000
  O   O8        1.0  0.7792076120990431  0.5378024783170545  0.055184553884259906  1.0000
  O   O9        1.0  0.7082141362799703  0.1631135196938303  0.9576007363273149  1.0000
  O   O10       1.0  0.2918126996649735  0.8368975963035512  0.04240328616678821  1.0000
  O   O11       1.0  0.5767608266543932  0.2836462399243161  0.053683901595952904  1.0000
  O   O12       1.0  0.42322716521443515  0.7163434343919735  0.9463162437627091  1.0000
  O   O13       1.0  0.6781819513426514  0.2879468074938814  0.8005283222135162  1.0000
  O   O14       1.0  0.3218107188665088  0.7120609370271539  0.1994680241198594  1.0000
  O   O15       1.0  0.5699357972802659  0.3659248407490169  0.8708858743417168  1.0000
  O   O16       1.0  0.4300467110814311  0.6340681562226891  0.129111197803681  1.0000
  O   O17       1.0  0.525355544024734  0.32448115446499065  0.7182619944545934  1.0000
  O   O18       1.0  0.4746257432017915  0.6754913601762456  0.2817280702215612  1.0000
