data_image0
_chemical_formula_structural       Ba4H24C28N8O36
_chemical_formula_sum              "Ba4 H24 C28 N8 O36"
_cell_length_a       4.364252776138526
_cell_length_b       11.009145143485707
_cell_length_c       23.638408836337618
_cell_angle_alpha    93.64292485325699
_cell_angle_beta     89.99786437833154
_cell_angle_gamma    89.99845208405489

_space_group_name_H-M_alt    "P 1"
_space_group_IT_number       1

loop_
  _space_group_symop_operation_xyz
  'x, y, z'

loop_
  _atom_site_type_symbol
  _atom_site_label
  _atom_site_symmetry_multiplicity
  _atom_site_fract_x
  _atom_site_fract_y
  _atom_site_fract_z
  _atom_site_occupancy
  Ba  Ba1       1.0  0.6140414187703483  0.7071975672170083  0.9884371652620063  1.0000
  Ba  Ba2       1.0  0.11406848118607368  0.792803294863191  0.511558346142877  1.0000
  Ba  Ba3       1.0  0.3859488801550058  0.2928079699593766  0.011551904432273802  1.0000
  Ba  Ba4       1.0  0.8859424379298558  0.2071951111825143  0.4884515568182337  1.0000
  H   H1        1.0  0.8911803028503796  0.3119798063013661  0.8075948683104386  1.0000
  H   H2        1.0  0.3911592206389187  0.1880103674089071  0.6924055169555032  1.0000
  H   H3        1.0  0.10885582396671367  0.688013398474787  0.1923885454308518  1.0000
  H   H4        1.0  0.6088677370802669  0.8119967994071968  0.3076090283198383  1.0000
  H   H5        1.0  0.3529260294869728  0.6173679438438169  0.7398093505382876  1.0000
  H   H6        1.0  0.8529380498805564  0.8826250368002347  0.7601816943806767  1.0000
  H   H7        1.0  0.6471467580546032  0.3826246582123287  0.2601816548188722  1.0000
  H   H8        1.0  0.14712327822584828  0.11738795538746417  0.23982846621486692  1.0000
  H   H9        1.0  0.2295328153725222  0.9624760765189533  0.9493609318291762  1.0000
  H   H10       1.0  0.7295582058345859  0.5375204865468675  0.5506374352793628  1.0000
  H   H11       1.0  0.7703291690177991  0.0375130892985069  0.05062737379425641  1.0000
  H   H12       1.0  0.2704023032347322  0.46248691494710675  0.4493741578845629  1.0000
  H   H13       1.0  0.19562433096653103  0.9466863521018282  0.013802800717129991  1.0000
  H   H14       1.0  0.6956707538553032  0.5532991766442237  0.48619390150826564  1.0000
  H   H15       1.0  0.8041528746378288  0.053290381613244585  0.9861811147036903  1.0000
  H   H16       1.0  0.30416373100014477  0.446706071691402  0.5138218247882094  1.0000
  H   H17       1.0  0.83414322510243  0.8496652975754485  0.0968577122498218  1.0000
  H   H18       1.0  0.3342600061282183  0.6503321177313026  0.4031416043681872  1.0000
  H   H19       1.0  0.1658264512139311  0.15032949815246605  0.9031401691081984  1.0000
  H   H20       1.0  0.665773826398471  0.3496784806626962  0.5968642112676862  1.0000
  H   H21       1.0  0.5246474101940422  0.9164034977428198  0.1132799143099135  1.0000
  H   H22       1.0  0.024754094663336394  0.5835981611528566  0.3867224663770373  1.0000
  H   H23       1.0  0.47534059631491493  0.08359086273206628  0.8867234499104556  1.0000
  H   H24       1.0  0.9752957782043479  0.41640660581134625  0.6132763036704958  1.0000
  C   C1        1.0  0.8414321814010958  0.4021652019195158  0.91639602983102  1.0000
  C   C2        1.0  0.34141035507899886  0.0978280797673179  0.5836069417712794  1.0000
  C   C3        1.0  0.15856499195911766  0.5978293870365619  0.083592951921112  1.0000
  C   C4        1.0  0.6585959807229073  0.9021792210551065  0.4164059165222085  1.0000
  C   C5        1.0  0.9908627411688754  0.46037822918453486  0.8677846936094654  1.0000
  C   C6        1.0  0.49083966192723955  0.03961367826492081  0.632213852292118  1.0000
  C   C7        1.0  0.009155054858830199  0.5396064884010912  0.13220213380758852  1.0000
  C   C8        1.0  0.509180421708457  0.9603990798366057  0.367799260793781  1.0000
  C   C9        1.0  0.9925293050169726  0.4018544954167992  0.8145074585779142  1.0000
  C   C10       1.0  0.4925001280117697  0.09813638377411141  0.6854922984342621  1.0000
  C   C11       1.0  0.0075068216425862  0.5981329507454304  0.185479496195029  1.0000
  C   C12       1.0  0.5075084989210835  0.9018707496694488  0.3145226686691842  1.0000
  C   C13       1.0  0.11948450349220957  0.45907945965459607  0.7683090366075191  1.0000
  C   C14       1.0  0.6194882353963534  0.04091063028044321  0.7316859207165223  1.0000
  C   C15       1.0  0.8805516230875838  0.5409088625934827  0.23167838240249244  1.0000
  C   C16       1.0  0.3805433052309651  0.959098589941476  0.268325757144396  1.0000
  C   C17       1.0  0.2532757018454318  0.5738771462356594  0.7754722285959234  1.0000
  C   C18       1.0  0.7532575765747608  0.926111170976121  0.7245230587357624  1.0000
  C   C19       1.0  0.7467947947893447  0.42611016584471173  0.22451641311050005  1.0000
  C   C20       1.0  0.2467877119933704  0.07389983481522219  0.2754891257873099  1.0000
  C   C21       1.0  0.25800197514356427  0.6310606066170903  0.8293138031851373  1.0000
  C   C22       1.0  0.7579922582287608  0.868934968559543  0.6706813688805937  1.0000
  C   C23       1.0  0.7420501904231641  0.36892926687504257  0.1706770748241979  1.0000
  C   C24       1.0  0.2420461563306091  0.13107980939901154  0.32932929850611  1.0000
  C   C25       1.0  0.12295387061852377  0.5801127861185053  0.8783253131512937  1.0000
  C   C26       1.0  0.6229368516959254  0.9198782409045306  0.6216662943716643  1.0000
  C   C27       1.0  0.8770799652766214  0.41987229958479594  0.12165687480968762  1.0000
  C   C28       1.0  0.37708323217402295  0.08013094590707939  0.3783458052931722  1.0000
  N   N1        1.0  0.09501850944274538  0.40193494468160657  0.712528815461866  1.0000
  N   N2        1.0  0.5950455130700616  0.09805804222976629  0.7874677066674424  1.0000
  N   N3        1.0  0.9050107426920773  0.5980624397220566  0.2874594500705783  1.0000
  N   N4        1.0  0.4049654053501611  0.90194450993242  0.21254746982423003  1.0000
  N   N5        1.0  0.38071902496873367  0.7531398577079499  0.8347749287888107  1.0000
  N   N6        1.0  0.8807192876909653  0.746839983347776  0.6652165912445938  1.0000
  N   N7        1.0  0.6192735657600037  0.24684914002565247  0.1652154851930732  1.0000
  N   N8        1.0  0.11928704840275368  0.253166608755066  0.3347936939938094  1.0000
  O   O1        1.0  0.11411132512947832  0.6378234672343126  0.9270087627656949  1.0000
  O   O2        1.0  0.6140993940103953  0.8621708934851855  0.5729881380246056  1.0000
  O   O3        1.0  0.8858995967046679  0.36216205952841557  0.0729793724398178  1.0000
  O   O4        1.0  0.3859138149258853  0.13785072593238817  0.42702835216533697  1.0000
  O   O5        1.0  0.6412186297695682  0.46403481947679376  0.944668885653364  1.0000
  O   O6        1.0  0.14119338814523266  0.0359633240231005  0.5553364658829167  1.0000
  O   O7        1.0  0.3588037482989249  0.5359634745237398  0.0553194223767264  1.0000
  O   O8        1.0  0.8588060737347263  0.9640403051274047  0.4446766443045079  1.0000
  O   O9        1.0  0.9188799943808588  0.29439886468145465  0.9279447217405162  1.0000
  O   O10       1.0  0.41884816302568584  0.20559366643828975  0.5720564395782191  1.0000
  O   O11       1.0  0.0811171794206018  0.7055913773186191  0.07204151706267939  1.0000
  O   O12       1.0  0.5811696303686206  0.7944039973768183  0.427951312067222  1.0000
  O   O13       1.0  0.9361036694106699  0.30794422096997925  0.7050484178949006  1.0000
  O   O14       1.0  0.436113782886764  0.19205296971032473  0.7949490385619669  1.0000
  O   O15       1.0  0.06393703959665228  0.6920589219846603  0.2949363065655747  1.0000
  O   O16       1.0  0.5638925532665197  0.8079489741772223  0.20506229959993053  1.0000
  O   O17       1.0  0.2287024797575796  0.4498431642035712  0.6721733691490499  1.0000
  O   O18       1.0  0.7287406478029509  0.0501550218219151  0.8278187136008698  1.0000
  O   O19       1.0  0.7713336464092746  0.5501626739803099  0.3278119045115488  1.0000
  O   O20       1.0  0.2712656882604633  0.949845912086765  0.1721938473783737  1.0000
  O   O21       1.0  0.3156530553594408  0.8234872762541413  0.7975820622342695  1.0000
  O   O22       1.0  0.8156278098224019  0.6764968512145445  0.7024109292024506  1.0000
  O   O23       1.0  0.6843372434053165  0.1765040484903153  0.2024135403393146  1.0000
  O   O24       1.0  0.18439456607920587  0.3235147572212681  0.2975936636563858  1.0000
  O   O25       1.0  0.5459331754468337  0.7834263002334153  0.8766337244367506  1.0000
  O   O26       1.0  0.045924306301074594  0.7165510536207974  0.6233573237406916  1.0000
  O   O27       1.0  0.45404108326169274  0.21657671497452918  0.1233641174027156  1.0000
  O   O28       1.0  0.9540522428204878  0.2834596789809538  0.37664680504232717  1.0000
  O   O29       1.0  0.18688570503037025  0.9000632493937458  0.97736679932801  1.0000
  O   O30       1.0  0.6869513179731895  0.5999313211911712  0.5226283662327518  1.0000
  O   O31       1.0  0.8129510754271363  0.09991718917693501  0.0226164422498414  1.0000
  O   O32       1.0  0.3129954425646345  0.4000822799258117  0.47738563311180826  1.0000
  O   O33       1.0  0.6766977433434958  0.9036113687611333  0.08212084316838289  1.0000
  O   O34       1.0  0.17680851210837994  0.5963887866604693  0.41787835865360284  1.0000
  O   O35       1.0  0.32326505896609337  0.09637968834835675  0.9178781336107776  1.0000
  O   O36       1.0  0.8232276123721859  0.40361759865795216  0.5821230269708552  1.0000
