data_image0
_chemical_formula_structural       K2CuH47C35N7O9
_chemical_formula_sum              "K2 Cu1 H47 C35 N7 O9"
_cell_length_a       7.309690350174347
_cell_length_b       12.26768310448478
_cell_length_c       12.390177227080889
_cell_angle_alpha    106.29702493756902
_cell_angle_beta     106.89976613655946
_cell_angle_gamma    100.42639181506384

_space_group_name_H-M_alt    "P 1"
_space_group_IT_number       1

loop_
  _space_group_symop_operation_xyz
  'x, y, z'

loop_
  _atom_site_type_symbol
  _atom_site_label
  _atom_site_symmetry_multiplicity
  _atom_site_fract_x
  _atom_site_fract_y
  _atom_site_fract_z
  _atom_site_occupancy
  K   K1        1.0  0.33348985671705134  0.882603901569603  0.20982285475152215  1.0000
  K   K2        1.0  0.8208552668475522  0.8471581739867563  0.17958531798073102  1.0000
  Cu  Cu1       1.0  0.9895010854750341  0.9940662399647809  0.004561378741179734  1.0000
  H   H1        1.0  0.26971976294807837  0.08724088552674661  0.40313347526161186  1.0000
  H   H2        1.0  0.47100244889130494  0.2859230666575173  0.5576359959561401  1.0000
  H   H3        1.0  0.5030714587501492  0.46509772896672547  0.4986679735197087  1.0000
  H   H4        1.0  0.32545484204504055  0.4395530254143339  0.2820620292536233  1.0000
  H   H5        1.0  0.8679686617554482  0.3319293555894519  0.9383251713095931  1.0000
  H   H6        1.0  0.643265559414317  0.3051969069758087  0.7342152974131508  1.0000
  H   H7        1.0  0.519355769255185  0.10442795386751409  0.5694921020565928  1.0000
  H   H8        1.0  0.6329602477434191  0.9383378445432415  0.6122465980197234  1.0000
  H   H9        1.0  0.8494924678918635  0.6480270379635513  0.5998600799721175  1.0000
  H   H10       1.0  0.8721490184758312  0.4573204260841027  0.6300985048768056  1.0000
  H   H11       1.0  0.9573150705345697  0.4525720819411491  0.8402584560191287  1.0000
  H   H12       1.0  0.006994683228476992  0.6330913890058696  0.010516185812846945  1.0000
  H   H13       1.0  0.353214696258071  0.8943538961005616  0.8893283041589727  1.0000
  H   H14       1.0  0.6576171581936805  0.24511735180931993  0.04952540867856213  1.0000
  H   H15       1.0  0.48564144978298174  0.21858684773721387  0.12340834689160117  1.0000
  H   H16       1.0  0.6894880923854104  0.15441032304266147  0.14028230340094447  1.0000
  H   H17       1.0  0.4392663736067561  0.14108532985886774  0.8321715536440023  1.0000
  H   H18       1.0  0.25157055935659406  0.0066706802359988  0.7954209260203484  1.0000
  H   H19       1.0  0.2380889952821192  0.1427091318551277  0.8876654505645689  1.0000
  H   H20       1.0  0.3505797699235344  0.5125703795464889  0.10657868902114141  1.0000
  H   H21       1.0  0.35522196824976504  0.5937446131067078  0.8134612448040528  1.0000
  H   H22       1.0  0.46730289716901297  0.7133624895804405  0.9551467637797303  1.0000
  H   H23       1.0  0.6144115738535803  0.6249119257398947  0.8996236068549381  1.0000
  H   H24       1.0  0.5183725203156584  0.3995113483337889  0.9015323910833714  1.0000
  H   H25       1.0  0.31516202469595095  0.36908509696509373  0.953187273536784  1.0000
  H   H26       1.0  0.27176678191285936  0.3907780263566425  0.8124465902569611  1.0000
  H   H27       1.0  0.9866757921189022  0.4903843272539064  0.17270551644751464  1.0000
  H   H28       1.0  0.8590422418344662  0.6822995716886954  0.4445103086231513  1.0000
  H   H29       1.0  0.702137118322341  0.671706798868634  0.2990891930351084  1.0000
  H   H30       1.0  0.6303055717774201  0.5671002404525753  0.3650155724612176  1.0000
  H   H31       1.0  0.9919681911570352  0.48589969362064545  0.43764382859158263  1.0000
  H   H32       1.0  0.751069427351908  0.3918306413190963  0.3359262714768221  1.0000
  H   H33       1.0  0.9628388609205275  0.3948622583116832  0.29007904738604395  1.0000
  H   H34       1.0  0.12681587395035618  0.8837352221499375  0.5432990036457925  1.0000
  H   H35       1.0  0.5660811840688353  0.7452996855615485  0.4992345245792508  1.0000
  H   H36       1.0  0.3539832666891556  0.6168895122223148  0.4268841179950017  1.0000
  H   H37       1.0  0.3763852862990261  0.7289793117353442  0.36138209704179053  1.0000
  H   H38       1.0  0.4621550100623608  0.7933563923335358  0.6936287836556475  1.0000
  H   H39       1.0  0.20517173526518925  0.792666618138043  0.6616209952257677  1.0000
  H   H40       1.0  0.266038930043031  0.6580658712020055  0.6107331560814515  1.0000
  H   H41       1.0  0.9050707521277204  0.9726423020998639  0.5331838631135782  1.0000
  H   H42       1.0  0.7489630788305705  0.1336432184955569  0.33628018298160367  1.0000
  H   H43       1.0  0.7593414020087793  0.2481421177484578  0.4659947617210278  1.0000
  H   H44       1.0  0.9716441300873839  0.25476713021222963  0.4200927616414702  1.0000
  H   H45       1.0  0.1906907626032037  0.25798032530286014  0.6137595026185139  1.0000
  H   H46       1.0  0.0034307160153658886  0.2416692327309279  0.6799899493315565  1.0000
  H   H47       1.0  0.13458759044471694  0.1329767095704355  0.6574218626917059  1.0000
  C   C1        1.0  0.19117561296592103  0.1498769131730242  0.254829196828581  1.0000
  C   C2        1.0  0.287095489279892  0.16620697034662163  0.3784099938881056  1.0000
  C   C3        1.0  0.39712112253117493  0.2771082782497914  0.46419192697362643  1.0000
  C   C4        1.0  0.415329537709205  0.378010219294211  0.4313719167417176  1.0000
  C   C5        1.0  0.3186312134402413  0.3637792014180832  0.3118373357948628  1.0000
  C   C6        1.0  0.20429900532914763  0.25286001673383407  0.22170443642161086  1.0000
  C   C7        1.0  0.10238108193365747  0.2567256218295527  0.09981488621568964  1.0000
  C   C8        1.0  0.8766741550317575  0.15085163765996873  0.8934475999470876  1.0000
  C   C9        1.0  0.8144104195298284  0.24573514948650654  0.8669615730423886  1.0000
  C   C10       1.0  0.6874357125308992  0.22953277585276075  0.7514291787105378  1.0000
  C   C11       1.0  0.6190177975048315  0.11847843018085065  0.6599013253391632  1.0000
  C   C12       1.0  0.6819805789292063  0.024146056805904006  0.6836305514145451  1.0000
  C   C13       1.0  0.8107135148656185  0.038095354148744306  0.798643317341714  1.0000
  C   C14       1.0  0.8930960060503568  0.8528630242103507  0.7504192882431584  1.0000
  C   C15       1.0  0.9167356388973288  0.7476554625224597  0.7848856862370824  1.0000
  C   C16       1.0  0.8861028489844999  0.6427121870992566  0.6895491613692216  1.0000
  C   C17       1.0  0.8992098129952029  0.536844757341946  0.7065154508693539  1.0000
  C   C18       1.0  0.945352624541748  0.5341759417397683  0.8237286543163337  1.0000
  C   C19       1.0  0.9761380072252165  0.6353053576689904  0.9197051101916429  1.0000
  C   C20       1.0  0.9631419006324862  0.7444249374864356  0.9039830108900518  1.0000
  C   C21       1.0  0.4512963281260055  0.9655277788546216  0.9759162175065583  1.0000
  C   C22       1.0  0.5797719465185126  0.1795928806250871  0.07801239794403615  1.0000
  C   C23       1.0  0.3407902625984107  0.09255917630880363  0.865837531642711  1.0000
  C   C24       1.0  0.40194605458361116  0.5845203038294644  0.07548979832850485  1.0000
  C   C25       1.0  0.46674903729471134  0.6240372890339786  0.9052592468075816  1.0000
  C   C26       1.0  0.3784688976987738  0.4188299525392125  0.9051216809949095  1.0000
  C   C27       1.0  0.914518240253095  0.5575539985672011  0.207275451689803  1.0000
  C   C28       1.0  0.7568994104896021  0.6207624796362979  0.3545432103827721  1.0000
  C   C29       1.0  0.8917580879087341  0.4484504255690356  0.34224749492135953  1.0000
  C   C30       1.0  0.2002604464433445  0.8476489364540144  0.4805087028331699  1.0000
  C   C31       1.0  0.40471982494253217  0.7127170298634554  0.4462738888230789  1.0000
  C   C32       1.0  0.30913100063176546  0.7534943674829011  0.6266582914891856  1.0000
  C   C33       1.0  0.8421205363106169  0.010975115892272003  0.4649807790270017  1.0000
  C   C34       1.0  0.8463526117407839  0.1956017885818682  0.426486337061462  1.0000
  C   C35       1.0  0.07073304787277117  0.194301281518463  0.6196758749923106  1.0000
  N   N1        1.0  0.9922058523036484  0.15362315733899834  0.007128740430893218  1.0000
  N   N2        1.0  0.8685796127227122  0.9453974433891692  0.8306891524724024  1.0000
  N   N3        1.0  0.4589484140465387  0.07460961105197582  0.9727168504633781  1.0000
  N   N4        1.0  0.41273721106285427  0.5444523962490139  0.965654699098998  1.0000
  N   N5        1.0  0.8540917042139997  0.5420703192103249  0.2965297129472405  1.0000
  N   N6        1.0  0.2966227668168245  0.7719656197553707  0.5140512326023414  1.0000
  N   N7        1.0  0.9222357278332043  0.12848261229373756  0.5000262538089757  1.0000
  O   O1        1.0  0.09866892030212432  0.0397747984647054  0.179159375902934  1.0000
  O   O2        1.0  0.9978452935186864  0.8362600766329823  0.0022959104603828984  1.0000
  O   O3        1.0  0.1225290732079429  0.3573651323698855  0.08875871426311485  1.0000
  O   O4        1.0  0.8936863622945452  0.8509320223123211  0.6475657103170107  1.0000
  O   O5        1.0  0.5419317098730119  0.9427309603877988  0.06545840198786129  1.0000
  O   O6        1.0  0.44232174372928057  0.6915431122242525  0.13773768090058525  1.0000
  O   O7        1.0  0.8927508682247379  0.6377159257207482  0.16581081005242038  1.0000
  O   O8        1.0  0.18880813615891145  0.8749454180414987  0.38953428797857736  1.0000
  O   O9        1.0  0.707330645360983  0.9482937920049964  0.3658971247345378  1.0000
