data_image0
_chemical_formula_structural       Ca4H12C16N44O4
_chemical_formula_sum              "Ca4 H12 C16 N44 O4"
_cell_length_a       6.590797161745487
_cell_length_b       9.909860217927944
_cell_length_c       12.871162828001923
_cell_angle_alpha    90.0000515098172
_cell_angle_beta     89.99996530290097
_cell_angle_gamma    91.84384918324716

_space_group_name_H-M_alt    "P 1"
_space_group_IT_number       1

loop_
  _space_group_symop_operation_xyz
  'x, y, z'

loop_
  _atom_site_type_symbol
  _atom_site_label
  _atom_site_symmetry_multiplicity
  _atom_site_fract_x
  _atom_site_fract_y
  _atom_site_fract_z
  _atom_site_occupancy
  Ca  Ca1       1.0  0.2982381409804944  0.8601686244641087  0.12396107840443453  1.0000
  Ca  Ca2       1.0  0.2017621091998478  0.6398311041055605  0.6239609073276143  1.0000
  Ca  Ca3       1.0  0.701761857559525  0.13983055240899492  0.8760396739748515  1.0000
  Ca  Ca4       1.0  0.7982379430525339  0.3601690823815106  0.3760406219825968  1.0000
  H   H1        1.0  0.9328936465983516  0.8533744328144691  0.9817436203711055  1.0000
  H   H2        1.0  0.5671071583000965  0.6466248145914052  0.4817444901994108  1.0000
  H   H3        1.0  0.0671063519425914  0.146624744057732  0.0182555781470271  1.0000
  H   H4        1.0  0.43289284024038466  0.35337436228124375  0.5182554852493055  1.0000
  H   H5        1.0  0.8473281506227792  0.8334519446482104  0.09512987161501481  1.0000
  H   H6        1.0  0.6526746842183685  0.6665478624990159  0.59513051019497  1.0000
  H   H7        1.0  0.1526733650207674  0.16654722898428528  0.9048693269028902  1.0000
  H   H8        1.0  0.3473269388503581  0.33345333036097446  0.4048694652541941  1.0000
  H   H9        1.0  0.830669745487654  0.517888310914806  0.8533821578999439  1.0000
  H   H10       1.0  0.6693314266994079  0.9821148266563142  0.35338245036234645  1.0000
  H   H11       1.0  0.16932884337633416  0.48211288842415473  0.14661704061909123  1.0000
  H   H12       1.0  0.33067025008214307  0.017887375817203104  0.6466175250871518  1.0000
  C   C1        1.0  0.6503948645942261  0.2609789587213669  0.11752006703887469  1.0000
  C   C2        1.0  0.8496052430256498  0.23902037741631693  0.6175206972979552  1.0000
  C   C3        1.0  0.3496066510484042  0.7390202149120244  0.8824806853401911  1.0000
  C   C4        1.0  0.15039025791939048  0.760979818789437  0.382480055082354  1.0000
  C   C5        1.0  0.7004753617166628  0.3854906203241839  0.06269366512331942  1.0000
  C   C6        1.0  0.799524864724809  0.1145096620901356  0.5626957787496067  1.0000
  C   C7        1.0  0.2995292418449082  0.614509556442421  0.9373055333944793  1.0000
  C   C8        1.0  0.20046911911717297  0.8854905373557783  0.4373057505614995  1.0000
  C   C9        1.0  0.7073391078241827  0.5253142485281685  0.08685469914065891  1.0000
  C   C10       1.0  0.7926607563517508  0.974686565152268  0.5868555074569883  1.0000
  C   C11       1.0  0.2926608907162986  0.47468492834448034  0.9131452763080576  1.0000
  C   C12       1.0  0.2073378325108521  0.02531463418803531  0.41314602185377686  1.0000
  C   C13       1.0  0.6631500677340583  0.6006081756959745  0.1802448948349138  1.0000
  C   C14       1.0  0.8368511489247512  0.8993917330198967  0.680246415546421  1.0000
  C   C15       1.0  0.33685139419759486  0.39938998832210604  0.8197527498214969  1.0000
  C   C16       1.0  0.16314895704137908  0.10060946307979891  0.3197535599029635  1.0000
  N   N1        1.0  0.6557887472348652  0.23534059712662264  0.2201455947012931  1.0000
  N   N2        1.0  0.8442128093259595  0.2646598639426259  0.7201470210265483  1.0000
  N   N3        1.0  0.3442173734283856  0.764659576401165  0.7798551576774387  1.0000
  N   N4        1.0  0.15578269161816388  0.7353403322640232  0.2798552852149143  1.0000
  N   N5        1.0  0.7484783606630784  0.37356976086507393  0.9610817914442792  1.0000
  N   N6        1.0  0.751521392668785  0.12643098178352116  0.4610833701356115  1.0000
  N   N7        1.0  0.25152618918613  0.6264294062875564  0.038916630142601605  1.0000
  N   N8        1.0  0.24847719619381786  0.8735702175567823  0.5389181591751608  1.0000
  N   N9        1.0  0.6070677990064013  0.7675482245145915  0.2815131997233564  1.0000
  N   N10       1.0  0.8929317265762221  0.7324507948154134  0.7815122588802694  1.0000
  N   N11       1.0  0.3929307361443009  0.23245196521128975  0.7184867757259213  1.0000
  N   N12       1.0  0.1070682719642662  0.2675483820572424  0.2184877165684469  1.0000
  N   N13       1.0  0.5738037022061349  0.051377546230121085  0.13582371410177532  1.0000
  N   N14       1.0  0.9261963836769879  0.4486218110527674  0.6358244652989884  1.0000
  N   N15       1.0  0.4261979208630535  0.9486236466294213  0.8641754844168049  1.0000
  N   N16       1.0  0.07380209776089688  0.551377369059594  0.3641755101499485  1.0000
  N   N17       1.0  0.7612910687875354  0.5936136982185543  0.9994700048203244  1.0000
  N   N18       1.0  0.7387097150606154  0.9063855696647636  0.4994694481112277  1.0000
  N   N19       1.0  0.23870752007645282  0.406387501120406  0.0005291936987035  1.0000
  N   N20       1.0  0.2612917468701141  0.09361259435421232  0.5005297504063435  1.0000
  N   N21       1.0  0.6548038557494849  0.5512765973986049  0.2773309013746967  1.0000
  N   N22       1.0  0.8451941039848165  0.9487214107256677  0.7773293456749785  1.0000
  N   N23       1.0  0.3451961427905346  0.44872257947449856  0.7226698510045964  1.0000
  N   N24       1.0  0.15480594826895103  0.0512787757600606  0.2226698528434881  1.0000
  N   N25       1.0  0.7835454186589033  0.4990798060223938  0.9289448727340003  1.0000
  N   N26       1.0  0.7164528020230347  0.0009198931255340998  0.4289448219702834  1.0000
  N   N27       1.0  0.21645311649226068  0.5009203837030397  0.07105432578469362  1.0000
  N   N28       1.0  0.28354871362004985  0.9990792805074094  0.5710551534782056  1.0000
  N   N29       1.0  0.6005498292064857  0.1477080360959704  0.0638613251030407  1.0000
  N   N30       1.0  0.8994488250337439  0.35229124129264017  0.5638620182318093  1.0000
  N   N31       1.0  0.39945629145721984  0.8522921374313696  0.9361386503451146  1.0000
  N   N32       1.0  0.10054510509588249  0.6477079485392992  0.4361387341483791  1.0000
  N   N33       1.0  0.6316057965268412  0.7349895857369546  0.18054872532137986  1.0000
  N   N34       1.0  0.8683923318541031  0.7650093201948494  0.6805485909123945  1.0000
  N   N35       1.0  0.36839268491104354  0.2650095943754067  0.8194512501275572  1.0000
  N   N36       1.0  0.13160923750180586  0.23499086305162106  0.31945138453643557  1.0000
  N   N37       1.0  0.6078112768099615  0.10273043662427027  0.22894429519067222  1.0000
  N   N38       1.0  0.8921887521996864  0.3972700378489122  0.7289450212416496  1.0000
  N   N39       1.0  0.3921903462587721  0.8972707562357201  0.7710556802584919  1.0000
  N   N40       1.0  0.10780972923773649  0.6027291422639038  0.2710557311378636  1.0000
  N   N41       1.0  0.6191413202544779  0.658158811081698  0.3388444218627527  1.0000
  N   N42       1.0  0.8808581372438199  0.8418402744797788  0.8388435594454863  1.0000
  N   N43       1.0  0.38085716118294494  0.341840369031118  0.6611563305167607  1.0000
  N   N44       1.0  0.11914343211208941  0.15815990876669156  0.1611564160033367  1.0000
  O   O1        1.0  0.9658486147900122  0.869101733256265  0.056250706305000606  1.0000
  O   O2        1.0  0.5341555684737999  0.6308939872823344  0.5562513553442514  1.0000
  O   O3        1.0  0.034155773920268494  0.13089440505624586  0.9437484922114407  1.0000
  O   O4        1.0  0.4658444837795058  0.36910619920384147  0.443748620104799  1.0000
