data_image0
_chemical_formula_structural       Cd3H38C48N8O14
_chemical_formula_sum              "Cd3 H38 C48 N8 O14"
_cell_length_a       10.783269577063354
_cell_length_b       10.782094292359092
_cell_length_c       11.040075467289032
_cell_angle_alpha    97.40540580949856
_cell_angle_beta     95.95648455006472
_cell_angle_gamma    96.55626230134372

_space_group_name_H-M_alt    "P 1"
_space_group_IT_number       1

loop_
  _space_group_symop_operation_xyz
  'x, y, z'

loop_
  _atom_site_type_symbol
  _atom_site_label
  _atom_site_symmetry_multiplicity
  _atom_site_fract_x
  _atom_site_fract_y
  _atom_site_fract_z
  _atom_site_occupancy
  Cd  Cd1       1.0  0.49999997502540333  0.49999974891905913  0.4999999237046779  1.0000
  Cd  Cd2       1.0  0.71632952812012  0.7071668173940607  0.702113104142292  1.0000
  Cd  Cd3       1.0  0.2836706616236384  0.29283456262717067  0.29788609070137545  1.0000
  H   H1        1.0  0.33067882313820707  0.33328828362384394  0.7536215774815676  1.0000
  H   H2        1.0  0.6693211325386627  0.6667112225520385  0.24638008310630252  1.0000
  H   H3        1.0  0.24315932043596428  0.3694366721362456  0.9572495146023388  1.0000
  H   H4        1.0  0.7568407564938937  0.6305637772156486  0.042752272997326236  1.0000
  H   H5        1.0  0.9178180030584712  0.4960864729759891  0.7763343191710206  1.0000
  H   H6        1.0  0.082181944179311  0.5039130206932327  0.2236646216490783  1.0000
  H   H7        1.0  0.9980255287856463  0.44929348929101565  0.5738440383940926  1.0000
  H   H8        1.0  0.0019752324501140896  0.5507050657142826  0.426155774345773  1.0000
  H   H9        1.0  0.2218053563506075  0.6709879530451133  0.6031685292045736  1.0000
  H   H10       1.0  0.778194596513238  0.32901154896188706  0.39683222479404634  1.0000
  H   H11       1.0  0.036361143049468636  0.7812344803721915  0.5458860136634627  1.0000
  H   H12       1.0  0.9636389366934139  0.21876597314857804  0.4541166805254592  1.0000
  H   H13       1.0  0.28768771262366494  0.12173211279920788  0.5399684650066021  1.0000
  H   H14       1.0  0.7123122318010856  0.8782673767011318  0.4600295692242398  1.0000
  H   H15       1.0  0.4708466705176307  0.0111443458594849  0.6010982174295592  1.0000
  H   H16       1.0  0.5291523414691922  0.9888551432976628  0.3988997244589926  1.0000
  H   H17       1.0  0.6327795957081506  0.2111042050767651  0.6808195306600169  1.0000
  H   H18       1.0  0.3672204727826198  0.7888962317684688  0.3191795371718627  1.0000
  H   H19       1.0  0.5797859690481956  0.028490168423523688  0.7952372525251192  1.0000
  H   H20       1.0  0.42021316700463973  0.9715102680785107  0.20476172296447  1.0000
  H   H21       1.0  0.5392187189355084  0.2902721132177816  0.11468297805232198  1.0000
  H   H22       1.0  0.4607814736212816  0.7097292709723318  0.8853171233806024  1.0000
  H   H23       1.0  0.5972193382509445  0.47034262344160993  0.001096574043657529  1.0000
  H   H24       1.0  0.40278166267775356  0.5296578137468089  0.9989025861305123  1.0000
  H   H25       1.0  0.017926778707689658  0.7832095052094916  0.8364496183991009  1.0000
  H   H26       1.0  0.982073171343124  0.21678999262861956  0.16355022901025507  1.0000
  H   H27       1.0  0.9011389730639934  0.07907918533393848  0.8119008276199298  1.0000
  H   H28       1.0  0.0988610982398015  0.9209212556801704  0.18809914680121415  1.0000
  H   H29       1.0  0.046915323938947  0.13893790269165857  0.7623991574174768  1.0000
  H   H30       1.0  0.9530838177399444  0.8610625421481544  0.23760163125063372  1.0000
  H   H31       1.0  0.027969384848482496  0.16105060641029917  0.921753659610637  1.0000
  H   H32       1.0  0.9720296355774211  0.8389488952535091  0.0782470020456857  1.0000
  H   H33       1.0  0.2069859185392532  0.8808359048923438  0.8773712423317832  1.0000
  H   H34       1.0  0.7930140315115607  0.11916359294576752  0.1226286050775798  1.0000
  H   H35       1.0  0.2156212102385879  0.031075645076079204  0.9701107892581791  1.0000
  H   H36       1.0  0.7843787426252504  0.968923856930914  0.029889964740434004  1.0000
  H   H37       1.0  0.2361128414280174  0.021572621883564104  0.8102765912061471  1.0000
  H   H38       1.0  0.7638871086227964  0.9784268759545471  0.18972325620320876  1.0000
  C   C1        1.0  0.21921757574173736  0.36407115931802275  0.531431135599  1.0000
  C   C2        1.0  0.7807831883070477  0.6359273998561646  0.46856958373012253  1.0000
  C   C3        1.0  0.1704662974953948  0.39067180512824257  0.6519357361238677  1.0000
  C   C4        1.0  0.829534584993354  0.6093276930530606  0.3480642036277787  1.0000
  C   C5        1.0  0.24024137087542394  0.3681792345794648  0.7598052718956796  1.0000
  C   C6        1.0  0.7597584607354263  0.6318193242515306  0.24019535509115292  1.0000
  C   C7        1.0  0.1927002856033226  0.38825565387773514  0.8720308092932996  1.0000
  C   C8        1.0  0.8072999125795233  0.6117457386501569  0.12797110531814576  1.0000
  C   C9        1.0  0.07834754082421821  0.4381638967002247  0.8777055248560401  1.0000
  C   C10       1.0  0.9216527757985844  0.5618384348347831  0.12229561017793603  1.0000
  C   C11       1.0  0.008013352436705607  0.4608991993524826  0.7701354246330397  1.0000
  C   C12       1.0  0.991987651305024  0.5391012420048255  0.2298646421303872  1.0000
  C   C13       1.0  0.0532540506669577  0.4348352223724206  0.6578343155933768  1.0000
  C   C14       1.0  0.9467467133818274  0.565163336801767  0.3421664037357459  1.0000
  C   C15       1.0  0.4668601246830661  0.7699782591662582  0.6422757820376432  1.0000
  C   C16       1.0  0.5331399438077041  0.23002217767896835  0.35772328579424345  1.0000
  C   C17       1.0  0.35692320546461076  0.8351069066877413  0.6062641343634355  1.0000
  C   C18       1.0  0.6430768658391842  0.1648935343263744  0.3937358400577083  1.0000
  C   C19       1.0  0.23434755717468644  0.7697651566264411  0.5894691052156277  1.0000
  C   C20       1.0  0.7656525141291084  0.23023528438767465  0.41053086920551624  1.0000
  C   C21       1.0  0.13180080322564436  0.8304472696488147  0.557021815065447  1.0000
  C   C22       1.0  0.8681983412662787  0.16955317935988026  0.44297988019192047  1.0000
  C   C23       1.0  0.15154751856015028  0.9582245304616277  0.5395536043322977  1.0000
  C   C24       1.0  0.8484514990527288  0.041774967033291005  0.4604461507347679  1.0000
  C   C25       1.0  0.2738513546391061  0.023345541817050702  0.5547540891714817  1.0000
  C   C26       1.0  0.7261476601607484  0.9766539515089789  0.44524475930632695  1.0000
  C   C27       1.0  0.3757139403724352  0.9619052382518164  0.5884623579894779  1.0000
  C   C28       1.0  0.6242860068653542  0.03809425541741259  0.41153658283062106  1.0000
  C   C29       1.0  0.6454331850530366  0.4589462410423479  0.7648472454644307  1.0000
  C   C30       1.0  0.3545650185618712  0.5410541951164944  0.23515163768287556  1.0000
  C   C31       1.0  0.6158828966686513  0.351133436622554  0.8338114451558454  1.0000
  C   C32       1.0  0.38411729588813154  0.6488679475675666  0.1661886562770789  1.0000
  C   C33       1.0  0.6114341267687208  0.22646916814262144  0.7756386874577644  1.0000
  C   C34       1.0  0.3885660629750376  0.77353221187861  0.22436050738590305  1.0000
  C   C35       1.0  0.5812262580176579  0.1256252780720004  0.8382915146331484  1.0000
  C   C36       1.0  0.41877381328613683  0.8743751629421153  0.16170845978798812  1.0000
  C   C37       1.0  0.5522625490842117  0.14931102446293917  0.9601158992455228  1.0000
  C   C38       1.0  0.4477367082216118  0.8506903552150927  0.03988320325585448  1.0000
  C   C39       1.0  0.5598548932311331  0.27359373643059126  0.019770230288600005  1.0000
  C   C40       1.0  0.44014704294853135  0.7264067052699089  0.9802299288171241  1.0000
  C   C41       1.0  0.591607770386446  0.37367451283709846  0.9564685207626625  1.0000
  C   C42       1.0  0.4083933517952402  0.626326867527318  0.04353076642329509  1.0000
  C   C43       1.0  0.9715875317114565  0.868929270911714  0.831500197410044  1.0000
  C   C44       1.0  0.028412418339357298  0.131070226926397  0.16849964999931197  1.0000
  C   C45       1.0  0.0033551912726111056  0.09597376415938902  0.8352925734734102  1.0000
  C   C46       1.0  0.9966447615912272  0.9040257378476114  0.16470818052521002  1.0000
  C   C47       1.0  0.1849674740159273  0.9776454382013  0.8780833554315421  1.0000
  C   C48       1.0  0.8150316648499397  0.022355002469623703  0.12191652664731119  1.0000
  N   N1        1.0  0.036394353871685284  0.4580578200766182  0.9946268252558853  1.0000
  N   N2        1.0  0.9636059599380861  0.5419445072895003  0.005373403188826856  1.0000
  N   N3        1.0  0.054918467223245684  0.030334819915331903  0.5083447303875205  1.0000
  N   N4        1.0  0.9450805475766018  0.9696646734107048  0.4916541180902883  1.0000
  N   N5        1.0  0.5176343921998096  0.05397674083130969  0.031053297286064187  1.0000
  N   N6        1.0  0.48236474666605034  0.9460236998396142  0.9689465847927894  1.0000
  N   N7        1.0  0.0500576816167708  0.9760739742471853  0.8474076133223463  1.0000
  N   N8        1.0  0.9499423896870308  0.0239264667669303  0.15259236109879742  1.0000
  O   O1        1.0  0.33599463498356386  0.3497968500569257  0.5306757766321796  1.0000
  O   O2        1.0  0.6640063715711974  0.6502035954692715  0.4693251967205115  1.0000
  O   O3        1.0  0.1437391140337212  0.3519685431631033  0.4325177689400165  1.0000
  O   O4        1.0  0.8562618953340646  0.6480319065319761  0.5674841110019315  1.0000
  O   O5        1.0  0.44964541666892893  0.6508660274100322  0.6439406212851608  1.0000
  O   O6        1.0  0.5503546518218413  0.3491344094351945  0.35605844654672586  1.0000
  O   O7        1.0  0.5736915480823869  0.8376912712583431  0.6716140461953019  1.0000
  O   O8        1.0  0.4263085204083835  0.16230916558688344  0.3283850216365849  1.0000
  O   O9        1.0  0.6366534216010037  0.43758942130396866  0.6479919293310203  1.0000
  O   O10       1.0  0.3633474552616817  0.5624100685395631  0.3520061972421047  1.0000
  O   O11       1.0  0.6798197714642524  0.5679445585940427  0.8287353844114094  1.0000
  O   O12       1.0  0.3201748208388793  0.4320568151991538  0.17126234978925942  1.0000
  O   O13       1.0  0.8537913264489275  0.8644101179234556  0.8136156537680679  1.0000
  O   O14       1.0  0.1462086207888547  0.1355893757457736  0.1863832870520312  1.0000
