data_image0
_chemical_formula_structural       Zn2H4C20N2O8F4
_chemical_formula_sum              "Zn2 H4 C20 N2 O8 F4"
_cell_length_a       9.884834281442386
_cell_length_b       10.985796414369647
_cell_length_c       14.497339035959131
_cell_angle_alpha    90.80921768310344
_cell_angle_beta     90.03610161225401
_cell_angle_gamma    89.97925674332147

_space_group_name_H-M_alt    "P 1"
_space_group_IT_number       1

loop_
  _space_group_symop_operation_xyz
  'x, y, z'

loop_
  _atom_site_type_symbol
  _atom_site_label
  _atom_site_symmetry_multiplicity
  _atom_site_fract_x
  _atom_site_fract_y
  _atom_site_fract_z
  _atom_site_occupancy
  Zn  Zn1       1.0  0.3613348524889233  0.5000210615459368  0.49987922310942406  1.0000
  Zn  Zn2       1.0  0.6386648827472143  0.49997928808952014  0.5001206875585068  1.0000
  H   H1        1.0  0.7157739857450379  0.8855728241847418  0.51530924743399  1.0000
  H   H2        1.0  0.2842257494910995  0.11442752545071501  0.4846906632339412  1.0000
  H   H3        1.0  0.7159086613554777  0.11466150319243698  0.5153347877827699  1.0000
  H   H4        1.0  0.28409107420824137  0.8853388510674025  0.484665812707611  1.0000
  C   C1        1.0  0.49993988762892627  0.7365324917180017  0.49965328976714557  1.0000
  C   C2        1.0  0.4999944480244665  0.49998814995856133  0.04256551811418769  1.0000
  C   C3        1.0  0.6220628912455836  0.9367877564792554  0.5084669488339628  1.0000
  C   C4        1.0  0.37793684412982737  0.06321350812595482  0.4915336578950543  1.0000
  C   C5        1.0  0.6221159831815583  0.06334162679444692  0.5086203010156254  1.0000
  C   C6        1.0  0.37788375270973507  0.9366587320897681  0.4913809892972054  1.0000
  C   C7        1.0  0.5000428723623287  0.12730380568721963  0.5002191497929758  1.0000
  C   C8        1.0  0.4999568635289647  0.8726965531970025  0.499782140519862  1.0000
  C   C9        1.0  0.9290694353045834  0.4240729049297657  0.44554325719570886  1.0000
  C   C10       1.0  0.07093131275354378  0.5759265480799058  0.5544587169099271  1.0000
  C   C11       1.0  0.9291592163591034  0.5759052905593407  0.5544677495864576  1.0000
  C   C12       1.0  0.5000598479347927  0.2634678625418374  0.5003473107232352  1.0000
  C   C13       1.0  0.0708405196714708  0.4240959832946274  0.4455342367874592  1.0000
  C   C14       1.0  0.5000030003762247  0.5000847219670135  0.6807867436404392  1.0000
  C   C15       1.0  0.4999977465108571  0.49991562751487356  0.31921316723646936  1.0000
  C   C16       1.0  0.49995030156703985  0.4997138209278234  0.7802582170450519  1.0000
  C   C17       1.0  0.5000494331532152  0.5002874344286212  0.21974101003905125  1.0000
  C   C18       1.0  0.4999875330084507  0.4999426169322519  0.8649019393940732  1.0000
  C   C19       1.0  0.5000111903884416  0.5000586432021379  0.1350979773035093  1.0000
  C   C20       1.0  0.5000052872116711  0.5000121996768955  0.9574343925537432  1.0000
  N   N1        1.0  0.1398450845231238  0.5000083023020352  0.4999759387538844  1.0000
  N   N2        1.0  0.8601556633466956  0.4999920610529999  0.500026041590381  1.0000
  O   O1        1.0  0.38517510363767116  0.6833492298425129  0.4993857076339053  1.0000
  O   O2        1.0  0.6148256437652931  0.3166502139183933  0.500614886826824  1.0000
  O   O3        1.0  0.3852939187530565  0.31669773354095554  0.5000143471628673  1.0000
  O   O4        1.0  0.6147058164830809  0.6833026160945012  0.4999855635050635  1.0000
  O   O5        1.0  0.38450030842952276  0.5003542514068684  0.6416320953330157  1.0000
  O   O6        1.0  0.6154994269949156  0.4996451878832176  0.35836780909628624  1.0000
  O   O7        1.0  0.38440590011359177  0.4996599799270528  0.35814541599212646  1.0000
  O   O8        1.0  0.6155938351225457  0.500340369708404  0.6418544946758045  1.0000
  F   F1        1.0  0.8618868826233382  0.34770330144431233  0.3909608415522712  1.0000
  F   F2        1.0  0.13811386660582767  0.6522952550931294  0.6090431957820924  1.0000
  F   F3        1.0  0.862012760076709  0.6522883534637887  0.6090747934559244  1.0000
  F   F4        1.0  0.13798798694964629  0.347712910987859  0.3909258134820631  1.0000
