data_image0
_chemical_formula_structural       Cu12H186C138Br2N60
_chemical_formula_sum              "Cu12 H186 C138 Br2 N60"
_cell_length_a       17.008351770576116
_cell_length_b       18.388788903756904
_cell_length_c       18.388465202835526
_cell_angle_alpha    119.99837896885668
_cell_angle_beta     89.99992704395375
_cell_angle_gamma    89.99930943734046

_space_group_name_H-M_alt    "P 1"
_space_group_IT_number       1

loop_
  _space_group_symop_operation_xyz
  'x, y, z'

loop_
  _atom_site_type_symbol
  _atom_site_label
  _atom_site_symmetry_multiplicity
  _atom_site_fract_x
  _atom_site_fract_y
  _atom_site_fract_z
  _atom_site_occupancy
  Cu  Cu1       1.0  0.24999917896062127  0.6740387733850142  0.0010021068079809298  1.0000
  Cu  Cu2       1.0  0.25000186726003887  0.5439976962135873  0.17786790923992157  1.0000
  Cu  Cu3       1.0  0.2500003930083139  0.3269462271235426  0.3259636613118886  1.0000
  Cu  Cu4       1.0  0.2500019088082012  0.6338395669809601  0.4559767625428747  1.0000
  Cu  Cu5       1.0  0.2500013939904164  0.9990407236305217  0.673039103985438  1.0000
  Cu  Cu6       1.0  0.24999425075861126  0.8221392994513864  0.36613866782371224  1.0000
  Cu  Cu7       1.0  0.7500043377588382  0.32602305789487923  0.9990691584208945  1.0000
  Cu  Cu8       1.0  0.7499998863787313  0.45597871393288597  0.8221267244603111  1.0000
  Cu  Cu9       1.0  0.7500013602351883  0.6730553333735116  0.6740297491748136  1.0000
  Cu  Cu10      1.0  0.7500010203432267  0.36615958850889285  0.5440136149251343  1.0000
  Cu  Cu11      1.0  0.7499938910322326  0.001016866882501683  0.3269613572742927  1.0000
  Cu  Cu12      1.0  0.7499992716237782  0.17784120862754804  0.6338638316714977  1.0000
  H   H1        1.0  0.3278626774052355  0.514195828290717  0.3101500154730843  1.0000
  H   H2        1.0  0.6583576992742974  0.22138481662243245  0.0585246907811481  1.0000
  H   H3        1.0  0.5207545880898151  0.166173477114512  0.08660870577892148  1.0000
  H   H4        1.0  0.4475138705842666  0.2447003628957987  0.1405796330619111  1.0000
  H   H5        1.0  0.5298633351223927  0.23752391266931033  0.1957828822439396  1.0000
  H   H6        1.0  0.42458227031755047  0.46572841578887386  0.37680701559420976  1.0000
  H   H7        1.0  0.5221716817849822  0.468624840011131  0.3426071130375519  1.0000
  H   H8        1.0  0.47291122712309874  0.3712685980759503  0.3053211649394996  1.0000
  H   H9        1.0  0.34957611918128606  0.46428412410129744  0.04015545430252839  1.0000
  H   H10       1.0  0.4016248601709194  0.36731095948377396  0.9997640920121852  1.0000
  H   H11       1.0  0.454307020210983  0.4618054796415833  0.03493382836392555  1.0000
  H   H12       1.0  0.5892882043485698  0.4783028538045357  0.0493609641964312  1.0000
  H   H13       1.0  0.6712092987969456  0.4987937530569937  0.11563718729892256  1.0000
  H   H14       1.0  0.5747353524513343  0.5303179523393027  0.1597481027785719  1.0000
  H   H15       1.0  0.3022209615111677  0.9572780836272727  0.24885669901215118  1.0000
  H   H16       1.0  0.327863145983855  0.7958992469709685  0.48576762477235036  1.0000
  H   H17       1.0  0.6583457987613882  0.8371661260619946  0.77861506115768  1.0000
  H   H18       1.0  0.5207019513243835  0.9204247988540357  0.8337866596218361  1.0000
  H   H19       1.0  0.4475030161408639  0.8958708051665242  0.755235443965759  1.0000
  H   H20       1.0  0.5298545928484157  0.9582423911442816  0.7624344779156755  1.0000
  H   H21       1.0  0.42457303841864297  0.9110176881131196  0.5342047397857498  1.0000
  H   H22       1.0  0.5221726973549962  0.8739582387170942  0.5313341475469855  1.0000
  H   H23       1.0  0.4728819879238629  0.9340036246478646  0.6286872262342625  1.0000
  H   H24       1.0  0.3495885697546227  0.5758328624170802  0.5357219639727829  1.0000
  H   H25       1.0  0.4016587023820434  0.6324074949597434  0.632671770301819  1.0000
  H   H26       1.0  0.45431600254121923  0.573093392012602  0.5381699427674533  1.0000
  H   H27       1.0  0.5893254701143674  0.5710314317600479  0.5217194065180024  1.0000
  H   H28       1.0  0.6712237944966402  0.6168391794199197  0.5012287941796245  1.0000
  H   H29       1.0  0.5747419496467785  0.6293912358871054  0.46969240626294345  1.0000
  H   H30       1.0  0.30222029194779754  0.29163821854506733  0.0427168507011686  1.0000
  H   H31       1.0  0.3278774382114236  0.6898728874694913  0.2041152976392908  1.0000
  H   H32       1.0  0.6583379819196721  0.9414990370303684  0.1628723147735016  1.0000
  H   H33       1.0  0.5207748057225459  0.9133906249123029  0.07959085007040287  1.0000
  H   H34       1.0  0.44752297648117423  0.8594183065146127  0.10412724197921355  1.0000
  H   H35       1.0  0.529865861786753  0.804218292087228  0.041758728020468386  1.0000
  H   H36       1.0  0.42457071474168356  0.623223683329428  0.08894772650940294  1.0000
  H   H37       1.0  0.5221713318798108  0.6574032555016843  0.12605617645215253  1.0000
  H   H38       1.0  0.4729251056856682  0.6947421379111772  0.06601045939785877  1.0000
  H   H39       1.0  0.34957715928618427  0.959879612269873  0.4241762144531406  1.0000
  H   H40       1.0  0.40160829274523724  0.0002490501568886193  0.3675741248906874  1.0000
  H   H41       1.0  0.4542968283296813  0.9651217190175885  0.42692793723678335  1.0000
  H   H42       1.0  0.5892866298087609  0.950673245250229  0.428987243402453  1.0000
  H   H43       1.0  0.6712029557199485  0.8844078653176125  0.3831831309847188  1.0000
  H   H44       1.0  0.5747432846328805  0.8402879076760357  0.3705955919842552  1.0000
  H   H45       1.0  0.30222215888167625  0.751008311839243  0.7081935947173931  1.0000
  H   H46       1.0  0.8278672764808518  0.4857431121135106  0.6898488771310837  1.0000
  H   H47       1.0  0.15833822652908217  0.7786043439528926  0.9414863489438047  1.0000
  H   H48       1.0  0.0207347769033532  0.8337931866825129  0.9133897169269146  1.0000
  H   H49       1.0  0.9475049954125434  0.755263863969212  0.8594066324184269  1.0000
  H   H50       1.0  0.0298500178808609  0.7624529581871188  0.8042268899548474  1.0000
  H   H51       1.0  0.9245685418143949  0.5342215780629544  0.623188537029108  1.0000
  H   H52       1.0  0.0221604044638326  0.531320525233383  0.6573712488500831  1.0000
  H   H53       1.0  0.9728944532967106  0.6286838751826379  0.6946806598618166  1.0000
  H   H54       1.0  0.8495807345064675  0.5357120598884679  0.9598683864881891  1.0000
  H   H55       1.0  0.9016296759850917  0.6326650613519362  0.0002320283175976356  1.0000
  H   H56       1.0  0.9542945844656214  0.5381792126636996  0.9650753300647635  1.0000
  H   H57       1.0  0.08931438763855938  0.5216867171434101  0.9506620226002552  1.0000
  H   H58       1.0  0.1712104598793687  0.5012019821025362  0.8843746150840771  1.0000
  H   H59       1.0  0.07474566410961359  0.4696714088963177  0.8402830193773383  1.0000
  H   H60       1.0  0.8022253609012892  0.042815586493169515  0.7511119998858148  1.0000
  H   H61       1.0  0.8278679830088861  0.20408388933572735  0.5142164369284358  1.0000
  H   H62       1.0  0.15834483476668024  0.1628530754792408  0.22135506134126356  1.0000
  H   H63       1.0  0.020755663711135196  0.07957598761262118  0.16616676440408176  1.0000
  H   H64       1.0  0.9475134970743182  0.10413158705008395  0.24469416655703208  1.0000
  H   H65       1.0  0.029842885106383197  0.04173444365299161  0.2375068112931871  1.0000
  H   H66       1.0  0.9245624867544676  0.08890575310501703  0.46568576545038814  1.0000
  H   H67       1.0  0.022158212327013895  0.12601417343064714  0.4686084663714495  1.0000
  H   H68       1.0  0.972910168858327  0.06596923703759933  0.3712376545690006  1.0000
  H   H69       1.0  0.8495612287385793  0.42414219771625034  0.4642794966595645  1.0000
  H   H70       1.0  0.9015987736335588  0.3675489718602948  0.3673003999085296  1.0000
  H   H71       1.0  0.9542914810037072  0.42690377147979325  0.4617832400407096  1.0000
  H   H72       1.0  0.08924890042708708  0.4289484188135404  0.4782806728369166  1.0000
  H   H73       1.0  0.1711912600876886  0.38318202643046817  0.49876515059743537  1.0000
  H   H74       1.0  0.0747273081034621  0.37056853695548847  0.5302921721923041  1.0000
  H   H75       1.0  0.8022230925492619  0.7083409349639638  0.9572597803408555  1.0000
  H   H76       1.0  0.8278672133199549  0.310157989671822  0.7959384842035673  1.0000
  H   H77       1.0  0.15835853104280057  0.05856289807004345  0.8371844989399335  1.0000
  H   H78       1.0  0.020716910364008394  0.08664774208462227  0.9204642063990534  1.0000
  H   H79       1.0  0.9475129388030294  0.1406421296529529  0.8959031144735475  1.0000
  H   H80       1.0  0.029863953014540794  0.19581646358573582  0.958276904415925  1.0000
  H   H81       1.0  0.9245936184402409  0.37684098905265284  0.9110538708227268  1.0000
  H   H82       1.0  0.022188974648791795  0.3426437958710835  0.8739792887300056  1.0000
  H   H83       1.0  0.9729058546762983  0.3053468208348562  0.9340386840336379  1.0000
  H   H84       1.0  0.8495932167846758  0.04015554039180817  0.5758771764156521  1.0000
  H   H85       1.0  0.9016562381355654  0.999763993999693  0.6324502281022715  1.0000
  H   H86       1.0  0.9543212378341506  0.03495235934330759  0.5731310478677543  1.0000
  H   H87       1.0  0.08932242944079147  0.04934238261081001  0.571070592167743  1.0000
  H   H88       1.0  0.17122268191350537  0.1156412911850424  0.6168720465399461  1.0000
  H   H89       1.0  0.0747412590465188  0.15973181839091677  0.6294225667561122  1.0000
  H   H90       1.0  0.8022259288925752  0.24890663414716838  0.29160579565281347  1.0000
  H   H91       1.0  0.6721384887417017  0.4857503690478567  0.6898432906998481  1.0000
  H   H92       1.0  0.3416628685287079  0.7786088266361731  0.9414896880880619  1.0000
  H   H93       1.0  0.47926186438655793  0.8337940802419157  0.9133915178074474  1.0000
  H   H94       1.0  0.5524943505707823  0.7552647732048926  0.8594056101820725  1.0000
  H   H95       1.0  0.4701472378187005  0.7624523454273275  0.8042260422993834  1.0000
  H   H96       1.0  0.5754265390720973  0.5342236176094276  0.6231902428483451  1.0000
  H   H97       1.0  0.4778377154800494  0.5313247721116384  0.6573751649878048  1.0000
  H   H98       1.0  0.5271028738254414  0.6286851055931706  0.6946852992281762  1.0000
  H   H99       1.0  0.6504232825320457  0.5357172553871762  0.9598729406326426  1.0000
  H   H100      1.0  0.5983710139226871  0.6326686745521498  0.00022623022815078327  1.0000
  H   H101      1.0  0.5457070802120753  0.5381843570634643  0.9650767439132933  1.0000
  H   H102      1.0  0.4106853278566831  0.5216907832025584  0.9506697355288338  1.0000
  H   H103      1.0  0.3287883390077936  0.5012072120433118  0.884380745980188  1.0000
  H   H104      1.0  0.4252552302656483  0.4696738623167817  0.8402876819499524  1.0000
  H   H105      1.0  0.6977784383333299  0.042815759403176  0.7511096845973384  1.0000
  H   H106      1.0  0.6721350798113334  0.20408515817239703  0.5142211891155526  1.0000
  H   H107      1.0  0.341660657527953  0.16286044545920222  0.22135877607938426  1.0000
  H   H108      1.0  0.47924571049806275  0.07957824392229901  0.16616176488702908  1.0000
  H   H109      1.0  0.552491093309726  0.1041283983981813  0.24468527869527176  1.0000
  H   H110      1.0  0.47015891927113523  0.04173611280930338  0.2375025938941278  1.0000
  H   H111      1.0  0.5754357705843346  0.08890936248038632  0.4656859012636687  1.0000
  H   H112      1.0  0.4778431665637513  0.12602419484550603  0.4686131334824352  1.0000
  H   H113      1.0  0.527086252196831  0.06597821006015882  0.37123998963903654  1.0000
  H   H114      1.0  0.6504343499226122  0.424147124427158  0.464275618412799  1.0000
  H   H115      1.0  0.598399494337002  0.3675445057884019  0.36730159291480646  1.0000
  H   H116      1.0  0.5457080923380104  0.42690847885145183  0.4617785652368623  1.0000
  H   H117      1.0  0.4107527164935262  0.42895290532365493  0.4782825258523005  1.0000
  H   H118      1.0  0.3288120592934404  0.3831861071609168  0.4987669922197142  1.0000
  H   H119      1.0  0.4252745027806597  0.3705711812179189  0.5302901178777475  1.0000
  H   H120      1.0  0.6977738182203054  0.7083386187248522  0.9572556038208118  1.0000
  H   H121      1.0  0.6721331342348335  0.31015971815673293  0.7959449519645503  1.0000
  H   H122      1.0  0.34163966498046244  0.05856708950506838  0.8371837793749464  1.0000
  H   H123      1.0  0.4792757468765031  0.08665386633108343  0.9204662142416781  1.0000
  H   H124      1.0  0.5524817158073033  0.14064707532569545  0.895906756840553  1.0000
  H   H125      1.0  0.47012707198398823  0.19582053786537318  0.9582757204744539  1.0000
  H   H126      1.0  0.5754022282078778  0.3768421709418918  0.9110553472294711  1.0000
  H   H127      1.0  0.47780572719335607  0.34264818855821483  0.8739852349205818  1.0000
  H   H128      1.0  0.5270925211775576  0.3053463583847886  0.9340384908680973  1.0000
  H   H129      1.0  0.6504028398197333  0.04015609425499625  0.5758733213075544  1.0000
  H   H130      1.0  0.5983411331655332  0.9997735890764191  0.6324504123652446  1.0000
  H   H131      1.0  0.5456761148251842  0.034956270608567895  0.5731293450525213  1.0000
  H   H132      1.0  0.41067631920120107  0.04934274891672891  0.571068953783339  1.0000
  H   H133      1.0  0.32877704322120127  0.11564139719685333  0.6168724255933711  1.0000
  H   H134      1.0  0.42525494082762083  0.1597314913018408  0.6294213089639982  1.0000
  H   H135      1.0  0.6977701871217192  0.24890812449064004  0.29160542583448285  1.0000
  H   H136      1.0  0.17213800545800947  0.5141998776092294  0.3101606879201951  1.0000
  H   H137      1.0  0.8416470644445224  0.22139118322073872  0.058526146373111515  1.0000
  H   H138      1.0  0.979244634999155  0.1661724027713589  0.0866135625824072  1.0000
  H   H139      1.0  0.05248793926521239  0.24469585048105816  0.1405851202917887  1.0000
  H   H140      1.0  0.9701340974941173  0.2375253683740937  0.19578975485045189  1.0000
  H   H141      1.0  0.07541498593827359  0.4657263963744854  0.37680843025267313  1.0000
  H   H142      1.0  0.9778248870224995  0.46862482072982203  0.34260550716901145  1.0000
  H   H143      1.0  0.027089074406305293  0.37126629706328634  0.3053141095931764  1.0000
  H   H144      1.0  0.15042983824505995  0.46428024335216384  0.04014842012404066  1.0000
  H   H145      1.0  0.09837619334453507  0.3673133104139056  0.9997758701960321  1.0000
  H   H146      1.0  0.04569834990478939  0.4618076752888598  0.03493166557660027  1.0000
  H   H147      1.0  0.9107208788629818  0.4783101436013695  0.04936436509155574  1.0000
  H   H148      1.0  0.8287983488981182  0.4987990671225404  0.11564214634305615  1.0000
  H   H149      1.0  0.9252731400324234  0.5303209494918733  0.15975330891848222  1.0000
  H   H150      1.0  0.19777462687104463  0.957279428276678  0.24885429957486588  1.0000
  H   H151      1.0  0.17214141358886076  0.7959109157761048  0.48576959003116826  1.0000
  H   H152      1.0  0.8416539783074055  0.8371654006506334  0.7786138201566005  1.0000
  H   H153      1.0  0.9792966526809292  0.9204228891346345  0.8337869126525559  1.0000
  H   H154      1.0  0.05249707494245829  0.8958667976059755  0.7552339004828353  1.0000
  H   H155      1.0  0.9701453453647347  0.9582436396081206  0.7624361195170977  1.0000
  H   H156      1.0  0.07542339226444028  0.9110279913849058  0.5342090579594441  1.0000
  H   H157      1.0  0.9778247265941927  0.8739667129693841  0.5313360117599827  1.0000
  H   H158      1.0  0.027114514253355496  0.934003621740459  0.6286887482435972  1.0000
  H   H159      1.0  0.1504099517142095  0.5758339600493159  0.5357186525716315  1.0000
  H   H160      1.0  0.09833830581946759  0.6324189965109285  0.6326656977045744  1.0000
  H   H161      1.0  0.04568263842840279  0.5730991029374691  0.5381675277581336  1.0000
  H   H162      1.0  0.9106723044128342  0.5710385145534856  0.521717577305779  1.0000
  H   H163      1.0  0.8287740400169665  0.6168475102527465  0.5012242112076492  1.0000
  H   H164      1.0  0.9252556313179666  0.6293971656241195  0.4696892420192638  1.0000
  H   H165      1.0  0.19777160558044926  0.29163905830069575  0.04272148182707271  1.0000
  H   H166      1.0  0.17212042928995427  0.689859810482794  0.20410068022136565  1.0000
  H   H167      1.0  0.8416538047686614  0.9415000886611223  0.16287473466682906  1.0000
  H   H168      1.0  0.9792207565455012  0.9133954935215698  0.07959411477164474  1.0000
  H   H169      1.0  0.052472351317362595  0.8594186494178614  0.10413004932888012  1.0000
  H   H170      1.0  0.9701289807783909  0.8042224278899752  0.04176074537535614  1.0000
  H   H171      1.0  0.07542400842501  0.6232199320630514  0.0889367339269427  1.0000
  H   H172      1.0  0.9778233612544297  0.6573956457136062  0.12604258424632758  1.0000
  H   H173      1.0  0.027071203828889192  0.6947454205971297  0.06601087192694166  1.0000
  H   H174      1.0  0.15041265208454038  0.9598710445987636  0.4241695170045431  1.0000
  H   H175      1.0  0.09838196799526597  0.0002332485913285852  0.3675627264286446  1.0000
  H   H176      1.0  0.045693449646940096  0.9651154211220356  0.4269223043329973  1.0000
  H   H177      1.0  0.910704017810289  0.9506711222592303  0.42898374322788874  1.0000
  H   H178      1.0  0.8287861264018088  0.8844087448830038  0.3831849113823934  1.0000
  H   H179      1.0  0.9252452075453588  0.8402863020960609  0.37059996324647665  1.0000
  H   H180      1.0  0.19777935199559235  0.7510059729588789  0.7081937911960593  1.0000
  H   H181      1.0  0.25000093850007926  0.9902832639719251  0.18462226622535374  1.0000
  H   H182      1.0  0.24999661616356406  0.1943995665400919  0.00968987268706199  1.0000
  H   H183      1.0  0.25000047353722005  0.8151059218684936  0.805462036092564  1.0000
  H   H184      1.0  0.7500002260700214  0.009716725909342543  0.815267217050355  1.0000
  H   H185      1.0  0.7499986701034584  0.8055820680221331  0.9903212887564975  1.0000
  H   H186      1.0  0.74999892977619  0.1846965967890242  0.194364982078703  1.0000
  C   C1        1.0  0.5333138306937569  0.3718995841346667  0.1336166110460368  1.0000
  C   C2        1.0  0.5537507946216351  0.2914673944872774  0.11777213459740209  1.0000
  C   C3        1.0  0.5109399344323718  0.23172756322761498  0.13582169660603674  1.0000
  C   C4        1.0  0.5980819697832728  0.39910072206411235  0.1043415734297781  1.0000
  C   C5        1.0  0.46072082277773757  0.4179452027698503  0.17118876291903715  1.0000
  C   C6        1.0  0.4321908906806086  0.445053589514572  0.2522429388936303  1.0000
  C   C7        1.0  0.40457122928849276  0.44646416490866875  0.13388774175201235  1.0000
  C   C8        1.0  0.4647231857981565  0.4373100548482967  0.3229858049507044  1.0000
  C   C9        1.0  0.4023724604897295  0.434343071021118  0.04764581372927521  1.0000
  C   C10       1.0  0.6088595565623222  0.48108789591742607  0.10769918331285294  1.0000
  C   C11       1.0  0.5333155307178925  0.7616958061744015  0.6280826867216475  1.0000
  C   C12       1.0  0.5537386150142749  0.8263105052417148  0.7085224183590101  1.0000
  C   C13       1.0  0.5109182997358559  0.9040873263466979  0.7682373800249778  1.0000
  C   C14       1.0  0.5980902622234864  0.7052214029792553  0.6009177380211952  1.0000
  C   C15       1.0  0.460724520286412  0.753194048080097  0.5820157177143842  1.0000
  C   C16       1.0  0.4322022133744524  0.8071342694216453  0.5548989960923052  1.0000
  C   C17       1.0  0.4045846710297026  0.6873795196512802  0.5535119717361923  1.0000
  C   C18       1.0  0.4647103863111254  0.885620026448457  0.5626376926468453  1.0000
  C   C19       1.0  0.40238697781294513  0.6132574109433264  0.5656378789589098  1.0000
  C   C20       1.0  0.608870288136849  0.626581704582705  0.5189293480323585  1.0000
  C   C21       1.0  0.5333140448847046  0.866399899861058  0.23831819004209365  1.0000
  C   C22       1.0  0.5537456498170172  0.8822192887367278  0.17370624015585173  1.0000
  C   C23       1.0  0.5109410996919834  0.8641703386793579  0.09591046270001875  1.0000
  C   C24       1.0  0.5980786555996644  0.8957178640213287  0.29480166403250485  1.0000
  C   C25       1.0  0.4607209356226746  0.8288289338736022  0.24680547040260586  1.0000
  C   C26       1.0  0.4321922776112003  0.7477847451925825  0.19286668988107178  1.0000
  C   C27       1.0  0.40459135456362816  0.8661467304203754  0.3126441941356146  1.0000
  C   C28       1.0  0.46471505480292297  0.6770605079055585  0.11438240954697663  1.0000
  C   C29       1.0  0.40237165518929163  0.9523847849878495  0.3867469446674506  1.0000
  C   C30       1.0  0.6088545702119176  0.8923498915000324  0.3734406308458844  1.0000
  C   C31       1.0  0.0333090689364681  0.6280734257486956  0.8663817215433055  1.0000
  C   C32       1.0  0.053726739604961396  0.7085173252541282  0.8822238382326759  1.0000
  C   C33       1.0  0.010917898549166697  0.7682453399357314  0.8641717848832682  1.0000
  C   C34       1.0  0.09808081879427277  0.6008843749562801  0.8956780857100027  1.0000
  C   C35       1.0  0.9607074218935452  0.5820151518936498  0.8288097923446358  1.0000
  C   C36       1.0  0.9321965535113603  0.5549022514686753  0.7477476907069088  1.0000
  C   C37       1.0  0.9045780581180692  0.55351342247193  0.8661350265577281  1.0000
  C   C38       1.0  0.9647123016717387  0.5626403025984672  0.6770096104362082  1.0000
  C   C39       1.0  0.9023719320494334  0.5656403008001123  0.9523777429846447  1.0000
  C   C40       1.0  0.10886499225006217  0.5188876104817339  0.8923233095866577  1.0000
  C   C41       1.0  0.03330972034249409  0.23828911839439118  0.3718917673845112  1.0000
  C   C42       1.0  0.053752441646317095  0.17368796774243123  0.2914565381487151  1.0000
  C   C43       1.0  0.010937768881319698  0.09590324979542687  0.23172102665067476  1.0000
  C   C44       1.0  0.09808252116143729  0.294764357304885  0.3990642791156063  1.0000
  C   C45       1.0  0.9607254780006826  0.24677508785595142  0.4179457781970228  1.0000
  C   C46       1.0  0.9321858182043098  0.19283903733903426  0.4450513278391099  1.0000
  C   C47       1.0  0.9045816665204567  0.3126052338957593  0.4464840532445963  1.0000
  C   C48       1.0  0.9647033465793342  0.11433289088332545  0.4372855562407665  1.0000
  C   C49       1.0  0.9023615301939998  0.38671518182389514  0.4343409889149327  1.0000
  C   C50       1.0  0.10884426519827876  0.3734029586560226  0.48105897310531986  1.0000
  C   C51       1.0  0.03331355767252829  0.1336406085263775  0.7617344553765335  1.0000
  C   C52       1.0  0.053749522512823895  0.11780610884643754  0.8263360628373206  1.0000
  C   C53       1.0  0.010926727783200396  0.13586130072604147  0.9041254293702464  1.0000
  C   C54       1.0  0.09808883565479927  0.10434371366349646  0.7052568000614059  1.0000
  C   C55       1.0  0.9607261225299409  0.1712091509561375  0.7532469542515229  1.0000
  C   C56       1.0  0.932203984711016  0.2522642269083946  0.8071743718106459  1.0000
  C   C57       1.0  0.9045855656715671  0.13389565906236095  0.687425794721875  1.0000
  C   C58       1.0  0.9647316020751048  0.32301137750722114  0.8856535301342986  1.0000
  C   C59       1.0  0.9023933148014719  0.04765799625042887  0.6133096484800049  1.0000
  C   C60       1.0  0.10886997788483647  0.10769069213954197  0.6266211945106049  1.0000
  C   C61       1.0  0.46669439045972877  0.628074667085187  0.8663877947760525  1.0000
  C   C62       1.0  0.4462744767678543  0.7085182827556052  0.8822273705635408  1.0000
  C   C63       1.0  0.4890782818017455  0.7682422145600613  0.864171956085002  1.0000
  C   C64       1.0  0.4019203718005143  0.600890364200808  0.895684063503225  1.0000
  C   C65       1.0  0.5392932780262709  0.5820145505292871  0.8288105639615608  1.0000
  C   C66       1.0  0.5678026320339952  0.5549000364079717  0.7477483767487527  1.0000
  C   C67       1.0  0.5954264089832292  0.5535039525550687  0.8661249732041368  1.0000
  C   C68       1.0  0.5352820959038879  0.5626402856484846  0.6770066208053365  1.0000
  C   C69       1.0  0.5976310570684261  0.5656402338053327  0.9523745534144652  1.0000
  C   C70       1.0  0.3911357298386874  0.5188923307242065  0.8923275249496357  1.0000
  C   C71       1.0  0.46669327792795195  0.23829297829253449  0.37188978401939465  1.0000
  C   C72       1.0  0.44624785148135965  0.17369100012361122  0.2914514705039508  1.0000
  C   C73       1.0  0.48906463907380965  0.09590615149826934  0.2317184339031826  1.0000
  C   C74       1.0  0.4019203103140754  0.294768193998344  0.3990637086434532  1.0000
  C   C75       1.0  0.5392789970238707  0.2467790052273671  0.4179485570273939  1.0000
  C   C76       1.0  0.567816590389171  0.1928449176313763  0.44505696947550893  1.0000
  C   C77       1.0  0.5954188461986475  0.3126197751531308  0.44649675572303227  1.0000
  C   C78       1.0  0.5352937188778667  0.114340716846094  0.43729103751098114  1.0000
  C   C79       1.0  0.5976377055784922  0.3867228962266793  0.4343430689794019  1.0000
  C   C80       1.0  0.39115733491693294  0.3734083067487575  0.4810625601586835  1.0000
  C   C81       1.0  0.46668712023130604  0.1336406392521497  0.7617330385029248  1.0000
  C   C82       1.0  0.44624846006468016  0.11780780117929623  0.8263334228208592  1.0000
  C   C83       1.0  0.48906594483429433  0.13586738102396373  0.9041272711153779  1.0000
  C   C84       1.0  0.4019107503384163  0.10434100222058607  0.705254077097173  1.0000
  C   C85       1.0  0.5392696464120518  0.17121325927640643  0.7532430165987023  1.0000
  C   C86       1.0  0.5677918367413142  0.252270152550537  0.8071712677039997  1.0000
  C   C87       1.0  0.5954109863479287  0.1339057721898483  0.6874189981466684  1.0000
  C   C88       1.0  0.5352643556784641  0.32301391131788654  0.885655603365514  1.0000
  C   C89       1.0  0.5976030522391013  0.04766215668379202  0.6133044071895952  1.0000
  C   C90       1.0  0.39112836862988587  0.10768982878238369  0.6266179423722348  1.0000
  C   C91       1.0  0.9666985642288565  0.37190093224904786  0.133617139473003  1.0000
  C   C92       1.0  0.9462550237704547  0.29146663655023985  0.117775207634466  1.0000
  C   C93       1.0  0.9890603372786867  0.2317286426322411  0.13582418906131008  1.0000
  C   C94       1.0  0.9019279902145525  0.3991033028485377  0.10434225878882594  1.0000
  C   C95       1.0  0.039286100728119784  0.41794989373310903  0.17119294323829587  1.0000
  C   C96       1.0  0.06780872798505297  0.4450599747350025  0.25224155009652083  1.0000
  C   C97       1.0  0.09543133881520299  0.4464825353093786  0.1338998776292185  1.0000
  C   C98       1.0  0.035277105455861595  0.4373119832929008  0.3229841328993146  1.0000
  C   C99       1.0  0.09763276136888518  0.4343475842100162  0.04764783238461229  1.0000
  C   C100      1.0  0.891150284356712  0.4810893533423908  0.10770013566609991  1.0000
  C   C101      1.0  0.9666855654924971  0.7617015499387493  0.6280788196197092  1.0000
  C   C102      1.0  0.9462581307263489  0.8263096242241517  0.7085190886736824  1.0000
  C   C103      1.0  0.9890816226754351  0.9040858549774812  0.768234809568284  1.0000
  C   C104      1.0  0.9019086490670956  0.7052279197970748  0.6009123123971633  1.0000
  C   C105      1.0  0.039272159790080294  0.7531969231272981  0.5820086628741095  1.0000
  C   C106      1.0  0.06779594486115309  0.8071367250818896  0.5548873982601138  1.0000
  C   C107      1.0  0.09541361951756498  0.6873760994079917  0.5534947812601132  1.0000
  C   C108      1.0  0.035285471970070086  0.8856278750722666  0.5626388009931631  1.0000
  C   C109      1.0  0.0976125897709466  0.6132623675860246  0.565629666068908  1.0000
  C   C110      1.0  0.8911263269684965  0.6265892732386645  0.5189263646891503  1.0000
  C   C111      1.0  0.9666805521383636  0.8663951821166691  0.23831390850725842  1.0000
  C   C112      1.0  0.94624811506975  0.8822210425847815  0.17370680140582806  1.0000
  C   C113      1.0  0.9890544471676604  0.8641730494861407  0.0959145866352173  1.0000
  C   C114      1.0  0.9019117413473197  0.895710151617827  0.29479959152403984  1.0000
  C   C115      1.0  0.03927210298053299  0.8288219527147902  0.24680174617263625  1.0000
  C   C116      1.0  0.06780070803922908  0.7477734086503603  0.19286453378190763  1.0000
  C   C117      1.0  0.09540090116362167  0.8661276957384273  0.3126415308297296  1.0000
  C   C118      1.0  0.03527720578612299  0.6770531918092288  0.11437149271198878  1.0000
  C   C119      1.0  0.09761784554151379  0.952374026682655  0.3867424829622266  1.0000
  C   C120      1.0  0.8911347150136562  0.8923476880536398  0.3734398061812099  1.0000
  C   C121      1.0  0.24999928450754536  0.6195841763101342  0.06254400251778235  1.0000
  C   C122      1.0  0.24999790760498533  0.8604525374240808  0.1400487329224375  1.0000
  C   C123      1.0  0.24999827422418258  0.9457626928194216  0.20944012600051537  1.0000
  C   C124      1.0  0.24999782857928915  0.44293090342500113  0.3804168587698484  1.0000
  C   C125      1.0  0.24999977267674472  0.2796296404017512  0.1395322185056216  1.0000
  C   C126      1.0  0.24999704865199118  0.2637317832282804  0.05422623307300258  1.0000
  C   C127      1.0  0.24999620988685214  0.937489951210594  0.5570440397388124  1.0000
  C   C128      1.0  0.24999858242635034  0.8599008389336404  0.7203774447168172  1.0000
  C   C129      1.0  0.25000093982396976  0.7904147846171695  0.7361341335614708  1.0000
  C   C130      1.0  0.7500024687409023  0.3804390843939275  0.9374962268008104  1.0000
  C   C131      1.0  0.7500009055732234  0.13957768229522577  0.8599595224012616  1.0000
  C   C132      1.0  0.7500005381931628  0.05429633459009158  0.7905240948997445  1.0000
  C   C133      1.0  0.7500033367806934  0.5570668278785649  0.6195771181285536  1.0000
  C   C134      1.0  0.7500037441323285  0.7203927363480532  0.8604675657025354  1.0000
  C   C135      1.0  0.750001765010701  0.7362550721717868  0.945756867711502  1.0000
  C   C136      1.0  0.7499914324682918  0.06252625289859996  0.4429564792983598  1.0000
  C   C137      1.0  0.7499984672824737  0.14008447559098872  0.279586532448306  1.0000
  C   C138      1.0  0.7499990498806495  0.20949241072857921  0.2637002305294018  1.0000
  Br  Br1       1.0  0.2501592636390129  0.6666635893769026  0.33332811845001936  1.0000
  Br  Br2       1.0  0.7501441062551419  0.3333273017304563  0.6666596441797807  1.0000
  N   N1        1.0  0.36436539418198066  0.48621096570081335  0.259175563587327  1.0000
  N   N2        1.0  0.346189079798897  0.48800143397232887  0.18855173738171518  1.0000
  N   N3        1.0  0.6255702029933231  0.275002890229473  0.0808279928541467  1.0000
  N   N4        1.0  0.6535718674130065  0.3390451072404872  0.07183524074141447  1.0000
  N   N5        1.0  0.36436282885236426  0.7729102403984529  0.5137376698163862  1.0000
  N   N6        1.0  0.34620461453534546  0.7005086247062451  0.5119707471495474  1.0000
  N   N7        1.0  0.6255596471155512  0.805828264903923  0.7250038415688778  1.0000
  N   N8        1.0  0.65356948759441  0.7327739715333053  0.6609677985638029  1.0000
  N   N9        1.0  0.364370069207304  0.7408395546611715  0.22708984089593537  1.0000
  N   N10       1.0  0.34621254526725653  0.8114563853909259  0.29949289267609897  1.0000
  N   N11       1.0  0.6255640642231768  0.9191916745385954  0.1941888606511313  1.0000
  N   N12       1.0  0.6535571718988249  0.9282197404510272  0.2672594956923434  1.0000
  N   N13       1.0  0.8643628145702206  0.513737728578647  0.7408225804395058  1.0000
  N   N14       1.0  0.846195219067276  0.5119610272746301  0.8114428178982108  1.0000
  N   N15       1.0  0.12555323151732264  0.724980788643755  0.9191848816136596  1.0000
  N   N16       1.0  0.15356346136756824  0.6609401777187857  0.9281895656520902  1.0000
  N   N17       1.0  0.8643665552890524  0.22705796543556295  0.48623226162744965  1.0000
  N   N18       1.0  0.8462108449980332  0.2994861629386206  0.48802410932874807  1.0000
  N   N19       1.0  0.12556849058969988  0.1941654900670713  0.27497829214019726  1.0000
  N   N20       1.0  0.15356407695826133  0.26721946680601866  0.3390205766274548  1.0000
  N   N21       1.0  0.8643781285972663  0.2592007687279363  0.7729471858428951  1.0000
  N   N22       1.0  0.8462076177646124  0.1885635561494467  0.7005453288663687  1.0000
  N   N23       1.0  0.1255681888331708  0.08084969824190581  0.8058565906870925  1.0000
  N   N24       1.0  0.15357462839345706  0.07183547701914965  0.7328019630983746  1.0000
  N   N25       1.0  0.6356345961588729  0.513727909850168  0.7408141883801918  1.0000
  N   N26       1.0  0.6538056188351432  0.5119489291749421  0.811436315410532  1.0000
  N   N27       1.0  0.374447425205055  0.7249823210278805  0.919186117264793  1.0000
  N   N28       1.0  0.346439293433086  0.6609423796326368  0.928191820305436  1.0000
  N   N29       1.0  0.6356289295815499  0.22707196695094478  0.48625334195317294  1.0000
  N   N30       1.0  0.6537836160181526  0.29950060412333096  0.4880497984989772  1.0000
  N   N31       1.0  0.37443505075184186  0.1941689063490699  0.2749776441742071  1.0000
  N   N32       1.0  0.3464434367086398  0.26722035129827754  0.3390208858555468  1.0000
  N   N33       1.0  0.6356140451513282  0.25921124516796823  0.7729402509639768  1.0000
  N   N34       1.0  0.6537833283056711  0.1885755208873263  0.7005365158460323  1.0000
  N   N35       1.0  0.37443239727863187  0.08084796792070395  0.8058545637524261  1.0000
  N   N36       1.0  0.3464275305802573  0.07183309879815875  0.732799009710746  1.0000
  N   N37       1.0  0.13562600437633418  0.4862405979720066  0.2591940643258893  1.0000
  N   N38       1.0  0.15380418263258375  0.48803364209924643  0.18856944746757162  1.0000
  N   N39       1.0  0.8744332354396247  0.27501143050113797  0.08083309696026218  1.0000
  N   N40       1.0  0.8464353525800872  0.3390490247182143  0.0718379551623727  1.0000
  N   N41       1.0  0.13562814285888436  0.7729041730865375  0.5137135627053553  1.0000
  N   N42       1.0  0.15378855646117978  0.7005035019442403  0.511944218269967  1.0000
  N   N43       1.0  0.8744397300318028  0.8058323091008504  0.7250025655376574  1.0000
  N   N44       1.0  0.84643003292728  0.7327820548118071  0.6609652595741551  1.0000
  N   N45       1.0  0.13561539347001877  0.7408173453861268  0.2270916645569016  1.0000
  N   N46       1.0  0.15377061802920614  0.8114352437252209  0.29949869721110634  1.0000
  N   N47       1.0  0.8744312124203971  0.9191897759111142  0.19418917720594192  1.0000
  N   N48       1.0  0.8464347679206269  0.928212591061886  0.2672580504277277  1.0000
  N   N49       1.0  0.24999769472927372  0.5914749786864989  0.10822263233050933  1.0000
  N   N50       1.0  0.24999423991278036  0.7998584222430338  0.07320521756249582  1.0000
  N   N51       1.0  0.24999278236919054  0.5167164871991118  0.40852091525987067  1.0000
  N   N52       1.0  0.2499997188706473  0.2733587907389463  0.20010949623256374  1.0000
  N   N53       1.0  0.24998991137062623  0.8917918684376289  0.48325912303150176  1.0000
  N   N54       1.0  0.24999760073590943  0.9267025842012587  0.7265622508171674  1.0000
  N   N55       1.0  0.7499993550554931  0.4085316768190452  0.8917972237488953  1.0000
  N   N56       1.0  0.7500051617454914  0.2001419149080306  0.9268133436521636  1.0000
  N   N57       1.0  0.7500013276263927  0.4832843385932364  0.5914786680529501  1.0000
  N   N58       1.0  0.7500032103976578  0.7266282329515619  0.7998712610026217  1.0000
  N   N59       1.0  0.7499918519552011  0.10819707167554068  0.5167436453386713  1.0000
  N   N60       1.0  0.7500000370294017  0.07328203449657883  0.2734154734541789  1.0000
