data_image0
_chemical_formula_structural       Zn16H96C96N64
_chemical_formula_sum              "Zn16 H96 C96 N64"
_cell_length_a       9.726546448079809
_cell_length_b       24.513367803193496
_cell_length_c       23.670250734005425
_cell_angle_alpha    89.99999945628844
_cell_angle_beta     89.99992202159456
_cell_angle_gamma    89.99954364031271

_space_group_name_H-M_alt    "P 1"
_space_group_IT_number       1

loop_
  _space_group_symop_operation_xyz
  'x, y, z'

loop_
  _atom_site_type_symbol
  _atom_site_label
  _atom_site_symmetry_multiplicity
  _atom_site_fract_x
  _atom_site_fract_y
  _atom_site_fract_z
  _atom_site_occupancy
  Zn  Zn1       1.0  0.9852196535296825  0.17766065202353326  0.5004469031732341  1.0000
  Zn  Zn2       1.0  0.5147849686090424  0.8223374353191133  0.00044645871818719987  1.0000
  Zn  Zn3       1.0  0.014787167635518  0.6776603642577185  0.9995513432788241  1.0000
  Zn  Zn4       1.0  0.48521853784966856  0.32234046285314827  0.49955479436734146  1.0000
  Zn  Zn5       1.0  0.014781397811468396  0.8223406409429899  0.4995503117694468  1.0000
  Zn  Zn6       1.0  0.4852068297510996  0.17765937031460766  0.9995499112843544  1.0000
  Zn  Zn7       1.0  0.985203602596769  0.32233725725876633  0.0004484064939234  1.0000
  Zn  Zn8       1.0  0.51478251345997  0.6776628698163234  0.5004491801151899  1.0000
  Zn  Zn9       1.0  0.9998322451397073  0.0006857741986578997  0.32377533302346956  1.0000
  Zn  Zn10      1.0  0.5001733735194448  0.9993147166795423  0.8237748882315329  1.0000
  Zn  Zn11      1.0  0.00017153376521149998  0.5006831291941225  0.17622418943729903  1.0000
  Zn  Zn12      1.0  0.4998270065173712  0.49931488645022865  0.6762259337894676  1.0000
  Zn  Zn13      1.0  0.00017291867705889998  0.9993134790578752  0.6762227268603807  1.0000
  Zn  Zn14      1.0  0.49983179029254626  0.0006849445176442  0.1762235941235772  1.0000
  Zn  Zn15      1.0  0.9998305457089742  0.49931530818558645  0.8237789401021657  1.0000
  Zn  Zn16      1.0  0.5001689042331066  0.500687222405311  0.3237784631656666  1.0000
  H   H1        1.0  0.0476034651125516  0.05732086336424659  0.44564841691347107  1.0000
  H   H2        1.0  0.45240036077490237  0.9426836425691292  0.9456489768094015  1.0000
  H   H3        1.0  0.9523981515768654  0.5573168500264103  0.054349845307349695  1.0000
  H   H4        1.0  0.5476114344521861  0.4426816378952977  0.5543577526327752  1.0000
  H   H5        1.0  0.9524016986736186  0.9426816534178355  0.5543483755568914  1.0000
  H   H6        1.0  0.5475934938005126  0.0573139789424957  0.0543503504912408  1.0000
  H   H7        1.0  0.0475926186097269  0.44268485089669696  0.9456528617642803  1.0000
  H   H8        1.0  0.45240401050445195  0.5573163915223275  0.44564875667274606  1.0000
  H   H9        1.0  0.6965835416179189  0.0347158534904253  0.27898037361315176  1.0000
  H   H10       1.0  0.8034335330838757  0.9652870911244236  0.77898017561413  1.0000
  H   H11       1.0  0.3034257245377106  0.5347114257727981  0.2210191531560994  1.0000
  H   H12       1.0  0.1965736970834868  0.465282504352423  0.7210235993934262  1.0000
  H   H13       1.0  0.30341648162472973  0.9652838077149609  0.7210172638009451  1.0000
  H   H14       1.0  0.1965788275305371  0.0347121621206483  0.22101872921015084  1.0000
  H   H15       1.0  0.696576354923536  0.4652882354289288  0.778984398854675  1.0000
  H   H16       1.0  0.8034181012702177  0.5347130774584699  0.2789841773323189  1.0000
  H   H17       1.0  0.0100247881728635  0.27605871940038895  0.41079583212015786  1.0000
  H   H18       1.0  0.48997709572605436  0.723945383350191  0.9107908509503203  1.0000
  H   H19       1.0  0.9899796451177919  0.7760521346077807  0.08920245780436177  1.0000
  H   H20       1.0  0.5100195455950427  0.22394226916959067  0.5892035991256249  1.0000
  H   H21       1.0  0.9899793474609452  0.723947060908557  0.5892043401205668  1.0000
  H   H22       1.0  0.5100136745274212  0.2760506064037643  0.08920594152369428  1.0000
  H   H23       1.0  0.0100090688944334  0.2239450789714467  0.9107947571415449  1.0000
  H   H24       1.0  0.48998561813996117  0.7760647349597392  0.4107969955861179  1.0000
  H   H25       1.0  0.014191543618181904  0.9456782642058597  0.2004554736652295  1.0000
  H   H26       1.0  0.4858120578449814  0.054317300480917693  0.7004563246343238  1.0000
  H   H27       1.0  0.9858136054192386  0.4456793251672905  0.29954495009921084  1.0000
  H   H28       1.0  0.5141776990185035  0.5543256563868438  0.7995393713734273  1.0000
  H   H29       1.0  0.9858197887821801  0.054332003439711174  0.7995370940915549  1.0000
  H   H30       1.0  0.5141889935682968  0.945676649553249  0.2995417352503509  1.0000
  H   H31       1.0  0.014185389673599497  0.5543223757425081  0.700461981682416  1.0000
  H   H32       1.0  0.48581307119196987  0.4456740048329948  0.20046122334191804  1.0000
  H   H33       1.0  0.2926917799563213  0.21903549886683038  0.5317834826620994  1.0000
  H   H34       1.0  0.20731957109950372  0.7809613126390359  0.031786303937501294  1.0000
  H   H35       1.0  0.7073152407733189  0.7190379166890892  0.9682096993756983  1.0000
  H   H36       1.0  0.7926827077025678  0.28096296243854363  0.4682140989652551  1.0000
  H   H37       1.0  0.7073144119746643  0.7809641623289281  0.46821204239409286  1.0000
  H   H38       1.0  0.7926742834725927  0.21903712475415918  0.9682100660645714  1.0000
  H   H39       1.0  0.2926816981378906  0.28096133658078765  0.0317837133269236  1.0000
  H   H40       1.0  0.20731217495784904  0.7190383305379198  0.5317805811517715  1.0000
  H   H41       1.0  0.7807844387897661  0.9423168470894009  0.1330588436109252  1.0000
  H   H42       1.0  0.7192146081582463  0.0576808142311336  0.6330577333020101  1.0000
  H   H43       1.0  0.21921974944883973  0.44231747189149917  0.36694242467048344  1.0000
  H   H44       1.0  0.28077713757998884  0.5576886765524803  0.8669404979585591  1.0000
  H   H45       1.0  0.2192320341745457  0.05769423642944819  0.8669328792019967  1.0000
  H   H46       1.0  0.2807843870281204  0.9423131358063517  0.36693948164078444  1.0000
  H   H47       1.0  0.7807802736846271  0.5576915719489577  0.6330645071113279  1.0000
  H   H48       1.0  0.7192228856637612  0.44230935288954504  0.13306643382255598  1.0000
  H   H49       1.0  0.9297827886016634  0.0585726524109518  0.5531024582940984  1.0000
  H   H50       1.0  0.5702278296843772  0.9414221642138753  0.05309946276583589  1.0000
  H   H51       1.0  0.0702243610177717  0.558577091487862  0.9468995753159462  1.0000
  H   H52       1.0  0.4297763764328624  0.44142700633913284  0.4468988481038848  1.0000
  H   H53       1.0  0.0702141503045652  0.9414257849770136  0.4468989813618832  1.0000
  H   H54       1.0  0.42977322169760873  0.05857504934581208  0.946897752176582  1.0000
  H   H55       1.0  0.9297869714586114  0.44142420146211225  0.0531014418649178  1.0000
  H   H56       1.0  0.5702154218713389  0.5585746945824963  0.553101746611297  1.0000
  H   H57       1.0  0.2428148837742796  0.34131580594377176  0.40874467264468706  1.0000
  H   H58       1.0  0.2571890630712232  0.6586891129648789  0.9087372799307756  1.0000
  H   H59       1.0  0.7571861865310652  0.8413062869046611  0.09126207497050128  1.0000
  H   H60       1.0  0.7428150536629018  0.158688524529488  0.5912588517629942  1.0000
  H   H61       1.0  0.7571851393455518  0.6586944617186816  0.5912631040796653  1.0000
  H   H62       1.0  0.7428017071896561  0.34130565296682386  0.09126246984179427  1.0000
  H   H63       1.0  0.24280252747708178  0.1586913346152556  0.9087351399754268  1.0000
  H   H64       1.0  0.2571859976189117  0.841318071665654  0.4087421654211099  1.0000
  H   H65       1.0  0.8339583923702706  0.19368888909344403  0.3825918370952337  1.0000
  H   H66       1.0  0.666032639916274  0.8063115937840448  0.8825963437821328  1.0000
  H   H67       1.0  0.16603740920528048  0.6936857266257944  0.1174030626293714  1.0000
  H   H68       1.0  0.3339674925532137  0.30631148115126894  0.6174040313225149  1.0000
  H   H69       1.0  0.1660241529734847  0.8063071006736847  0.6174028430249408  1.0000
  H   H70       1.0  0.3339560740905583  0.19368643567666766  0.1173991812788913  1.0000
  H   H71       1.0  0.8339687827282631  0.3063127107475125  0.8825983770240026  1.0000
  H   H72       1.0  0.6660345868971616  0.6936894038725683  0.38259867574586787  1.0000
  H   H73       1.0  0.185733853860711  0.10333552111315919  0.6888714063890474  1.0000
  H   H74       1.0  0.31428315101030074  0.8966641245394201  0.18887291446186788  1.0000
  H   H75       1.0  0.8142785681122362  0.6033363976838756  0.8111251407627832  1.0000
  H   H76       1.0  0.6857322325389176  0.39666695049615436  0.3111308828616756  1.0000
  H   H77       1.0  0.814285703567883  0.896663324180295  0.3111207388934574  1.0000
  H   H78       1.0  0.6857220127921337  0.10333635253907397  0.8111264128357546  1.0000
  H   H79       1.0  0.1857060335221874  0.39665184120638486  0.18887883372343586  1.0000
  H   H80       1.0  0.3142821842041599  0.6033408694994263  0.6888764713872246  1.0000
  H   H81       1.0  0.8548567585681753  0.11581502509930167  0.2981693998782617  1.0000
  H   H82       1.0  0.6451417472556926  0.8841809819355859  0.7981705484657764  1.0000
  H   H83       1.0  0.14514574297299282  0.6158143649559091  0.20182760233751648  1.0000
  H   H84       1.0  0.3548486009641678  0.3841807916174318  0.7018319488604873  1.0000
  H   H85       1.0  0.14513709604337777  0.8841793328870079  0.7018278150660108  1.0000
  H   H86       1.0  0.35484902295554827  0.11581908722514099  0.20182708895095658  1.0000
  H   H87       1.0  0.8548738144765123  0.3841812168115908  0.7981717249557362  1.0000
  H   H88       1.0  0.6451493660227641  0.6158205013534824  0.2981724480940143  1.0000
  H   H89       1.0  0.18347746698025702  0.18665904632197788  0.6096424247833098  1.0000
  H   H90       1.0  0.31653054452332446  0.8133410180934604  0.1096456109150523  1.0000
  H   H91       1.0  0.816530202092217  0.6866607208252727  0.8903524430384877  1.0000
  H   H92       1.0  0.6834690296625469  0.3133405768618473  0.3903581758593049  1.0000
  H   H93       1.0  0.8165369498742124  0.8133402069203299  0.3903492980294415  1.0000
  H   H94       1.0  0.6834612537877263  0.18666027488760045  0.8903532939151686  1.0000
  H   H95       1.0  0.1834389778096579  0.31332996573369337  0.10964899662484837  1.0000
  H   H96       1.0  0.3165453871084338  0.6866643875489231  0.6096496008606422  1.0000
  C   C1        1.0  0.991331841554661  0.08370619761129211  0.41695475076956967  1.0000
  C   C2        1.0  0.5086714154730315  0.91629550438148  0.9169559805446426  1.0000
  C   C3        1.0  0.0086702748822205  0.583702314568711  0.08304309232176618  1.0000
  C   C4        1.0  0.4913378238028159  0.4162965296527688  0.5830511680274455  1.0000
  C   C5        1.0  0.0086722941282318  0.9162950953503067  0.5830428866434686  1.0000
  C   C6        1.0  0.49132038288835383  0.08370048537059199  0.08304461417017707  1.0000
  C   C7        1.0  0.9913194671950052  0.41629897841537655  0.9169591922788951  1.0000
  C   C8        1.0  0.5086745367821023  0.5837043553544916  0.41695576375035864  1.0000
  C   C9        1.0  0.751913855557781  0.010303373664186195  0.2481716418072039  1.0000
  C   C10       1.0  0.7481012639044806  0.9896979433937855  0.748171900638894  1.0000
  C   C11       1.0  0.24809795565544596  0.5103015646738241  0.2518304166968832  1.0000
  C   C12       1.0  0.2519044492962266  0.4896960327099434  0.7518310325186021  1.0000
  C   C13       1.0  0.2480964488004318  0.9896987351689505  0.751826840546613  1.0000
  C   C14       1.0  0.251906984260124  0.0103004939763807  0.2518278491289649  1.0000
  C   C15       1.0  0.7519000113369643  0.4896993203564647  0.7481731353151274  1.0000
  C   C16       1.0  0.7480955739571442  0.5103015887916271  0.24817251949261984  1.0000
  C   C17       1.0  0.10210061051759568  0.2742766868887685  0.4365673961133254  1.0000
  C   C18       1.0  0.3979032451609115  0.7257257805802835  0.9365628896715847  1.0000
  C   C19       1.0  0.8979038584654688  0.7742691734920155  0.0634321609991133  1.0000
  C   C20       1.0  0.602097472956281  0.225723194094023  0.5634332505136682  1.0000
  C   C21       1.0  0.8979014688722059  0.7257303172453362  0.5634348884842167  1.0000
  C   C22       1.0  0.6020885532032453  0.2742702091718953  0.0634360151583024  1.0000
  C   C23       1.0  0.1020930804708016  0.22572681625208443  0.9365658988868544  1.0000
  C   C24       1.0  0.39790769081071176  0.7742805465098213  0.4365677666690928  1.0000
  C   C25       1.0  0.9137398233730563  0.9638905744654023  0.20679862620757208  1.0000
  C   C26       1.0  0.5862672067701739  0.03611115619004578  0.7067980107681889  1.0000
  C   C27       1.0  0.08626907346521759  0.4638867352426103  0.2932039122183738  1.0000
  C   C28       1.0  0.413735252065507  0.5361161597231072  0.7932031750558436  1.0000
  C   C29       1.0  0.08627562150501689  0.0361176534702707  0.7931935190766879  1.0000
  C   C30       1.0  0.4137400133061746  0.9638848335377117  0.29320089405733535  1.0000
  C   C31       1.0  0.9137360902886231  0.5361170053606868  0.7068051319178038  1.0000
  C   C32       1.0  0.5862719679506866  0.46388431735152114  0.20680502413708268  1.0000
  C   C33       1.0  0.24569236947176884  0.2443332010817229  0.4995003583160979  1.0000
  C   C34       1.0  0.25431539244068097  0.7556651783890513  0.9994993165787562  1.0000
  C   C35       1.0  0.754312699098854  0.7443290067623067  0.0004975051189007  1.0000
  C   C36       1.0  0.7456836979638624  0.25566826470488724  0.5005002071692103  1.0000
  C   C37       1.0  0.7543076537476806  0.75566849982696  0.5004989689830593  1.0000
  C   C38       1.0  0.7456753778039271  0.24433162724623964  0.0004978983665467  1.0000
  C   C39       1.0  0.24567807117572474  0.25566494328826644  0.9994988648837546  1.0000
  C   C40       1.0  0.2543183814825695  0.7443338441413372  0.49949743024446036  1.0000
  C   C41       1.0  0.7979557347917776  0.9623426252639218  0.173313166468958  1.0000
  C   C42       1.0  0.7020483207618469  0.03765829408274608  0.6733133307395817  1.0000
  C   C43       1.0  0.20204805245879948  0.4623404543730061  0.32668810434878987  1.0000
  C   C44       1.0  0.29795205090140797  0.5376599883876806  0.826685320453393  1.0000
  C   C45       1.0  0.2020607381928912  0.03766601061065699  0.8266810911712026  1.0000
  C   C46       1.0  0.29795478685321086  0.9623385115330334  0.326683461731001  1.0000
  C   C47       1.0  0.7979427176935232  0.5376632862529432  0.6733230521476229  1.0000
  C   C48       1.0  0.702046944280049  0.4623335537087457  0.17331738661539478  1.0000
  C   C49       1.0  0.0004619101370622  0.08192138386764473  0.5791780692892629  1.0000
  C   C50       1.0  0.49955648235064126  0.9180790926279341  0.07917989784851188  1.0000
  C   C51       1.0  0.9995488843987772  0.5819245141076974  0.9208210099783186  1.0000
  C   C52       1.0  0.500450247482597  0.41807881912683326  0.4208234797184005  1.0000
  C   C53       1.0  0.9995391411761859  0.9180827646836816  0.42081872318236435  1.0000
  C   C54       1.0  0.5004466252351351  0.08192056857259898  0.9208173170934796  1.0000
  C   C55       1.0  0.0004583355937413001  0.41807922649277157  0.0791816970887922  1.0000
  C   C56       1.0  0.49954360707835127  0.5819192103250471  0.5791821846507543  1.0000
  C   C57       1.0  0.21778574782732818  0.3066975894877473  0.43539036062619363  1.0000
  C   C58       1.0  0.2822170835905595  0.6933056940250282  0.9353833806244508  1.0000
  C   C59       1.0  0.7822139594780139  0.8066888106733219  0.0646125803637005  1.0000
  C   C60       1.0  0.7177832556137602  0.19330396469887026  0.5646140228684331  1.0000
  C   C61       1.0  0.7822132471954575  0.6933114543544787  0.5646144587997453  1.0000
  C   C62       1.0  0.717772658560328  0.3066890719084796  0.0646138343210083  1.0000
  C   C63       1.0  0.2177737264562793  0.19330554732307792  0.9353799873987538  1.0000
  C   C64       1.0  0.2822208800295343  0.8067005917879085  0.4353878392571388  1.0000
  C   C65       1.0  0.8818606855885988  0.15372939151918527  0.38331847154974225  1.0000
  C   C66       1.0  0.618132400551552  0.8462706833153602  0.8833213204817199  1.0000
  C   C67       1.0  0.1181379723913523  0.6537271967850767  0.11667811299790287  1.0000
  C   C68       1.0  0.3818679598511281  0.34627041902984956  0.6166803270976472  1.0000
  C   C69       1.0  0.11812700029113898  0.8462698617651793  0.6166774759828826  1.0000
  C   C70       1.0  0.3818573415544009  0.15372856996565787  0.11667589446402359  1.0000
  C   C71       1.0  0.8818641070693403  0.3462732802983337  0.8833207918293623  1.0000
  C   C72       1.0  0.6181382320571488  0.653730058046669  0.3833240698544813  1.0000
  C   C73       1.0  0.1331540776390625  0.1061899681078131  0.6485714680915037  1.0000
  C   C74       1.0  0.3668702561157318  0.8938096830308877  0.1485699887893901  1.0000
  C   C75       1.0  0.8668654839667482  0.606190672593108  0.8514297266033991  1.0000
  C   C76       1.0  0.6331431283773838  0.393811446270348  0.3514329632306498  1.0000
  C   C77       1.0  0.8668644516289349  0.8938125486530096  0.3514265917887798  1.0000
  C   C78       1.0  0.6331328514686589  0.10618997816958849  0.8514280710950713  1.0000
  C   C79       1.0  0.13312939874448657  0.39380409333182326  0.14857382540910175  1.0000
  C   C80       1.0  0.3668640916170673  0.606191478448494  0.6485735460775003  1.0000
  C   C81       1.0  0.8910812708234559  0.11487629325278446  0.3414853650467506  1.0000
  C   C82       1.0  0.6089150367645145  0.8851237872833692  0.8414878016381238  1.0000
  C   C83       1.0  0.10891816519396968  0.614873714081547  0.1585107921084088  1.0000
  C   C84       1.0  0.3910804331583718  0.38512226427547347  0.658515540748489  1.0000
  C   C85       1.0  0.1089105275257438  0.8851213282621943  0.6585126948407803  1.0000
  C   C86       1.0  0.39108190214524546  0.1148750580455982  0.15850899083433487  1.0000
  C   C87       1.0  0.8910890548578718  0.38512472329030345  0.8414881127172719  1.0000
  C   C88       1.0  0.6089216463116641  0.6148761731040651  0.3414901236183708  1.0000
  C   C89       1.0  0.1323538573230891  0.1473711760641692  0.6090180242586171  1.0000
  C   C90       1.0  0.3676582687298549  0.8526244010824795  0.10902034153270529  1.0000
  C   C91       1.0  0.8676545984439272  0.6473771758654507  0.8909776835296126  1.0000
  C   C92       1.0  0.6323456593519409  0.35262656937887027  0.39098302774486615  1.0000
  C   C93       1.0  0.8676533627417697  0.8526264454265232  0.3909779232683873  1.0000
  C   C94       1.0  0.6323396982871897  0.14737485218542187  0.8909781408244155  1.0000
  C   C95       1.0  0.1323341155756381  0.35261840595067184  0.10902502354221609  1.0000
  C   C96       1.0  0.3676595044074417  0.6473771712246544  0.6090226366214537  1.0000
  N   N1        1.0  0.12034790845153512  0.23480717030464857  0.4775306216276434  1.0000
  N   N2        1.0  0.37965889733870734  0.7651924359867052  0.9775295102653342  1.0000
  N   N3        1.0  0.8796532384102347  0.7348042076575253  0.022466395659542098  1.0000
  N   N4        1.0  0.6203441147727561  0.2651926528707165  0.5224670573894059  1.0000
  N   N5        1.0  0.8796551991042634  0.7651953464806026  0.5224674382570029  1.0000
  N   N6        1.0  0.6203318729188466  0.23480314582656803  0.022467282208651802  1.0000
  N   N7        1.0  0.12033341939343252  0.2651909662215175  0.9775312417580508  1.0000
  N   N8        1.0  0.3796548803040237  0.7348123115652355  0.47752973508285373  1.0000
  N   N9        1.0  0.30843881218640945  0.2873887947548894  0.47549848518461585  1.0000
  N   N10       1.0  0.19156388779713748  0.7126124435831682  0.9754936712123621  1.0000
  N   N11       1.0  0.6915602536146608  0.7873847959553331  0.0245048758314041  1.0000
  N   N12       1.0  0.8084422334596795  0.21261206428675908  0.5245045796667753  1.0000
  N   N13       1.0  0.691561210972324  0.7126182093823558  0.5245054892984342  1.0000
  N   N14       1.0  0.8084268824508597  0.2873839541114122  0.024503966204143496  1.0000
  N   N15       1.0  0.30843565718503635  0.2126136414345793  0.9754919166413174  1.0000
  N   N16       1.0  0.1915608740865693  0.7873912683797997  0.4754943251603833  1.0000
  N   N17       1.0  0.8837791650676862  0.9944682205078622  0.25427679865457964  1.0000
  N   N18       1.0  0.6162318219356208  0.005531871901538899  0.7542803871227405  1.0000
  N   N19       1.0  0.1162250069843793  0.4944667404964846  0.24571898410599854  1.0000
  N   N20       1.0  0.38376919307511775  0.505531673615323  0.7457199498858313  1.0000
  N   N21       1.0  0.11622497057913957  0.005536743919911698  0.7457204162874546  1.0000
  N   N22       1.0  0.3837784824627447  0.9944661575247407  0.2457185177020449  1.0000
  N   N23       1.0  0.8837729600148806  0.5055337365932357  0.7542828780210583  1.0000
  N   N24       1.0  0.6162236333908594  0.4944651320164297  0.25428148977120907  1.0000
  N   N25       1.0  0.6957618776687653  0.9918695319577394  0.19981861986629204  1.0000
  N   N26       1.0  0.8042451753578773  0.0081313837684363  0.6998187226467959  1.0000
  N   N27       1.0  0.3042433745148542  0.4918694885674099  0.3001813872772559  1.0000
  N   N28       1.0  0.1957578438254686  0.5081309578071114  0.8001833045753769  1.0000
  N   N29       1.0  0.3042412298694543  0.008135432471895899  0.8001752153061755  1.0000
  N   N30       1.0  0.1957610165941546  0.9918658297830871  0.30017891476540365  1.0000
  N   N31       1.0  0.6957648735502033  0.5081379234973724  0.6998242770884244  1.0000
  N   N32       1.0  0.8042411513040691  0.49186666369568127  0.19982616203338918  1.0000
  N   N33       1.0  0.9457858612114336  0.13369858359537548  0.43105347677380473  1.0000
  N   N34       1.0  0.5542152933730832  0.8663039323588392  0.9310542520084865  1.0000
  N   N35       1.0  0.0542162822392456  0.633695374064807  0.0689422602932908  1.0000
  N   N36       1.0  0.44579494702574607  0.3663014323719764  0.5689486655189951  1.0000
  N   N37       1.0  0.054214162028515006  0.8663014855507499  0.5689433156978579  1.0000
  N   N38       1.0  0.4457734206248889  0.13369491298320918  0.06894169552382577  1.0000
  N   N39       1.0  0.9457755160601095  0.3663063268566161  0.9310612917205175  1.0000
  N   N40       1.0  0.5542174135823643  0.6336974129319797  0.4310565763737557  1.0000
  N   N41       1.0  0.9603282526371186  0.07039840943127018  0.3632290920561374  1.0000
  N   N42       1.0  0.5396751804769693  0.9296028919495708  0.8632298835253707  1.0000
  N   N43       1.0  0.03967310215936239  0.5703960526021915  0.1367683268787658  1.0000
  N   N44       1.0  0.46033070800456233  0.4296015604752269  0.6367743094343581  1.0000
  N   N45       1.0  0.03967279873054249  0.9296000279503857  0.63676939030006  1.0000
  N   N46       1.0  0.46031970217043044  0.0703992169080507  0.13676775389033927  1.0000
  N   N47       1.0  0.9603248648603185  0.42960238478411833  0.8632335352481632  1.0000
  N   N48       1.0  0.5396816525742594  0.5704001404134829  0.36323135492980185  1.0000
  N   N49       1.0  0.048201915295578594  0.13172393160220247  0.564890926815302  1.0000
  N   N50       1.0  0.4518093272950309  0.8682692039215351  0.0648906636898658  1.0000
  N   N51       1.0  0.9518099381613254  0.6317284349572816  0.9351068913462085  1.0000
  N   N52       1.0  0.5481912031200692  0.3682757122066532  0.4351089053293719  1.0000
  N   N53       1.0  0.951795023638688  0.8682724660826648  0.43510586565700027  1.0000
  N   N54       1.0  0.5481876116126471  0.13172964140733967  0.9351073961962866  1.0000
  N   N55       1.0  0.0481911132403212  0.36826633095811434  0.06489328089468668  1.0000
  N   N56       1.0  0.45180367947548217  0.6317308839981947  0.5648929567989425  1.0000
  N   N57       1.0  0.04911955773349061  0.0647788199947215  0.629373551467843  1.0000
  N   N58       1.0  0.4508955859586408  0.9352163464299181  0.1293720299253494  1.0000
  N   N59       1.0  0.9508864395042165  0.5647825191811434  0.8706263705723741  1.0000
  N   N60       1.0  0.5491169693496046  0.43522041295337016  0.3706271250984159  1.0000
  N   N61       1.0  0.9508814936327852  0.9352196173868705  0.3706257758308168  1.0000
  N   N62       1.0  0.5491106059825198  0.0647820909437087  0.8706247625444589  1.0000
  N   N63       1.0  0.0491187243376814  0.4352138784904651  0.12937380166746237  1.0000
  N   N64       1.0  0.45088202573112574  0.5647833276601872  0.6293747370285557  1.0000
