data_image0
_chemical_formula_structural       Zn4H12C20Br4N16
_chemical_formula_sum              "Zn4 H12 C20 Br4 N16"
_cell_length_a       7.638287561000584
_cell_length_b       10.074644491000072
_cell_length_c       10.04282171700077
_cell_angle_alpha    89.99999056717706
_cell_angle_beta     90.0000437774668
_cell_angle_gamma    90.00000972528575

_space_group_name_H-M_alt    "P 1"
_space_group_IT_number       1

loop_
  _space_group_symop_operation_xyz
  'x, y, z'

loop_
  _atom_site_type_symbol
  _atom_site_label
  _atom_site_symmetry_multiplicity
  _atom_site_fract_x
  _atom_site_fract_y
  _atom_site_fract_z
  _atom_site_occupancy
  Zn  Zn1       1.0  0.11968022145516238  0.5299025449592634  0.3883868518661656  1.0000
  Zn  Zn2       1.0  0.38032003813982124  0.47009792885950225  0.8883858511974834  1.0000
  Zn  Zn3       1.0  0.619679888242679  0.970098736686545  0.6116140639117517  1.0000
  Zn  Zn4       1.0  0.8803204122361734  0.029901846802417305  0.11161430244523979  1.0000
  H   H1        1.0  0.9792774344819078  0.36371905054957676  0.6076262951565851  1.0000
  H   H2        1.0  0.520724171178621  0.6362815335958559  0.1076252294069704  1.0000
  H   H3        1.0  0.47927648641104525  0.13628073780274264  0.39237491164830357  1.0000
  H   H4        1.0  0.020723777195612997  0.8637187427688675  0.8923736374731561  1.0000
  H   H5        1.0  0.9358959829543706  0.7675705264719  0.5170262142193209  1.0000
  H   H6        1.0  0.5641042223703395  0.2324290799926914  0.017026235892586797  1.0000
  H   H7        1.0  0.4358951476256934  0.7324288105446045  0.4829738893272688  1.0000
  H   H8        1.0  0.064105207122708  0.2675706551168986  0.9829737342455328  1.0000
  H   H9        1.0  0.39228868260988037  0.7774933986042927  0.8062495510037732  1.0000
  H   H10       1.0  0.10771149435665707  0.2225060961409896  0.30624959961726  1.0000
  H   H11       1.0  0.8922891826035836  0.722505932820063  0.19374953150114746  1.0000
  H   H12       1.0  0.6077112005019883  0.27749364456092007  0.6937494000903611  1.0000
  C   C1        1.0  0.6888289043301866  0.5688786193709987  0.7192880387946088  1.0000
  C   C2        1.0  0.8111701952722894  0.4311199612161972  0.21928717538477113  1.0000
  C   C3        1.0  0.1888292193608834  0.9311216785518897  0.2807119213755058  1.0000
  C   C4        1.0  0.3111709319158961  0.06887980557778661  0.7807129381293689  1.0000
  C   C5        1.0  0.9085299204685101  0.45643000836850717  0.6243347185358132  1.0000
  C   C6        1.0  0.5914703928068903  0.5435695804361631  0.12433470484684504  1.0000
  C   C7        1.0  0.408530243954445  0.04356977091111961  0.37566545147750924  1.0000
  C   C8        1.0  0.09147000284337992  0.9564307050011608  0.8756651988244569  1.0000
  C   C9        1.0  0.8870041526947998  0.6823426974826037  0.5727834449849281  1.0000
  C   C10       1.0  0.6129934903318953  0.31765689980592543  0.07278148952136829  1.0000
  C   C11       1.0  0.3870045896162467  0.8176566332639587  0.42721663018937034  1.0000
  C   C12       1.0  0.1129943998483753  0.1823438341642074  0.9272185089878274  1.0000
  C   C13       1.0  0.7443465660542826  0.6885870704474756  0.6574070301764363  1.0000
  C   C14       1.0  0.7556537804918052  0.31141152032348884  0.15740814573675266  1.0000
  C   C15       1.0  0.24434560724834847  0.8114122420042948  0.3425919664750338  1.0000
  C   C16       1.0  0.2556546062787888  0.18858923194169824  0.8425929312964084  1.0000
  C   C17       1.0  0.5067933802209765  0.7259114401049872  0.7676488833230122  1.0000
  C   C18       1.0  0.9932070772259038  0.27408812511431796  0.2676481514139155  1.0000
  C   C19       1.0  0.0067923021287584  0.7740888344730836  0.23235097120875275  1.0000
  C   C20       1.0  0.49320780049708196  0.22591166502464693  0.7323510720028634  1.0000
  Br  Br1       1.0  0.3905760358406453  0.4319427735818949  0.4439300932102625  1.0000
  Br  Br2       1.0  0.1094242796302822  0.5680566985051102  0.9439299149394101  1.0000
  Br  Br3       1.0  0.8905755564305481  0.06805700339523212  0.556070066383917  1.0000
  Br  Br4       1.0  0.6094246881717424  0.9319435892347202  0.05606999915103469  1.0000
  N   N1        1.0  0.7716419490148638  0.45272465120936534  0.7059521789737814  1.0000
  N   N2        1.0  0.7283584463664851  0.5472749241633894  0.20595224411272275  1.0000
  N   N3        1.0  0.271642191227393  0.047276103106227714  0.29404791160129656  1.0000
  N   N4        1.0  0.22835928265845237  0.952724386238046  0.7940477389972072  1.0000
  N   N5        1.0  0.6266919503646449  0.787220813533395  0.6906854836830476  1.0000
  N   N6        1.0  0.8733084296582091  0.21277876435189577  0.1906846922923151  1.0000
  N   N7        1.0  0.1266922451168071  0.7127794764208846  0.30931444042805367  1.0000
  N   N8        1.0  0.37330793493305947  0.2872210104108603  0.809314461545128  1.0000
  N   N9        1.0  0.5376000190007418  0.5951137729407563  0.7879539533209223  1.0000
  N   N10       1.0  0.9623991496792429  0.40488578893675253  0.2879541777282952  1.0000
  N   N11       1.0  0.0376002590604969  0.9048855129972754  0.2120459190888582  1.0000
  N   N12       1.0  0.46239982313866074  0.09511399725123233  0.7120460235462501  1.0000
  N   N13       1.0  0.9662993910584915  0.563922644477664  0.5557205441559459  1.0000
  N   N14       1.0  0.5337008531922012  0.43607794820979984  0.05572051464585571  1.0000
  N   N15       1.0  0.4662998717490652  0.9360776890287927  0.44427957703449267  1.0000
  N   N16       1.0  0.03370175326742951  0.06392178300077941  0.9442794378487135  1.0000
