data_image0
_chemical_formula_structural       Zn4H36C40N20O16
_chemical_formula_sum              "Zn4 H36 C40 N20 O16"
_cell_length_a       7.577427529
_cell_length_b       12.071453613568032
_cell_length_c       15.5741
_cell_angle_alpha    111.23268618923437
_cell_angle_beta     90.0
_cell_angle_gamma    90.0

_space_group_name_H-M_alt    "P 1"
_space_group_IT_number       1

loop_
  _space_group_symop_operation_xyz
  'x, y, z'

loop_
  _atom_site_type_symbol
  _atom_site_label
  _atom_site_symmetry_multiplicity
  _atom_site_fract_x
  _atom_site_fract_y
  _atom_site_fract_z
  _atom_site_occupancy
  Zn  Zn1       1.0  0.5367731970294118  0.1439262679662718  0.8463160142599977  1.0000
  Zn  Zn2       1.0  0.036781612088447  0.3560750053616317  0.6536790138107309  1.0000
  Zn  Zn3       1.0  0.4632244896525252  0.8560798336095206  0.15368081859637078  1.0000
  Zn  Zn4       1.0  0.9632226731389437  0.6439133216142353  0.346323745155118  1.0000
  H   H1        1.0  0.7776201062232533  0.9734997294388138  0.08097298310483589  1.0000
  H   H2        1.0  0.2776166439004655  0.5264978694349125  0.41901677571696183  1.0000
  H   H3        1.0  0.22238021987686105  0.0264974848370088  0.919018144568618  1.0000
  H   H4        1.0  0.7223889610360106  0.4735082321408726  0.5809986777980641  1.0000
  H   H5        1.0  0.5576853072928929  0.1632312609439523  0.13969776217930982  1.0000
  H   H6        1.0  0.0576726070064666  0.3367682349239588  0.3602935564881307  1.0000
  H   H7        1.0  0.4423071005526752  0.83676684206187  0.8602948991499562  1.0000
  H   H8        1.0  0.9423316782209243  0.6632396441118261  0.6397146908716709  1.0000
  H   H9        1.0  0.5038095033425947  0.2260644716760183  0.0581965094809647  1.0000
  H   H10       1.0  0.0038034016016226  0.2739359129218855  0.4417963428422739  1.0000
  H   H11       1.0  0.4961908227575194  0.7739362975197892  0.9417936898072697  1.0000
  H   H12       1.0  0.9962022033348604  0.7260666337339147  0.5582097655911299  1.0000
  H   H13       1.0  0.9546445640443653  0.8618619109648621  0.3509447259686454  1.0000
  H   H14       1.0  0.4546345031761234  0.6381321329888863  0.14905302424683958  1.0000
  H   H15       1.0  0.0453610408921108  0.13812463855101242  0.6490530394105535  1.0000
  H   H16       1.0  0.5453552652512599  0.3618784122368838  0.8509476243385024  1.0000
  H   H17       1.0  0.8037543053617  0.7782679675213231  0.2766532961829711  1.0000
  H   H18       1.0  0.3037455642025436  0.7217251877024324  0.22334613083509686  1.0000
  H   H19       1.0  0.1962539389929674  0.2217176932645515  0.7233480722738436  1.0000
  H   H20       1.0  0.6962508027702938  0.2782889124433225  0.7766510209983082  1.0000
  H   H21       1.0  0.8078889539452805  0.9357598101497473  0.8103615421155227  1.0000
  H   H22       1.0  0.3079066069679612  0.5642315676140157  0.6896258283074347  1.0000
  H   H23       1.0  0.1921166509912027  0.0642427365060598  0.18963044030096654  1.0000
  H   H24       1.0  0.6920910797139754  0.43576475793182123  0.31038623891893746  1.0000
  H   H25       1.0  0.3680734641573125  0.8990330430563561  0.602466357742266  1.0000
  H   H26       1.0  0.8680769264801003  0.6009725543873401  0.8975294988816743  1.0000
  H   H27       1.0  0.6319268619428089  0.10097394724942892  0.3975287983115194  1.0000
  H   H28       1.0  0.1319194404927444  0.39902732607847474  0.10247393485934002  1.0000
  H   H29       1.0  0.5321515757910691  0.7109448928484028  0.3224928682292756  1.0000
  H   H30       1.0  0.032140195213735  0.7890535947553303  0.17750612934847254  1.0000
  H   H31       1.0  0.4678553488544992  0.2890461003174565  0.6775087128788968  1.0000
  H   H32       1.0  0.9678508929227407  0.21095695047043964  0.8224938771451917  1.0000
  H   H33       1.0  0.8880375264886312  0.954550228459624  0.5156098124109434  1.0000
  H   H34       1.0  0.3880261459112902  0.5454411493041391  0.9843910419372506  1.0000
  H   H35       1.0  0.11197335728422082  0.0454434308962206  0.48438994874787517  1.0000
  H   H36       1.0  0.6119662619342778  0.4545587311616758  0.015609823437053218  1.0000
  C   C1        1.0  0.7771648065866972  0.9706158006011167  0.8833790401205308  1.0000
  C   C2        1.0  0.2771732216457324  0.5293764658926392  0.6166085797748837  1.0000
  C   C3        1.0  0.22283947864069387  0.029385857324690803  0.11661269282350872  1.0000
  C   C4        1.0  0.7228271044543817  0.47062074838318324  0.3834050211073007  1.0000
  C   C5        1.0  0.669048958976852  0.0851847701367561  0.013420798606944105  1.0000
  C   C6        1.0  0.169044176944972  0.41481117081116997  0.48656888007900545  1.0000
  C   C7        1.0  0.33095532625053903  0.9148124441390735  0.9865696869748319  1.0000
  C   C8        1.0  0.8309574688642344  0.5851878209246523  0.51343944092298  1.0000
  C   C9        1.0  0.632969432125073  0.9343413970757979  0.5687950340649978  1.0000
  C   C10       1.0  0.1329633303841007  0.5656579792579279  0.9312035708935229  1.0000
  C   C11       1.0  0.3670308939750485  0.0656593721200167  0.43120415450672317  1.0000
  C   C12       1.0  0.8670211592069208  0.4343427899378797  0.06879947022827085  1.0000
  C   C13       1.0  0.4677629692181001  0.8800186647874356  0.548970734608041  1.0000
  C   C14       1.0  0.9677558738681571  0.6199851551962681  0.9510265493460254  1.0000
  C   C15       1.0  0.5322373568820211  0.119985659328357  0.45102880976180876  1.0000
  C   C16       1.0  0.0322272960137724  0.3800156139995465  0.04897328131738021  1.0000
  C   C17       1.0  0.42962733560180066  0.8017437703712177  0.4599698560491775  1.0000
  C   C18       1.0  0.929622879670035  0.6982556059625085  0.04002297008424457  1.0000
  C   C19       1.0  0.5703756299164979  0.19825522136460455  0.5400281914859663  1.0000
  C   C20       1.0  0.07036688875734853  0.30174427450330654  0.9599708322816058  1.0000
  C   C21       1.0  0.5578463118020522  0.7762505504299214  0.3909648999842191  1.0000
  C   C22       1.0  0.057841529770172415  0.723747048443812  0.109032563937717  1.0000
  C   C23       1.0  0.4421592931344308  0.2237448863859086  0.6090353601195062  1.0000
  C   C24       1.0  0.9421535174935729  0.2762563869419949  0.89096480468465  1.0000
  C   C25       1.0  0.7219244234358158  0.8327106783591705  0.41074580482720807  1.0000
  C   C26       1.0  0.2219183216948437  0.667283365594578  0.0892525874799546  1.0000
  C   C27       1.0  0.2780864603370361  0.16727942607668922  0.5892503900750939  1.0000
  C   C28       1.0  0.7780806846961781  0.33272273598120716  0.9107500242015123  1.0000
  C   C29       1.0  0.7595717646882678  0.9118938548315185  0.4992921329280763  1.0000
  C   C30       1.0  0.2595630235291182  0.5881010778522295  0.0007077930348984383  1.0000
  C   C31       1.0  0.2404338402482153  0.0881015819843185  0.5007068429922938  1.0000
  C   C32       1.0  0.7404280646073573  0.4118996913435852  0.9992933218118625  1.0000
  C   C33       1.0  0.6720051073417538  0.018785085929899  0.6644591838086528  1.0000
  C   C34       1.0  0.1720003253098739  0.48121529866801194  0.8355381631563363  1.0000
  C   C35       1.0  0.3279978581765449  0.9812183494559008  0.3355388269053918  1.0000
  C   C36       1.0  0.8279815248629634  0.5187792494178326  0.16446248956661697  1.0000
  C   C37       1.0  0.249521357052096  0.7498241639926136  0.43989294971981263  1.0000
  C   C38       1.0  0.7495208602476069  0.7501787672610974  0.06010536894515891  1.0000
  C   C39       1.0  0.7504816084662026  0.2501721615532162  0.5601082019480401  1.0000
  C   C40       1.0  0.2504755067252304  0.24982911177468034  0.9398926049477936  1.0000
  N   N1        1.0  0.6745376290882916  0.0703776396698998  0.9229762058634139  1.0000
  N   N2        1.0  0.1745407653109581  0.4296165238180336  0.5770123317859516  1.0000
  N   N3        1.0  0.3254653364300069  0.9296222407959222  0.07701631231907416  1.0000
  N   N4        1.0  0.8254648396255249  0.5703806904577888  0.4229967744544895  1.0000
  N   N5        1.0  0.8326638527195058  0.9220253767883123  0.9416138415109573  1.0000
  N   N6        1.0  0.3326709480694562  0.5779704446254286  0.5583741341825856  1.0000
  N   N7        1.0  0.16733647338060825  0.07797983605748021  0.058380173506243714  1.0000
  N   N8        1.0  0.6673280583215728  0.4220312133003787  0.4416407140618617  1.0000
  N   N9        1.0  0.7635414496354187  0.9959179435932202  0.024037874007191817  1.0000
  N   N10       1.0  0.2635366676035389  0.5040769890905211  0.47594921012221664  1.0000
  N   N11       1.0  0.2364654750101565  0.0040792706826025  0.9759532536662618  1.0000
  N   N12       1.0  0.736467617623852  0.4959282237552713  0.5240614992786093  1.0000
  N   N13       1.0  0.588870033124401  0.1750753656034476  0.08037616490701542  1.0000
  N   N14       1.0  0.08886261167434382  0.3249241302644634  0.4196151537604252  1.0000
  N   N15       1.0  0.4111342521029898  0.824921848672382  0.9196149627664456  1.0000
  N   N16       1.0  0.9111456326803238  0.675081082581329  0.580393629365375  1.0000
  N   N17       1.0  0.8566429669115723  0.7991984476620716  0.34124790584113646  1.0000
  N   N18       1.0  0.3566342257524227  0.7007955962916768  0.15875177064938134  1.0000
  N   N19       1.0  0.14336395773399604  0.20079254550378076  0.6587523910836811  1.0000
  N   N20       1.0  0.6433595018022376  0.2992105052841083  0.8412476305736974  1.0000
  O   O1        1.0  0.8085474887819262  0.0823008412990518  0.6821273160023722  1.0000
  O   O2        1.0  0.3085453461682306  0.4176942109188744  0.8178704604029436  1.0000
  O   O3        1.0  0.19145943586364925  0.917695484246778  0.3178706252070924  1.0000
  O   O4        1.0  0.691452340513699  0.5823083357369327  0.1821273008386513  1.0000
  O   O5        1.0  0.5526136652543627  0.0193005493276956  0.7243472979963885  1.0000
  O   O6        1.0  0.0526128423497596  0.4807025014601934  0.7756482290192467  1.0000
  O   O7        1.0  0.4473840214275739  0.9807082184380819  0.2756496411856589  1.0000
  O   O8        1.0  0.9473518516048858  0.5192813818656887  0.22435649304273408  1.0000
  O   O9        1.0  0.1249210231806615  0.7940731417739286  0.495107417689802  1.0000
  O   O10       1.0  0.624917886957995  0.7059262345597972  0.0048905451770408954  1.0000
  O   O11       1.0  0.8750845817558217  0.20592318377190824  0.5048924497946956  1.0000
  O   O12       1.0  0.3750784800148494  0.2940780895559953  0.9951064308260983  1.0000
  O   O13       1.0  0.22630239529672025  0.6591381551793135  0.36310090897437436  1.0000
  O   O14       1.0  0.7263032182013236  0.8408638873443977  0.13689716021814752  1.0000
  O   O15       1.0  0.7737045293488551  0.3408528379865388  0.6369006721337983  1.0000
  O   O16       1.0  0.2736944684806134  0.15914843534136483  0.8631001347620286  1.0000
