data_image0
_chemical_formula_structural       Ni3H144C72N18O12
_chemical_formula_sum              "Ni3 H144 C72 N18 O12"
_cell_length_a       15.137416755221858
_cell_length_b       15.137353550523889
_cell_length_c       15.137088633934722
_cell_angle_alpha    64.95751941376972
_cell_angle_beta     64.95833522891462
_cell_angle_gamma    64.9586739584171

_space_group_name_H-M_alt    "P 1"
_space_group_IT_number       1

loop_
  _space_group_symop_operation_xyz
  'x, y, z'

loop_
  _atom_site_type_symbol
  _atom_site_label
  _atom_site_symmetry_multiplicity
  _atom_site_fract_x
  _atom_site_fract_y
  _atom_site_fract_z
  _atom_site_occupancy
  Ni  Ni1       1.0  0.49999857522226426  0.4999994620742996  2.957516130760164e-06  1.0000
  Ni  Ni2       1.0  0.5000003903894807  1.5106521190601047e-06  0.4999995339234218  1.0000
  Ni  Ni3       1.0  9.28611001400026e-07  0.49999872928179917  0.5000003348443086  1.0000
  H   H1        1.0  0.3868762216305938  0.4336469560968439  0.9781476965582883  1.0000
  H   H2        1.0  0.43364889915034865  0.9781472360136476  0.38687324517287885  1.0000
  H   H3        1.0  0.9781464462563038  0.38687320070550874  0.43364075753580517  1.0000
  H   H4        1.0  0.6131236702435102  0.5663578532488671  0.021851655486969507  1.0000
  H   H5        1.0  0.5663532877623538  0.021851058010476442  0.613128547377471  1.0000
  H   H6        1.0  0.0218557429301001  0.6131258255648434  0.5663587433466334  1.0000
  H   H7        1.0  0.3718054594444594  0.6321234938036541  0.08982324769277021  1.0000
  H   H8        1.0  0.6321258338869313  0.0898325059963626  0.37180374925228676  1.0000
  H   H9        1.0  0.08980981182150323  0.37179718708262743  0.6321417962721226  1.0000
  H   H10       1.0  0.6281936739559981  0.3678764376438295  0.9101778208007333  1.0000
  H   H11       1.0  0.3678763581833522  0.9101665231770469  0.6281937672980362  1.0000
  H   H12       1.0  0.9101900861543443  0.6282003288314827  0.36786062913103024  1.0000
  H   H13       1.0  0.41718892784764716  0.32773155902716405  0.18410565838576792  1.0000
  H   H14       1.0  0.32773555475759514  0.1840987372474672  0.41718280383102513  1.0000
  H   H15       1.0  0.1841037831469094  0.4171716197271849  0.3277324259030365  1.0000
  H   H16       1.0  0.5828109704793221  0.672266687197798  0.8158957982375554  1.0000
  H   H17       1.0  0.6722689224043775  0.8159010661652034  0.5828167256426509  1.0000
  H   H18       1.0  0.8158984104948387  0.5828266810707494  0.6722647365390342  1.0000
  H   H19       1.0  0.3550597355081352  0.2888848368431667  0.13493260969617174  1.0000
  H   H20       1.0  0.2888910332819705  0.13492208314731616  0.3550528225161145  1.0000
  H   H21       1.0  0.1349239209985029  0.35505267555500103  0.2888818216286211  1.0000
  H   H22       1.0  0.6449363428085988  0.7111174604031518  0.8650680888487231  1.0000
  H   H23       1.0  0.7111142126516796  0.8650760389135856  0.6449444493112322  1.0000
  H   H24       1.0  0.8650767423470426  0.6449460754122852  0.7111177782290736  1.0000
  H   H25       1.0  0.2952724193868619  0.4873981250759201  0.1711478611543669  1.0000
  H   H26       1.0  0.48738972196277797  0.17115094123366253  0.29526771454681006  1.0000
  H   H27       1.0  0.1711305022063812  0.2952529731147352  0.4874177538533644  1.0000
  H   H28       1.0  0.7047274748358845  0.5126015769322906  0.8288549651295015  1.0000
  H   H29       1.0  0.5126162904688556  0.8288447672292422  0.7047295913021046  1.0000
  H   H30       1.0  0.8288709266758545  0.7047433632868662  0.5125825414699463  1.0000
  H   H31       1.0  0.22561657934290477  0.4805979730284378  0.1062628144305933  1.0000
  H   H32       1.0  0.4806055947672617  0.10626398166267859  0.22560359722807993  1.0000
  H   H33       1.0  0.10623120783623112  0.22560461055815045  0.48062669042790407  1.0000
  H   H34       1.0  0.7743833152309562  0.5194024592906247  0.8937390430734453  1.0000
  H   H35       1.0  0.5193973637089471  0.8937304439478809  0.7743961982392662  1.0000
  H   H36       1.0  0.8937686924133245  0.7743936376021878  0.5193734433073374  1.0000
  H   H37       1.0  0.2916614359705179  0.6173731716279393  0.9519671635595798  1.0000
  H   H38       1.0  0.6173842570391272  0.9519799477065192  0.29164908459248556  1.0000
  H   H39       1.0  0.9519352961234587  0.2916935848218644  0.6173709763669207  1.0000
  H   H40       1.0  0.7083354075317841  0.3826259807418426  0.04803519923076034  1.0000
  H   H41       1.0  0.382620224745189  0.048015480614886016  0.70835162745189  1.0000
  H   H42       1.0  0.0480638391995782  0.7083063485609954  0.3826287692385009  1.0000
  H   H43       1.0  0.2154177673840678  0.6609357626880835  0.06181221914489762  1.0000
  H   H44       1.0  0.6609358671781536  0.06183178820361238  0.2154084483492439  1.0000
  H   H45       1.0  0.06176334594134401  0.2154282182218807  0.6609563404565649  1.0000
  H   H46       1.0  0.7845790729753049  0.3390648464326489  0.9381908518619467  1.0000
  H   H47       1.0  0.33906785535533857  0.9381631411815832  0.7845901517965144  1.0000
  H   H48       1.0  0.9382380805001914  0.7845710355523611  0.33904272552359044  1.0000
  H   H49       1.0  0.4078485050492802  0.7147774653997059  0.8674873127317821  1.0000
  H   H50       1.0  0.7147826715414568  0.867501685206335  0.40784390230267314  1.0000
  H   H51       1.0  0.8674784465826947  0.4078625460036205  0.7147786950463768  1.0000
  H   H52       1.0  0.5921491034715984  0.2852221917124069  0.13251319329293662  1.0000
  H   H53       1.0  0.28522333617577533  0.13249620838298173  0.5921544658709977  1.0000
  H   H54       1.0  0.13252145427703252  0.592134972813554  0.28522174602466066  1.0000
  H   H55       1.0  0.33199700112106717  0.7916851520587188  0.9523169639053036  1.0000
  H   H56       1.0  0.7916845312469646  0.9523409694866275  0.33199408558059657  1.0000
  H   H57       1.0  0.9523007144760457  0.3320041041803067  0.7916967643440741  1.0000
  H   H58       1.0  0.6680006081020479  0.20831596567509092  0.04768160455975592  1.0000
  H   H59       1.0  0.2083199472274089  0.047659565204575934  0.668003813669216  1.0000
  H   H60       1.0  0.04769994947967151  0.6679939174438232  0.20830314284941656  1.0000
  H   H61       1.0  0.5618838586006306  0.7724799389177619  0.9974306860391451  1.0000
  H   H62       1.0  0.7724776977741427  0.9974324479048634  0.5618970331775585  1.0000
  H   H63       1.0  0.9974280013572567  0.5618872525059474  0.7724879214545977  1.0000
  H   H64       1.0  0.43811145845064203  0.22751966749212477  0.002571468390669836  1.0000
  H   H65       1.0  0.22751990603233452  0.002569394333661997  0.4381045351719094  1.0000
  H   H66       1.0  0.0025703692983186  0.4381129064454327  0.22751271213661542  1.0000
  H   H67       1.0  0.47169610500892384  0.7095330529408912  0.08870424930827886  1.0000
  H   H68       1.0  0.7095420913510536  0.08870312559815133  0.47169958861585576  1.0000
  H   H69       1.0  0.08869464937049538  0.4717026173480363  0.7095355016925068  1.0000
  H   H70       1.0  0.5283007460916593  0.2904639172055356  0.9112950668251896  1.0000
  H   H71       1.0  0.2904562801737569  0.911294844356057  0.5283026284267649  1.0000
  H   H72       1.0  0.9113044869138348  0.5282973170025117  0.29046358246887377  1.0000
  H   H73       1.0  0.4227549088339515  0.9307531296985089  0.9488904187147539  1.0000
  H   H74       1.0  0.930761019328756  0.9488920414476706  0.4227705958209  1.0000
  H   H75       1.0  0.9488939449423057  0.4227500934592498  0.9307617920082832  1.0000
  H   H76       1.0  0.5772396480052038  0.0692459768074799  0.051110285260477936  1.0000
  H   H77       1.0  0.0692381090982437  0.0511115347802402  0.5772302588817266  1.0000
  H   H78       1.0  0.0511074786153571  0.5772491574119271  0.06923925830399483  1.0000
  H   H79       1.0  0.3296492137560988  0.8704671178506164  0.041738981029737963  1.0000
  H   H80       1.0  0.8704774500265842  0.04172975501018085  0.3296575300772135  1.0000
  H   H81       1.0  0.0417381671545911  0.3296501075934088  0.8704704160535641  1.0000
  H   H82       1.0  0.6703453417706484  0.12953125737684704  0.9582633531693646  1.0000
  H   H83       1.0  0.12951939138613972  0.9582730450430927  0.6703426345901349  1.0000
  H   H84       1.0  0.9582624946194896  0.6703493717493463  0.12952953791238286  1.0000
  H   H85       1.0  0.4006370926498093  0.8415269324889464  0.17909448523873556  1.0000
  H   H86       1.0  0.8415286265604395  0.17909809485463074  0.4006348940670179  1.0000
  H   H87       1.0  0.1790900988000459  0.4006422035702499  0.841523843639699  1.0000
  H   H88       1.0  0.599360516222191  0.1584734549340113  0.8209050520061539  1.0000
  H   H89       1.0  0.15847050378913957  0.820905483308657  0.5993646377475343  1.0000
  H   H90       1.0  0.8209113273824259  0.5993585098579999  0.15847394622483787  1.0000
  H   H91       1.0  0.48838138362478395  0.9076064609528917  0.0866129201862406  1.0000
  H   H92       1.0  0.9076073157242491  0.08662394978413349  0.4883852253056489  1.0000
  H   H93       1.0  0.0866126716100837  0.48838278166860494  0.907608812896484  1.0000
  H   H94       1.0  0.5116154668656209  0.09239123853669896  0.9133860886114319  1.0000
  H   H95       1.0  0.0923895235068386  0.9133803079877651  0.5116149861341623  1.0000
  H   H96       1.0  0.9133879904230467  0.5116152380201486  0.09239241718508137  1.0000
  H   H97       1.0  0.25506159755845914  0.9982399388875294  0.13861679172791244  1.0000
  H   H98       1.0  0.998242334582052  0.1386267224362144  0.25505926382265176  1.0000
  H   H99       1.0  0.13862544228116752  0.2550596828423011  0.9982394839019972  1.0000
  H   H100      1.0  0.7449360110544774  0.0017619081894368052  0.8613814694013584  1.0000
  H   H101      1.0  0.0017598483184926002  0.8613752173360254  0.7449416534927877  1.0000
  H   H102      1.0  0.8613759866931262  0.7449388435241532  0.0017585665258650618  1.0000
  H   H103      1.0  0.3433033245410754  0.06494764290782484  0.04721563558913994  1.0000
  H   H104      1.0  0.06494640779926901  0.0472238338163606  0.34330337901690905  1.0000
  H   H105      1.0  0.04722716899784979  0.3432978815154256  0.06495128539153681  1.0000
  H   H106      1.0  0.6566965764107097  0.9350520658742025  0.9527825605864491  1.0000
  H   H107      1.0  0.9350519558682108  0.9527777780152108  0.6567006085669647  1.0000
  H   H108      1.0  0.9527750201885611  0.6567011447549261  0.9350482154909016  1.0000
  H   H109      1.0  0.3254128366069509  0.9705441646404863  0.27700684301643724  1.0000
  H   H110      1.0  0.9705504505059396  0.27700553040961756  0.32541730013355163  1.0000
  H   H111      1.0  0.2770065919641667  0.3254200566937868  0.970538366011958  1.0000
  H   H112      1.0  0.6745870640857775  0.029457003795549535  0.7229900770435265  1.0000
  H   H113      1.0  0.029450970259901503  0.7229959075233552  0.6745834896154007  1.0000
  H   H114      1.0  0.7229948309833178  0.6745799235205538  0.029462376964531155  1.0000
  H   H115      1.0  0.277663526666565  0.102947249058893  0.2144335522057048  1.0000
  H   H116      1.0  0.10294732492390321  0.21443138644070808  0.2776653019854649  1.0000
  H   H117      1.0  0.21444016371602004  0.27766711956388707  0.10294370384639955  1.0000
  H   H118      1.0  0.7223348456525401  0.8970543714818717  0.7855644823818081  1.0000
  H   H119      1.0  0.8970525742722942  0.7855646707870819  0.7223377380892656  1.0000
  H   H120      1.0  0.7855612633356871  0.7223314048671979  0.8970556694695444  1.0000
  H   H121      1.0  0.4111422751160703  0.04000021734212579  0.1846704192545729  1.0000
  H   H122      1.0  0.0400011648428276  0.18467018673761976  0.41114828761637756  1.0000
  H   H123      1.0  0.18467476072541442  0.4111458696958792  0.0399936656641913  1.0000
  H   H124      1.0  0.5888591535991595  0.959999768678337  0.8153263550576779  1.0000
  H   H125      1.0  0.9599994940473734  0.8153292897020777  0.588853650681692  1.0000
  H   H126      1.0  0.8153243787018454  0.588852607903725  0.9600047102806853  1.0000
  H   H127      1.0  0.5151766501509273  0.4936459390174124  0.34114437984758433  1.0000
  H   H128      1.0  0.49364712415226814  0.34114065368544294  0.515176854085439  1.0000
  H   H129      1.0  0.3411484534684348  0.5151739610301149  0.49364770911326883  1.0000
  H   H130      1.0  0.48482170915327316  0.5063585882514232  0.6588597012812087  1.0000
  H   H131      1.0  0.506355829091426  0.6588588763595453  0.4848214514754189  1.0000
  H   H132      1.0  0.6588529679075846  0.48482674755969424  0.5063533879714653  1.0000
  H   H133      1.0  0.48083799102945324  0.3120691220307065  0.3327510625751132  1.0000
  H   H134      1.0  0.3120679797528468  0.3327590405885773  0.4808316741825108  1.0000
  H   H135      1.0  0.3327546174406991  0.480840484244453  0.31206258902759026  1.0000
  H   H136      1.0  0.5191634274798106  0.6879396132046125  0.6672440080397806  1.0000
  H   H137      1.0  0.6879372602460592  0.6672427252850569  0.5191660452980075  1.0000
  H   H138      1.0  0.6672498634743745  0.5191571330741099  0.6879365395653778  1.0000
  H   H139      1.0  0.5924829976583582  0.31159296664837655  0.3455308672692253  1.0000
  H   H140      1.0  0.31158631800580144  0.3455281809654877  0.5924860221527553  1.0000
  H   H141      1.0  0.3455362495653204  0.5924869576497899  0.311588553666617  1.0000
  H   H142      1.0  0.4075176589752658  0.6884138070936671  0.6544653518947855  1.0000
  H   H143      1.0  0.6884189247849195  0.6544713978463504  0.4075119578910884  1.0000
  H   H144      1.0  0.6544644072352952  0.4075161664733927  0.6884111865084676  1.0000
  C   C1        1.0  0.41490332048084605  0.32395626768802543  0.11413576841951575  1.0000
  C   C2        1.0  0.3239617599025664  0.11412982120223356  0.4148954215677136  1.0000
  C   C3        1.0  0.11413345512747239  0.4148932894461126  0.3239537713983934  1.0000
  C   C4        1.0  0.5850942855072746  0.6760441168318753  0.8858657531574889  1.0000
  C   C5        1.0  0.6760442465943157  0.8858695310734035  0.5851023319343797  1.0000
  C   C6        1.0  0.8858664451220832  0.5851049587142186  0.676046362336848  1.0000
  C   C7        1.0  0.2940128503784507  0.4978041221788132  0.09509409484922322  1.0000
  C   C8        1.0  0.49780526742444664  0.09509434745098844  0.2940083390410138  1.0000
  C   C9        1.0  0.09507715473523598  0.2940036900593341  0.4978184459934667  1.0000
  C   C10       1.0  0.7059847530769119  0.5021969897488747  0.9049084422800745  1.0000
  C   C11       1.0  0.5021984535375736  0.9049013103096826  0.7059906152129966  1.0000
  C   C12       1.0  0.9049242738879357  0.7059941059962755  0.5021805732142254  1.0000
  C   C13       1.0  0.2881950638505941  0.6081707620518486  0.029397698871207516  1.0000
  C   C14       1.0  0.6081755120019495  0.029409858162267752  0.2881895003656253  1.0000
  C   C15       1.0  0.029368431450514296  0.28820473219106896  0.6081808921619256  1.0000
  C   C16       1.0  0.7118010147252035  0.39183007554046184  0.9706042757893057  1.0000
  C   C17       1.0  0.39182897083571083  0.9705877610916712  0.7118083053392681  1.0000
  C   C18       1.0  0.9706322303235597  0.711794747151693  0.3918190618040284  1.0000
  C   C19       1.0  0.39834685389205754  0.7243166097899235  0.9393685272306556  1.0000
  C   C20       1.0  0.7243181255699938  0.9393827269422915  0.3983450951653893  1.0000
  C   C21       1.0  0.9393589896560215  0.39835305980339797  0.724323186085151  1.0000
  C   C22       1.0  0.6016507543697642  0.2756845069761982  0.06063070267843783  1.0000
  C   C23       1.0  0.275687880224659  0.060615164711649155  0.6016545958963633  1.0000
  C   C24       1.0  0.06064091059353421  0.60164518835694  0.27567694765009776  1.0000
  C   C25       1.0  0.4850360601893442  0.7690244086667802  0.013994424236557423  1.0000
  C   C26       1.0  0.7690304634392647  0.013992274455588921  0.4850445763627959  1.0000
  C   C27       1.0  0.013989334738056402  0.4850412832228983  0.7690280704300605  1.0000
  C   C28       1.0  0.5149592581743364  0.23097592902163916  0.9860060999693802  1.0000
  C   C29       1.0  0.23096943331623268  0.9860067001448415  0.5149572343687793  1.0000
  C   C30       1.0  0.9860098031177386  0.5149579227521813  0.23097065962306845  1.0000
  C   C31       1.0  0.40771484718826667  0.8722175181720787  0.023411043418434408  1.0000
  C   C32       1.0  0.8722255199614822  0.02340956456232863  0.40772522314741605  1.0000
  C   C33       1.0  0.023410000758218506  0.4077163438103142  0.8722208617700743  1.0000
  C   C34       1.0  0.592278944983427  0.12778181390243765  0.9765905485425961  1.0000
  C   C35       1.0  0.12777284668192831  0.9765942401371676  0.5922745352088938  1.0000
  C   C36       1.0  0.9765906619771486  0.5922831365001288  0.12777843075183865  1.0000
  C   C37       1.0  0.4114794413290213  0.9024086336633631  0.1057243153364665  1.0000
  C   C38       1.0  0.9024112495877573  0.10573058305514148  0.4114816160258811  1.0000
  C   C39       1.0  0.105724003941738  0.41148119003501193  0.9024095745382468  1.0000
  C   C40       1.0  0.588517406018454  0.09759052257717125  0.8942754016777101  1.0000
  C   C41       1.0  0.09758788076182162  0.894272995108146  0.5885179157886711  1.0000
  C   C42       1.0  0.8942774218896188  0.5885187930823932  0.09758918410611984  1.0000
  C   C43       1.0  0.33187679572850465  0.003358304946871725  0.12002603876484845  1.0000
  C   C44       1.0  0.0033603802922642007  0.1200335650304822  0.331877364685802  1.0000
  C   C45       1.0  0.12003506067262042  0.33187422941970374  0.003360391735491018  1.0000
  C   C46       1.0  0.6681215803437084  0.9966411294997786  0.8799715949419492  1.0000
  C   C47       1.0  0.9966395120999537  0.8799683250072119  0.6681245395906927  1.0000
  C   C48       1.0  0.8799671332281848  0.6681226117242288  0.9966380468221984  1.0000
  C   C49       1.0  0.3362153865957538  0.031012761696288704  0.20369092679192843  1.0000
  C   C50       1.0  0.031015341260726404  0.2036906395711426  0.33622018026193956  1.0000
  C   C51       1.0  0.2036971736187638  0.33621881233943174  0.031009174048527724  1.0000
  C   C52       1.0  0.6637845144480891  0.9689891370505991  0.7963050244882054  1.0000
  C   C53       1.0  0.9689837892558515  0.7963092889732764  0.6637828725636793  1.0000
  C   C54       1.0  0.7963042543942365  0.6637797130593411  0.9689895378233757  1.0000
  C   C55       1.0  0.5270166401438346  0.48611643151656375  0.1988586582703391  1.0000
  C   C56       1.0  0.4861057402676535  0.19885734761618323  0.5270242843865773  1.0000
  C   C57       1.0  0.19886278910736618  0.5270194258975563  0.4861142206426195  1.0000
  C   C58       1.0  0.47296951199027143  0.5138829730520982  0.8011494283357974  1.0000
  C   C59       1.0  0.5138888261094793  0.8011476081504014  0.4729640392417452  1.0000
  C   C60       1.0  0.8011347996866788  0.47299116071739195  0.5138889512296884  1.0000
  C   C61       1.0  0.4812664481122654  0.4609702394866558  0.31521759644090247  1.0000
  C   C62       1.0  0.4609695489803727  0.31521448995673745  0.4812685161621246  1.0000
  C   C63       1.0  0.315219133550265  0.48126340805246315  0.4609748774468798  1.0000
  C   C64       1.0  0.5187349681982313  0.5390319239187276  0.6847855317484175  1.0000
  C   C65       1.0  0.5390334026918494  0.6847857684637264  0.5187301435069854  1.0000
  C   C66       1.0  0.6847792295070363  0.5187389331222648  0.5390288028012049  1.0000
  C   C67       1.0  0.5087194900196437  0.34478716674797744  0.36483134184983607  1.0000
  C   C68       1.0  0.34478508239982386  0.36483115853551595  0.5087211730805308  1.0000
  C   C69       1.0  0.3648336169884203  0.5087208744312764  0.34478612642802614  1.0000
  C   C70       1.0  0.49128269454442375  0.6552162346136398  0.6351669764619104  1.0000
  C   C71       1.0  0.6552171024233006  0.6351707831720932  0.49127842134683414  1.0000
  C   C72       1.0  0.6351662754037977  0.4912810156064182  0.6552157778484682  1.0000
  N   N1        1.0  0.38942845862084136  0.42997050692788735  0.04766725614317119  1.0000
  N   N2        1.0  0.42997268820477064  0.047664506387960236  0.38942373554805687  1.0000
  N   N3        1.0  0.047660668904889306  0.3894212030426303  0.4299711793904136  1.0000
  N   N4        1.0  0.6105699053977603  0.5700318352145286  0.9523357626608728  1.0000
  N   N5        1.0  0.5700310262123267  0.952335524528607  0.6105753590233364  1.0000
  N   N6        1.0  0.952339995050828  0.6105768185814993  0.5700287278030771  1.0000
  N   N7        1.0  0.37813191402813834  0.6300160376973167  0.020605478409692044  1.0000
  N   N8        1.0  0.6300178785189486  0.020617011697837098  0.37813005209211065  1.0000
  N   N9        1.0  0.020592193091658804  0.3781376913379759  0.63002615128255  1.0000
  N   N10       1.0  0.6218649282538138  0.36998457335878493  0.9793962697090705  1.0000
  N   N11       1.0  0.36998660239613196  0.9793806056207331  0.6218690765008573  1.0000
  N   N12       1.0  0.9794084683313  0.6218610576939413  0.36997477146322677  1.0000
  N   N13       1.0  0.4884736430446779  0.7415541666396238  0.9304892806189429  1.0000
  N   N14       1.0  0.7415561212473705  0.9304927132853396  0.48847813876093915  1.0000
  N   N15       1.0  0.9304823488389146  0.48847977470464354  0.7415614744359971  1.0000
  N   N16       1.0  0.5115232018620972  0.2584479069735508  0.06950920705207855  1.0000
  N   N17       1.0  0.25844835713494524  0.06950563144101808  0.5115220053843146  1.0000
  N   N18       1.0  0.0695167892759372  0.5115179716164278  0.2584385317327503  1.0000
  O   O1        1.0  0.4887718016896585  0.45980900561768595  0.15541374368894606  1.0000
  O   O2        1.0  0.4597610795171648  0.15541685592710755  0.48880807790782654  1.0000
  O   O3        1.0  0.15542389361420558  0.4887589867790609  0.4598123206849251  1.0000
  O   O4        1.0  0.5112257961649506  0.5401884508850044  0.8445962831156565  1.0000
  O   O5        1.0  0.5402365254347217  0.8445893672088189  0.5111883392067044  1.0000
  O   O6        1.0  0.8445752354229655  0.5112438601056866  0.5401888413534974  1.0000
  O   O7        1.0  0.5963854597306978  0.5293369077762121  0.1541423657489889  1.0000
  O   O8        1.0  0.5293581196621772  0.1541377741685822  0.5963746382479798  1.0000
  O   O9        1.0  0.15414723403079478  0.5963890859725112  0.5293258571116297  1.0000
  O   O10       1.0  0.40361137461898267  0.4706731847409671  0.8458553870045051  1.0000
  O   O11       1.0  0.4706494198306714  0.8458567509110607  0.4036231832972561  1.0000
  O   O12       1.0  0.8458519010331854  0.40361230706435713  0.47067261237817337  1.0000
