data_image0
_chemical_formula_structural       Zn4H48C40N16O32
_chemical_formula_sum              "Zn4 H48 C40 N16 O32"
_cell_length_a       7.348150816
_cell_length_b       11.877607485
_cell_length_c       19.348
_cell_angle_alpha    90.0
_cell_angle_beta     90.0
_cell_angle_gamma    90.0

_space_group_name_H-M_alt    "P 1"
_space_group_IT_number       1

loop_
  _space_group_symop_operation_xyz
  'x, y, z'

loop_
  _atom_site_type_symbol
  _atom_site_label
  _atom_site_symmetry_multiplicity
  _atom_site_fract_x
  _atom_site_fract_y
  _atom_site_fract_z
  _atom_site_occupancy
  Zn  Zn1       1.0  0.4999992640325246  0.4999996849112947  5.168492834e-07  1.0000
  Zn  Zn2       1.0  0.5000006249191244  0.9999993698225821  0.5000005168492834  1.0000
  Zn  Zn3       1.0  0.0  0.9999993698225821  0.9999994831507165  1.0000
  Zn  Zn4       1.0  1.3608865999e-06  0.5000013687520805  0.5  1.0000
  H   H1        1.0  0.4586841076616253  0.2532235556528022  0.0435559230928249  1.0000
  H   H2        1.0  0.4586854685482251  0.24677444541769938  0.4564425263593108  1.0000
  H   H3        1.0  0.041313795484299504  0.753224082484486  0.9564435600578848  1.0000
  H   H4        1.0  0.041313795484299504  0.7467758141697871  0.5435564399421153  1.0000
  H   H5        1.0  0.5413144204034239  0.7467749722493906  0.9564430432086013  1.0000
  H   H6        1.0  0.5413144204034239  0.7532232405640897  0.5435564399421153  1.0000
  H   H7        1.0  0.9586847325807497  0.24677444541769938  0.0435569567913987  1.0000
  H   H8        1.0  0.9586860934673568  0.2532269233343811  0.4564435600578847  1.0000
  H   H9        1.0  0.455281891154911  0.1401182857828687  0.149471263179656  1.0000
  H   H10       1.0  0.4552805302683112  0.3598797152876258  0.3505277031217701  1.0000
  H   H11       1.0  0.0447241773106271  0.6401188126145597  0.8505277031217702  1.0000
  H   H12       1.0  0.0447228164240201  0.8598810840397134  0.6494717800289465  1.0000
  H   H13       1.0  0.5447139151369313  0.8598794001989203  0.8505282199710534  1.0000
  H   H14       1.0  0.544719358683345  0.6401179706941633  0.6494717800289465  1.0000
  H   H15       1.0  0.9552825160740426  0.3598822410488154  0.149471263179656  1.0000
  H   H16       1.0  0.9552797943008359  0.1401208115440582  0.3505282199710535  1.0000
  H   H17       1.0  0.5635023155735936  0.44666402781031417  0.2642195575770074  1.0000
  H   H18       1.0  0.5635023155735936  0.0533322894193944  0.2357794087244187  1.0000
  H   H19       1.0  0.9364954765239802  0.9466637127216015  0.7357783750258449  1.0000
  H   H20       1.0  0.9364900329775736  0.553331974330689  0.7642205912755813  1.0000
  H   H21       1.0  0.4364975733780554  0.5533311324102925  0.7357804424229926  1.0000
  H   H22       1.0  0.4364975733780554  0.9466653965623947  0.7642190407277241  1.0000
  H   H23       1.0  0.0635044124276689  0.0533373409417734  0.2642211081248718  1.0000
  H   H24       1.0  0.0635139386338892  0.4466682374122896  0.23578095927227588  1.0000
  H   H25       1.0  0.5510842253240966  0.5484421006693978  0.1521661153607639  1.0000
  H   H26       1.0  0.5510815035508898  0.9515552702236789  0.3478344014885266  1.0000
  H   H27       1.0  0.9489149276600772  0.04844494151929979  0.8478323340913789  1.0000
  H   H28       1.0  0.9489054014538638  0.45155558531239137  0.6521661153607639  1.0000
  H   H29       1.0  0.44891838540075923  0.4515547433919948  0.84783491833781  1.0000
  H   H30       1.0  0.44891838540075923  0.048444099598903285  0.65216508166219  1.0000
  H   H31       1.0  0.051084961291572  0.9515577959848682  0.1521671490593377  1.0000
  H   H32       1.0  0.051099931044206  0.5484446264305872  0.3478344014885266  1.0000
  H   H33       1.0  0.6003877860527567  0.2972399958879421  0.939909551374818  1.0000
  H   H34       1.0  0.6003864251661568  0.202757163262163  0.5600919991730393  1.0000
  H   H35       1.0  0.8996168104778306  0.7972388388788402  0.0600919991730393  1.0000
  H   H36       1.0  0.8996168104778306  0.70275937393464  0.43990748397767027  1.0000
  H   H37       1.0  0.3996134637854993  0.70275937393464  0.0600925160223298  1.0000
  H   H38       1.0  0.3996161855587061  0.7972422065604263  0.43990800082696063  1.0000
  H   H39       1.0  0.1003844393604254  0.20276137286413837  0.9399080008269607  1.0000
  H   H40       1.0  0.1003844393604254  0.2972425216491317  0.5600930328716132  1.0000
  H   H41       1.0  0.7796424084717657  0.3721507050626371  0.93826080215009  1.0000
  H   H42       1.0  0.7796451302449725  0.1278489798486575  0.5617402315484838  1.0000
  H   H43       1.0  0.7203594662856219  0.8721495480535353  0.06174074839776719  1.0000
  H   H44       1.0  0.720356744512415  0.6278503486007381  0.4382602853008066  1.0000
  H   H45       1.0  0.2203574804798905  0.6278486647599449  0.06174126524705059  1.0000
  H   H46       1.0  0.2203561195932835  0.8721495480535353  0.4382602853008066  1.0000
  H   H47       1.0  0.2796404226660343  0.1278506636894505  0.938259768451516  1.0000
  H   H48       1.0  0.279644505325841  0.3721498631422406  0.5617407483977672  1.0000
  C   C1        1.0  0.4811346539461141  0.2934370414581835  0.0933915650196369  1.0000
  C   C2        1.0  0.4811373757193138  0.20656095961231097  0.4066068844324988  1.0000
  C   C3        1.0  0.0188618883132108  0.7934392521306677  0.906605850733925  1.0000
  C   C4        1.0  0.0188564447667972  0.7065606445236056  0.5933925987182107  1.0000
  C   C5        1.0  0.5188597914591284  0.7065606445236056  0.9066079181310726  1.0000
  C   C6        1.0  0.5188638741189351  0.7934384102102711  0.5933925987182107  1.0000
  C   C7        1.0  0.9811380006384454  0.20656264345310396  0.0933925987182107  1.0000
  C   C8        1.0  0.9811393615250452  0.2934404091397695  0.4066074012817893  1.0000
  C   C9        1.0  0.4806529000887636  0.23002191337357655  0.15372234856315709  1.0000
  C   C10       1.0  0.4806542609753635  0.2699777715377181  0.3462781682861262  1.0000
  C   C11       1.0  0.0193436421705613  0.7300207563644676  0.8462781682861263  1.0000
  C   C12       1.0  0.019340920397354504  0.769978298369402  0.6537207980152999  1.0000
  C   C13       1.0  0.5193429062030859  0.7699774564490055  0.8462786851354167  1.0000
  C   C14       1.0  0.5193442670896857  0.7300215982848639  0.6537218317138738  1.0000
  C   C15       1.0  0.9806576076676947  0.2699802972989076  0.1537213148645833  1.0000
  C   C16       1.0  0.980653525007888  0.2300227552939731  0.3462776514368429  1.0000
  C   C17       1.0  0.5098888269742332  0.282684034157576  0.21751033698573247  1.0000
  C   C18       1.0  0.5098901878608331  0.2173131249925291  0.282489146164977  1.0000
  C   C19       1.0  0.9901076042367407  0.7826854029096565  0.7824886293156936  1.0000
  C   C20       1.0  0.9901035215769343  0.7173136518242129  0.7175098201364492  1.0000
  C   C21       1.0  0.490109701090816  0.717315335665006  0.7824901798635508  1.0000
  C   C22       1.0  0.4901083402042161  0.7826854029096565  0.717510853835023  1.0000
  C   C23       1.0  0.0098909238283085  0.21731817651490803  0.21751033698573247  1.0000
  C   C24       1.0  0.0098895629417086  0.28268655991876557  0.2824901798635508  1.0000
  C   C25       1.0  0.5376209741637368  0.39983388961097427  0.2167717593549696  1.0000
  C   C26       1.0  0.5376209741637368  0.10016411145952017  0.2832287574943138  1.0000
  C   C27       1.0  0.96237545704723  0.8998327326018722  0.7832277237957399  1.0000
  C   C28       1.0  0.9623686526142167  0.6001663221320044  0.7167712425056862  1.0000
  C   C29       1.0  0.46237755390131247  0.6001646382912112  0.7832282406450304  1.0000
  C   C30       1.0  0.4623761930147054  0.8998335745222688  0.7167712425056862  1.0000
  C   C31       1.0  0.037625792791026  0.1001683210615028  0.2167712425056862  1.0000
  C   C32       1.0  0.0376325972240394  0.3998355734517672  0.2832292743436042  1.0000
  C   C33       1.0  0.5338118525628275  0.45742208663330075  0.1542691751085385  1.0000
  C   C34       1.0  0.5338118525628275  0.0425767563575974  0.3457308248914615  1.0000
  C   C35       1.0  0.9661845786481464  0.9574217715445882  0.8457292743436042  1.0000
  C   C36       1.0  0.96618049598834  0.5425764412688849  0.6542686582592552  1.0000
  C   C37       1.0  0.4661880363888287  0.5425764412688849  0.8457313417407448  1.0000
  C   C38       1.0  0.4661866755022217  0.9574217715445882  0.6542691751085385  1.0000
  C   C39       1.0  0.0338139494169027  0.0425784401983904  0.1542696919578219  1.0000
  C   C40       1.0  0.033823475623123  0.4574254543148868  0.3457313417407519  1.0000
  N   N1        1.0  0.5066417515402293  0.4055766286336393  0.0931915443456717  1.0000
  N   N2        1.0  0.5066403906536294  0.0944222143572517  0.406807938805045  1.0000
  N   N3        1.0  0.9933560405573445  0.9055788393061233  0.9068074219557545  1.0000
  N   N4        1.0  0.9933533187841448  0.5944210573481499  0.593192061194955  1.0000
  N   N5        1.0  0.4933581374114269  0.5944202154277533  0.9068089725036187  1.0000
  N   N6        1.0  0.4933567765248199  0.9055779973857268  0.5931910274963812  1.0000
  N   N7        1.0  0.0066411266210977  0.09442305627764817  0.0931925780442455  1.0000
  N   N8        1.0  0.006649291940718201  0.4055791543948288  0.4068084556543283  1.0000
  N   N9        1.0  0.1211148249791165  0.4163296359342539  0.9428493901178427  1.0000
  N   N10       1.0  0.1211175467523233  0.0836734166586268  0.557152677279305  1.0000
  N   N11       1.0  0.3788857999400079  0.9163293208455413  0.0571500930328739  1.0000
  N   N12       1.0  0.3788844390534082  0.5836756273311038  0.4428483564192689  1.0000
  N   N13       1.0  0.8788864248591395  0.5836697338883283  0.0571506098821573  1.0000
  N   N14       1.0  0.8788837030859327  0.9163259531639625  0.44284783956997836  1.0000
  N   N15       1.0  0.6211154498982481  0.0836708908974373  0.9428499069671261  1.0000
  N   N16       1.0  0.6211154498982481  0.41632795209346085  0.5571506098821573  1.0000
  O   O1        1.0  0.2729040339827478  0.3867790719470818  0.9691973330576786  1.0000
  O   O2        1.0  0.2729108384157612  0.11322566448658478  0.5308088691337574  1.0000
  O   O3        1.0  0.2270952300497768  0.8867787568583694  0.0308021500930309  1.0000
  O   O4        1.0  0.2270925082765771  0.6132253493978794  0.4691931982633832  1.0000
  O   O5        1.0  0.7270958549689084  0.6132211397958969  0.030803183791604696  1.0000
  O   O6        1.0  0.7270931331957016  0.8867753891767904  0.469191647715526  1.0000
  O   O7        1.0  0.7729046589018722  0.1132206129642128  0.969197849906969  1.0000
  O   O8        1.0  0.7729046589018722  0.3867790719470818  0.5308021500930308  1.0000
  O   O9        1.0  0.0077883540271628  0.3376403880212918  0.9281791399627863  1.0000
  O   O10       1.0  0.0077883540271628  0.1623635064919782  0.5718198263386398  1.0000
  O   O11       1.0  0.4922122708919617  0.8376392310121901  0.0718198263386398  1.0000
  O   O12       1.0  0.49220954911876197  0.6623648752440657  0.4281801736613602  1.0000
  O   O13       1.0  0.9922115349244862  0.6623598237216868  0.0718208600372137  1.0000
  O   O14       1.0  0.9922101740378864  0.837635863330604  0.4281801736613602  1.0000
  O   O15       1.0  0.5077889789462944  0.16236182265118518  0.9281791399627863  1.0000
  O   O16       1.0  0.5077903398328942  0.33763702033970583  0.5718198263386398  1.0000
  O   O17       1.0  0.0834060181053289  0.5166486607466823  0.9313908414306411  1.0000
  O   O18       1.0  0.0834060181053289  0.9833554455095737  0.5686091585693589  1.0000
  O   O19       1.0  0.4165946068137956  0.0166472919945946  0.0686091585693589  1.0000
  O   O20       1.0  0.4165946068137956  0.4833566025186755  0.4313913582799245  1.0000
  O   O21       1.0  0.9165952317329271  0.4833515509962964  0.0686086417200755  1.0000
  O   O22       1.0  0.916596592619527  0.0166447662334051  0.4313913582799245  1.0000
  O   O23       1.0  0.5834039212512536  0.983352919748384  0.9313913582799245  1.0000
  O   O24       1.0  0.5834039212512536  0.5166461349854927  0.5686086417200755  1.0000
  O   O25       1.0  0.6452698262092937  0.37596039485556076  0.9423253049410789  1.0000
  O   O26       1.0  0.6452711870958936  0.1240376062149338  0.5576746950589211  1.0000
  O   O27       1.0  0.8547320485480867  0.8759583959260622  0.057674695058921095  1.0000
  O   O28       1.0  0.8547306876614869  0.6240389749670213  0.44232530494107886  1.0000
  O   O29       1.0  0.3547300627423624  0.6240389749670213  0.0576757287574949  1.0000
  O   O30       1.0  0.3547300627423624  0.8759617636076483  0.4423258217903694  1.0000
  O   O31       1.0  0.1452692012901693  0.12404097389651977  0.9423258217903622  1.0000
  O   O32       1.0  0.145271923063369  0.3759620786963538  0.5576757287574949  1.0000
