data_image0
_chemical_formula_structural       Cu4H18C26I2N8
_chemical_formula_sum              "Cu4 H18 C26 I2 N8"
_cell_length_a       5.330995119871381
_cell_length_b       7.539338576538878
_cell_length_c       15.527741654103528
_cell_angle_alpha    89.99987342915313
_cell_angle_beta     89.9995349274542
_cell_angle_gamma    90.53724955089078

_space_group_name_H-M_alt    "P 1"
_space_group_IT_number       1

loop_
  _space_group_symop_operation_xyz
  'x, y, z'

loop_
  _atom_site_type_symbol
  _atom_site_label
  _atom_site_symmetry_multiplicity
  _atom_site_fract_x
  _atom_site_fract_y
  _atom_site_fract_z
  _atom_site_occupancy
  Cu  Cu1       1.0  0.9304482548413233  0.406859565831077  0.6499742658209016  1.0000
  Cu  Cu2       1.0  0.0695631265233345  0.5931307641625453  0.14997292383684882  1.0000
  Cu  Cu3       1.0  0.0695573052946301  0.5931318835710969  0.35002519604383037  1.0000
  Cu  Cu4       1.0  0.9304501479047643  0.40686859329537844  0.8500271820181522  1.0000
  H   H1        1.0  0.07459970688955049  0.5848251650043326  0.5380873140939996  1.0000
  H   H2        1.0  0.925404969676194  0.41517742468878543  0.0380887646437671  1.0000
  H   H3        1.0  0.9253966520686561  0.41517297901859257  0.4619115037708639  1.0000
  H   H4        1.0  0.0746026426667825  0.5848206440364052  0.9619145612643151  1.0000
  H   H5        1.0  0.5495940932928249  0.7816287926079398  0.3468866890197546  1.0000
  H   H6        1.0  0.4504283598551948  0.21836893839739702  0.8468904686980849  1.0000
  H   H7        1.0  0.45041893380291503  0.21836128022472684  0.6531121288258888  1.0000
  H   H8        1.0  0.5495922755273027  0.7816250633652685  0.1531089931412311  1.0000
  H   H9        1.0  0.8523713677774934  0.8916750425033231  0.4558781551276495  1.0000
  H   H10       1.0  0.14763222911190607  0.10833448595413839  0.9558817637492678  1.0000
  H   H11       1.0  0.14763415701654736  0.1083150805228499  0.5441219507468702  1.0000
  H   H12       1.0  0.8523626783161687  0.8916795871228019  0.04411512207888529  1.0000
  H   H13       1.0  0.763471687934391  0.8439066884125526  0.6133197713255356  1.0000
  H   H14       1.0  0.23652046964328113  0.15610773940538542  0.11332377732593808  1.0000
  H   H15       1.0  0.2365246710170368  0.15609145560963364  0.3866796905479859  1.0000
  H   H16       1.0  0.7634652012583699  0.8439117019155588  0.8866737525207994  1.0000
  H   H17       1.0  0.6389192070542647  0.828828473986839  0.74999857705491  1.0000
  H   H18       1.0  0.36106639314323263  0.17118831457987227  0.2500021728373625  1.0000
  C   C1        1.0  0.25131649902893116  0.6506871395861823  0.5216770023002866  1.0000
  C   C2        1.0  0.748690433839208  0.34931680200369186  0.021680395432433393  1.0000
  C   C3        1.0  0.748683575731441  0.3493096529632426  0.47832245956858077  1.0000
  C   C4        1.0  0.25130776530168214  0.6506800030892561  0.9783235744999103  1.0000
  C   C5        1.0  0.5156186698965683  0.7603569566432498  0.4152888501166386  1.0000
  C   C6        1.0  0.48439137272544025  0.23965130196130255  0.9152924899156145  1.0000
  C   C7        1.0  0.48438328045617135  0.239639823359667  0.5847086797233771  1.0000
  C   C8        1.0  0.5156126298682152  0.7603520973683758  0.0847056839244757  1.0000
  C   C9        1.0  0.6838399273188356  0.8217598891319966  0.477248612207532  1.0000
  C   C10       1.0  0.3161667942389669  0.17824293277371336  0.9772502969744536  1.0000
  C   C11       1.0  0.31616570348059975  0.1782342130199268  0.5227514936635842  1.0000
  C   C12       1.0  0.6838372790317209  0.8217631193072138  0.022747232854712293  1.0000
  C   C13       1.0  0.6338467653573331  0.7948151520258406  0.5641911678634628  1.0000
  C   C14       1.0  0.36615191168048966  0.20519404662401544  0.0641959804635306  1.0000
  C   C15       1.0  0.36614403754825275  0.20518568239309326  0.4358082940164677  1.0000
  C   C16       1.0  0.6338411201348889  0.7948200389971946  0.9358047694194482  1.0000
  C   C17       1.0  0.4106523415231535  0.7060643478412701  0.588116507257041  1.0000
  C   C18       1.0  0.5893474601930392  0.2939354981308854  0.0881166200053372  1.0000
  C   C19       1.0  0.5893532539275909  0.2939284279339062  0.4118848866325208  1.0000
  C   C20       1.0  0.4106489694083137  0.7060652986395582  0.9118847738918701  1.0000
  C   C21       1.0  0.3505311176098118  0.6723592996471978  0.6782449949160421  1.0000
  C   C22       1.0  0.6494631418559604  0.32764434144419846  0.17824744258312814  1.0000
  C   C23       1.0  0.6494768127764556  0.3276507064582432  0.3217557549471977  1.0000
  C   C24       1.0  0.3505277670346841  0.6723604720982481  0.8217539513193441  1.0000
  C   C25       1.0  0.47917171597739355  0.7385905836014287  0.749997609933132  1.0000
  C   C26       1.0  0.5208301990266547  0.26140487002474094  0.2500012079253295  1.0000
  I   I1        1.0  0.9725783791824367  0.11020456011218022  0.7500005786437284  1.0000
  I   I2        1.0  0.027403151875141408  0.8898003161770165  0.24999823923860015  1.0000
  N   N1        1.0  0.3005690673809339  0.6749716658380649  0.4372158153037517  1.0000
  N   N2        1.0  0.6994440175136702  0.3250272321718199  0.9372186500070327  1.0000
  N   N3        1.0  0.6994364574063353  0.32501845718735467  0.562784934579433  1.0000
  N   N4        1.0  0.3005598083433298  0.6749695352748761  0.0627853199166282  1.0000
  N   N5        1.0  0.15511856138307678  0.5679662599976112  0.7061245171934444  1.0000
  N   N6        1.0  0.8448842771126477  0.4320292954179339  0.2061261895497992  1.0000
  N   N7        1.0  0.8448889803438603  0.4320291559830523  0.2938736566476762  1.0000
  N   N8        1.0  0.15512138903547174  0.567966133110737  0.7938726283028714  1.0000
