data_image0
_chemical_formula_structural       Hg4H16C16N12Cl4O8
_chemical_formula_sum              "Hg4 H16 C16 N12 Cl4 O8"
_cell_length_a       6.844944348694734
_cell_length_b       8.148862846446278
_cell_length_c       13.399660456045345
_cell_angle_alpha    90.00024087483615
_cell_angle_beta     89.99975317556014
_cell_angle_gamma    110.62827788678912

_space_group_name_H-M_alt    "P 1"
_space_group_IT_number       1

loop_
  _space_group_symop_operation_xyz
  'x, y, z'

loop_
  _atom_site_type_symbol
  _atom_site_label
  _atom_site_symmetry_multiplicity
  _atom_site_fract_x
  _atom_site_fract_y
  _atom_site_fract_z
  _atom_site_occupancy
  Hg  Hg1       1.0  0.9999980642699029  0.49999632558076  0.5000002758626252  1.0000
  Hg  Hg2       1.0  3.6907311197999993e-06  5.237410874799998e-06  2.2388653562e-06  1.0000
  Hg  Hg3       1.0  0.999996900674638  0.5000054664976544  0.9999987662850671  1.0000
  Hg  Hg4       1.0  0.9999985986494051  0.9999989333065998  0.5000009138292967  1.0000
  H   H1        1.0  0.9226093880094692  0.6126316100491279  0.7308615777303373  1.0000
  H   H2        1.0  0.07738625381881556  0.8873697896161302  0.23086659918158867  1.0000
  H   H3        1.0  0.07738885404564405  0.38736463347798633  0.26913782650542833  1.0000
  H   H4        1.0  0.9226118638334027  0.11263302488242742  0.7691395216507928  1.0000
  H   H5        1.0  0.41805550975451666  0.4556310542373012  0.6342214195789565  1.0000
  H   H6        1.0  0.5819404559877481  0.044369895693797894  0.1342274495835838  1.0000
  H   H7        1.0  0.5819447483222361  0.5443664930588455  0.36577873094383057  1.0000
  H   H8        1.0  0.4180573203618536  0.9556355486700455  0.8657764323898292  1.0000
  H   H9        1.0  0.5769474367734089  0.44231794900545646  0.8050277960737802  1.0000
  H   H10       1.0  0.4230550677815188  0.057681193842355996  0.30503495314971474  1.0000
  H   H11       1.0  0.4230520461464735  0.5576743459868679  0.1949693692928847  1.0000
  H   H12       1.0  0.5769433911852316  0.9423189907815227  0.6949696751038063  1.0000
  H   H13       1.0  0.41357235999362985  0.4364732504935277  0.9096783798609567  1.0000
  H   H14       1.0  0.5864275524099724  0.06353562752277499  0.4096777323856742  1.0000
  H   H15       1.0  0.5864367373408399  0.5635347641713225  0.09032326324067702  1.0000
  H   H16       1.0  0.4135659749632766  0.936463268223136  0.5903261495840155  1.0000
  C   C1        1.0  0.06278197291548797  0.5799165815246781  0.7311326304782142  1.0000
  C   C2        1.0  0.9372174823062663  0.9200834859515156  0.23113585862633101  1.0000
  C   C3        1.0  0.9372157109015475  0.42007835078973704  0.2688667737564785  1.0000
  C   C4        1.0  0.06278668342515911  0.07992323984287712  0.7688680233417386  1.0000
  C   C5        1.0  0.31394080630644083  0.5012615938281684  0.6781450924698832  1.0000
  C   C6        1.0  0.6860644773352432  0.9987408069400773  0.17814683068299791  1.0000
  C   C7        1.0  0.6860675158735459  0.4987411685309767  0.32185281918806663  1.0000
  C   C8        1.0  0.31393286516964025  0.0012567552471481008  0.8218533198429939  1.0000
  C   C9        1.0  0.4910981734957786  0.5140090009565839  0.8445065935327636  1.0000
  C   C10       1.0  0.5089031315421692  0.9859942523435947  0.344511671060836  1.0000
  C   C11       1.0  0.5089086909030414  0.4859937688443381  0.15548982555164773  1.0000
  C   C12       1.0  0.49109532743172923  0.014005932274642403  0.6554907183299863  1.0000
  C   C13       1.0  0.6417037207478911  0.6940629534627404  0.8799687515096155  1.0000
  C   C14       1.0  0.35830477100454067  0.8059338702073476  0.3799736982829742  1.0000
  C   C15       1.0  0.3583043845228459  0.305935867797757  0.12002318984299623  1.0000
  C   C16       1.0  0.6416936879669775  0.19406631441277264  0.6200294373954166  1.0000
  N   N1        1.0  0.3315371544100073  0.5275531146380812  0.7768767130599203  1.0000
  N   N2        1.0  0.6684623498224339  0.9724445532910977  0.2768806614521253  1.0000
  N   N3        1.0  0.6684625454358083  0.4724431214397384  0.22312119859910956  1.0000
  N   N4        1.0  0.33153499267768183  0.027553008899879192  0.7231209816490036  1.0000
  N   N5        1.0  0.1738340738167922  0.5781958440102104  0.8115211112230654  1.0000
  N   N6        1.0  0.8261628517069111  0.9218033244603275  0.31152607873707444  1.0000
  N   N7        1.0  0.8261650677885581  0.4217990808567933  0.18847754672246714  1.0000
  N   N8        1.0  0.17383728197886228  0.07820079379787612  0.6884770569445068  1.0000
  N   N9        1.0  0.1445099500293168  0.5339035647152387  0.6473654346182729  1.0000
  N   N10       1.0  0.8554929560212441  0.9660960661016416  0.1473689585717253  1.0000
  N   N11       1.0  0.8554899667448269  0.46609661244620076  0.35263247704554607  1.0000
  N   N12       1.0  0.14450897676499605  0.03390541483634021  0.8526326845293897  1.0000
  Cl  Cl1       1.0  0.7617702976274074  0.23008861242312403  0.9376254596115814  1.0000
  Cl  Cl2       1.0  0.238231576610083  0.2699151391154543  0.43762311366739237  1.0000
  Cl  Cl3       1.0  0.23822580401509447  0.7699128982970009  0.062376183495935315  1.0000
  Cl  Cl4       1.0  0.76176576589242  0.7300824230736465  0.562377783146168  1.0000
  O   O1        1.0  0.762691011304362  0.6862664679768998  0.9515838570219088  1.0000
  O   O2        1.0  0.2373052361629604  0.8137373468014103  0.45159132665978063  1.0000
  O   O3        1.0  0.23730363257366344  0.31373505017185005  0.0484110694991031  1.0000
  O   O4        1.0  0.7626921063323806  0.1862602153933182  0.5484118090164785  1.0000
  O   O5        1.0  0.6389782998405805  0.8311822511514465  0.8389805773974218  1.0000
  O   O6        1.0  0.3610239400260653  0.6688196556901359  0.33899487006490153  1.0000
  O   O7        1.0  0.36103439574012697  0.16882048883726952  0.16100390107951065  1.0000
  O   O8        1.0  0.6389745189502207  0.33118052892622524  0.661006773038352  1.0000
