data_image0
_chemical_formula_structural       H60Pb4C20S8N4O16
_chemical_formula_sum              "H60 Pb4 C20 S8 N4 O16"
_cell_length_a       7.571119499542345
_cell_length_b       10.493940645611257
_cell_length_c       14.811171845925918
_cell_angle_alpha    89.99900644635396
_cell_angle_beta     101.56820447663644
_cell_angle_gamma    89.99948742089094

_space_group_name_H-M_alt    "P 1"
_space_group_IT_number       1

loop_
  _space_group_symop_operation_xyz
  'x, y, z'

loop_
  _atom_site_type_symbol
  _atom_site_label
  _atom_site_symmetry_multiplicity
  _atom_site_fract_x
  _atom_site_fract_y
  _atom_site_fract_z
  _atom_site_occupancy
  H   H1        1.0  0.2740200320438859  0.47988828763801916  0.48034909042656426  1.0000
  H   H2        1.0  0.7259639402216747  0.97988865412799  0.01963689498347063  1.0000
  H   H3        1.0  0.7259776817554167  0.5201086358484092  0.5196495604006656  1.0000
  H   H4        1.0  0.27403369110901815  0.0201015989170727  0.9803556710773405  1.0000
  H   H5        1.0  0.17295098607201703  0.3237880191699105  0.48274373953017846  1.0000
  H   H6        1.0  0.8270508303121176  0.8237925691437199  0.017258769945385697  1.0000
  H   H7        1.0  0.8270481675469269  0.6762136688819353  0.5172618057731738  1.0000
  H   H8        1.0  0.17295494502931766  0.1761967308852519  0.9827386542996022  1.0000
  H   H9        1.0  0.41010735194643644  0.3466170295201607  0.5282639620447753  1.0000
  H   H10       1.0  0.5898858184211732  0.846617672830142  0.9717259817876351  1.0000
  H   H11       1.0  0.5898917375090633  0.653381799797195  0.4717368506460032  1.0000
  H   H12       1.0  0.41011720560788933  0.15336781553695997  0.028267118730241188  1.0000
  H   H13       1.0  0.05017823295904831  0.012536003026127698  0.20447333595589604  1.0000
  H   H14       1.0  0.9498129676731609  0.5125310586682517  0.2955245373280704  1.0000
  H   H15       1.0  0.9498126573881506  0.9874723557349939  0.7955185619476379  1.0000
  H   H16       1.0  0.0501848928015534  0.48747062933967555  0.7044849309118459  1.0000
  H   H17       1.0  0.1269597024332256  0.1750773022589982  0.19438502538994837  1.0000
  H   H18       1.0  0.8730327321597071  0.6750649732387757  0.30562176636063026  1.0000
  H   H19       1.0  0.8730339392090017  0.82493677402573  0.805611196227211  1.0000
  H   H20       1.0  0.12696914532252626  0.3249338559837439  0.6943860744458232  1.0000
  H   H21       1.0  0.2811094346369528  0.0428690785783274  0.19542957224695096  1.0000
  H   H22       1.0  0.7188770870672839  0.5428663271233845  0.30456138619786793  1.0000
  H   H23       1.0  0.7188827946867419  0.9571411860469394  0.8045617831585401  1.0000
  H   H24       1.0  0.28111926934633397  0.4571363139624792  0.6954364548926647  1.0000
  H   H25       1.0  0.8472911256700043  0.8997962631797808  0.41491047040194207  1.0000
  H   H26       1.0  0.1527079229510164  0.39980157533189936  0.08508812563550089  1.0000
  H   H27       1.0  0.15270788123885376  0.10020447207405427  0.5850842574617515  1.0000
  H   H28       1.0  0.8472898732995731  0.6002039244576309  0.9149166099446474  1.0000
  H   H29       1.0  0.6412271905737724  0.9162087095163043  0.4585407852641338  1.0000
  H   H30       1.0  0.3587688080295663  0.41622045636243843  0.041453254748688585  1.0000
  H   H31       1.0  0.35877453116715685  0.0837739200225727  0.5414555621201271  1.0000
  H   H32       1.0  0.6412343258738531  0.5837831375915741  0.9585479587259014  1.0000
  H   H33       1.0  0.6315026399957446  0.8831034958963428  0.33762449597175237  1.0000
  H   H34       1.0  0.3685061036899313  0.38310269195786617  0.16237189108920083  1.0000
  H   H35       1.0  0.3685058040940916  0.1168934275927072  0.6623711671597758  1.0000
  H   H36       1.0  0.6314997815258607  0.6169047136580089  0.8376336461124935  1.0000
  H   H37       1.0  0.9350474000904684  0.21393018669810712  0.5315683522223721  1.0000
  H   H38       1.0  0.0649602996213332  0.7139227972954102  0.9684233193677582  1.0000
  H   H39       1.0  0.0649530466553614  0.7860734072594086  0.4684332701309301  1.0000
  H   H40       1.0  0.9350481811395283  0.28607507909129737  0.03157504811862568  1.0000
  H   H41       1.0  0.840735952102811  0.3541683785684952  0.4682665853143602  1.0000
  H   H42       1.0  0.1592408428731105  0.8541701294508216  0.03171821542556329  1.0000
  H   H43       1.0  0.15925904702046265  0.6458294978772087  0.5317304461136416  1.0000
  H   H44       1.0  0.8407527897118925  0.14583155874088047  0.9682773301888332  1.0000
  H   H45       1.0  0.7100157185785889  0.2622387282605416  0.5354882996137816  1.0000
  H   H46       1.0  0.2899912488398328  0.762239540077978  0.9645135058315117  1.0000
  H   H47       1.0  0.28998476486426467  0.7377629598020121  0.46451602711460527  1.0000
  H   H48       1.0  0.7100172593787732  0.23776405386904295  0.03548688988562528  1.0000
  H   H49       1.0  0.823221950744994  0.19852938215144894  0.21111673371915873  1.0000
  H   H50       1.0  0.17678204365822126  0.6985447388326449  0.2888801110106129  1.0000
  H   H51       1.0  0.17677713871917433  0.8014684942350384  0.7888840789783558  1.0000
  H   H52       1.0  0.8232170640417634  0.3014645727076939  0.7111220537868019  1.0000
  H   H53       1.0  0.5985518113264161  0.13265145199026307  0.18424172109545364  1.0000
  H   H54       1.0  0.4014453386921204  0.6326504351874008  0.315758634695328  1.0000
  H   H55       1.0  0.4014418854046937  0.8673550007976657  0.8157585571180377  1.0000
  H   H56       1.0  0.5985470741080403  0.36735125289394677  0.6842462425788368  1.0000
  H   H57       1.0  0.6348916355291717  0.2975889267827228  0.2210130540950458  1.0000
  H   H58       1.0  0.36512136950142354  0.7975909458737503  0.27898548622138  1.0000
  H   H59       1.0  0.3651115992520672  0.7024137141490739  0.7789955963806745  1.0000
  H   H60       1.0  0.6348859006011692  0.20241169504865295  0.7210228889814657  1.0000
  Pb  Pb1       1.0  0.7128946886314793  0.13684741351302418  0.3713541522677274  1.0000
  Pb  Pb2       1.0  0.2871118954327798  0.6368593238408805  0.12865248802563656  1.0000
  Pb  Pb3       1.0  0.28711121508887066  0.8631418863996887  0.6286527372428521  1.0000
  Pb  Pb4       1.0  0.7128845892557225  0.36315475229918087  0.8713548182495996  1.0000
  C   C1        1.0  0.2940598393867404  0.3768697789937576  0.4760646259582373  1.0000
  C   C2        1.0  0.7059314732285099  0.8768711202276054  0.023928760233729866  1.0000
  C   C3        1.0  0.7059378927437409  0.6231280974069334  0.5239353770430453  1.0000
  C   C4        1.0  0.2940729080822209  0.12312008571052496  0.9760651499399341  1.0000
  C   C5        1.0  0.16415361072613877  0.079116723832712  0.2206962732174418  1.0000
  C   C6        1.0  0.8358404413496316  0.5791119448378693  0.27930241099146247  1.0000
  C   C7        1.0  0.8358386461073193  0.9208935407676435  0.7792971104592465  1.0000
  C   C8        1.0  0.16416137191713887  0.4208897432353849  0.720700697161966  1.0000
  C   C9        1.0  0.7058226642835592  0.9290604510380902  0.39970080034274247  1.0000
  C   C10       1.0  0.2941744945667891  0.42906544866598745  0.10029657193220487  1.0000
  C   C11       1.0  0.29417771835949935  0.070933613668835  0.6002960894451803  1.0000
  C   C12       1.0  0.7058232833786277  0.5709362394166673  0.8997068114941055  1.0000
  C   C13       1.0  0.8131114336222964  0.25985468403288786  0.49341182123734467  1.0000
  C   C14       1.0  0.1868820079953792  0.759855922530633  0.0065832206398682  1.0000
  C   C15       1.0  0.18688362050317409  0.7401450982247368  0.5065892667195724  1.0000
  C   C16       1.0  0.8131237855558665  0.24014767144479524  0.9934155556847981  1.0000
  C   C17       1.0  0.6882147122459229  0.20080140615743153  0.226667403966175  1.0000
  C   C18       1.0  0.31179200141882296  0.7008077127727715  0.2733344085244979  1.0000
  C   C19       1.0  0.3117857620356758  0.7991993289825527  0.7733362466785606  1.0000
  C   C20       1.0  0.6882084819806948  0.2991987399441385  0.726669918170181  1.0000
  S   S1        1.0  0.33925133110764694  0.34543380527327366  0.3650542464347735  1.0000
  S   S2        1.0  0.6607392877624391  0.8454422443062343  0.13494553571252504  1.0000
  S   S3        1.0  0.6607464193713496  0.6545631181799435  0.6349471087540548  1.0000
  S   S4        1.0  0.3392691838284917  0.15455563208877268  0.8650521556834574  1.0000
  S   S5        1.0  0.22523719825086627  0.08831367938242349  0.3426709881150245  1.0000
  S   S6        1.0  0.7747621248718276  0.5883227548619914  0.1573314807405097  1.0000
  S   S7        1.0  0.7747564251642131  0.9116880088175775  0.6573238814089776  1.0000
  S   S8        1.0  0.2252464383836497  0.41167893317346227  0.8426729715325079  1.0000
  N   N1        1.0  0.38722485478110263  0.19351931961447377  0.3650764370909769  1.0000
  N   N2        1.0  0.6127698487271543  0.6935261568726006  0.13492359988960348  1.0000
  N   N3        1.0  0.6127661181734111  0.8064804626940684  0.6349215456868291  1.0000
  N   N4        1.0  0.3872400260297297  0.3064736253284294  0.8650782816411392  1.0000
  O   O1        1.0  0.5055437527652274  0.4116534714459874  0.35907924735588637  1.0000
  O   O2        1.0  0.4944496323422171  0.9116704399702443  0.14091458986185754  1.0000
  O   O3        1.0  0.4944485409646404  0.5883329698493682  0.6409168408509416  1.0000
  O   O4        1.0  0.5055574543792571  0.0883302952564975  0.8590802635464667  1.0000
  O   O5        1.0  0.17838023684670645  0.37776332320385825  0.2973087498895594  1.0000
  O   O6        1.0  0.8216137740949704  0.877773850681308  0.20268624298685006  1.0000
  O   O7        1.0  0.8216094062838977  0.6222364590939833  0.7026904514632121  1.0000
  O   O8        1.0  0.17840535439243146  0.12222783750623727  0.7973030519632754  1.0000
  O   O9        1.0  0.0680311283337218  0.13193130117419116  0.3775921557550744  1.0000
  O   O10       1.0  0.9319633749970392  0.6319459543296162  0.12241064726441657  1.0000
  O   O11       1.0  0.9319652189966587  0.8680618106112591  0.62240500931248  1.0000
  O   O12       1.0  0.0680465639666394  0.36805192195154035  0.8775959669126079  1.0000
  O   O13       1.0  0.30224628923887303  0.967407944713557  0.37693999034543413  1.0000
  O   O14       1.0  0.6977528956085947  0.4674279371544827  0.12305913471519149  1.0000
  O   O15       1.0  0.6977445553974135  0.032585167195144  0.6230485272139673  1.0000
  O   O16       1.0  0.30224625797566773  0.5325775626208511  0.8769464105611957  1.0000
