data_image0
_chemical_formula_structural       H44Pb2C54N8O8
_chemical_formula_sum              "H44 Pb2 C54 N8 O8"
_cell_length_a       11.399234249228273
_cell_length_b       11.483504081956402
_cell_length_c       12.73280800548002
_cell_angle_alpha    63.55611373515228
_cell_angle_beta     66.49544821392134
_cell_angle_gamma    61.18421875429402

_space_group_name_H-M_alt    "P 1"
_space_group_IT_number       1

loop_
  _space_group_symop_operation_xyz
  'x, y, z'

loop_
  _atom_site_type_symbol
  _atom_site_label
  _atom_site_symmetry_multiplicity
  _atom_site_fract_x
  _atom_site_fract_y
  _atom_site_fract_z
  _atom_site_occupancy
  H   H1        1.0  0.5070867749216819  0.7349420340278316  0.9505290890358252  1.0000
  H   H2        1.0  0.4929022435455865  0.26506721529028004  0.049472246752145496  1.0000
  H   H3        1.0  0.3379077450249213  0.9652181639012056  0.9822812710548947  1.0000
  H   H4        1.0  0.6620762185621984  0.0347921874991286  0.017715860554822917  1.0000
  H   H5        1.0  0.08819202608461303  0.0047419959976835  0.06557339009017939  1.0000
  H   H6        1.0  0.9117901506393127  0.9952684047508954  0.9344180483774593  1.0000
  H   H7        1.0  0.006913482093416743  0.8184182168247177  0.10660538475075045  1.0000
  H   H8        1.0  0.993072389533943  0.1815900998160629  0.8933824668900737  1.0000
  H   H9        1.0  0.6464035974276217  0.3620526461905982  0.4868613198038291  1.0000
  H   H10       1.0  0.35360431629596456  0.6379407818162974  0.5131491931153461  1.0000
  H   H11       1.0  0.5017235521019716  0.41211928054072905  0.6811693028604322  1.0000
  H   H12       1.0  0.4982798376208281  0.5878762773129723  0.31883877798892957  1.0000
  H   H13       1.0  0.5773964447908003  0.5042857828419827  0.7756303206172462  1.0000
  H   H14       1.0  0.4225982076866545  0.4957234079571363  0.22437461221322508  1.0000
  H   H15       1.0  0.7999822139989379  0.5431067039478351  0.6786915395138777  1.0000
  H   H16       1.0  0.20001418568312362  0.4569003994295215  0.32131204416165815  1.0000
  H   H17       1.0  0.35768151789548625  0.07743402416556218  0.06231821237705051  1.0000
  H   H18       1.0  0.64231223842657  0.9225595264408212  0.9376868768021607  1.0000
  H   H19       1.0  0.556267076496937  0.8590103928641785  0.12723184627766645  1.0000
  H   H20       1.0  0.443727501430985  0.14098108446213328  0.8727706333383694  1.0000
  H   H21       1.0  0.38625742782620176  0.9006791012281002  0.48320035419637014  1.0000
  H   H22       1.0  0.6137585254377104  0.09931644656899151  0.5167979402741097  1.0000
  H   H23       1.0  0.19264157395619463  0.11570537731462589  0.40386232531997734  1.0000
  H   H24       1.0  0.8073632004189695  0.8842891455560107  0.5961433319118469  1.0000
  H   H25       1.0  0.6565787089910917  0.668663335893129  0.3003901563937673  1.0000
  H   H26       1.0  0.343421621801106  0.3313333431554143  0.6996091033612684  1.0000
  H   H27       1.0  0.5963957406546286  0.692538933827848  0.4438509435291634  1.0000
  H   H28       1.0  0.4036046062211371  0.30745775048691837  0.5561475231444675  1.0000
  H   H29       1.0  0.8335455693072762  0.7114214441478026  0.3139391445281134  1.0000
  H   H30       1.0  0.16645846265749506  0.2885783741706264  0.6860552630663789  1.0000
  H   H31       1.0  0.7415843986933274  0.8717797600750217  0.21874731887611865  1.0000
  H   H32       1.0  0.25841236586394706  0.12821904521108962  0.7812491830545553  1.0000
  H   H33       1.0  0.7270552900507354  0.7970257112273559  0.4853226101489482  1.0000
  H   H34       1.0  0.27294240637438366  0.2029783032947563  0.5146738868562437  1.0000
  H   H35       1.0  0.5988114817370375  0.945140122075884  0.41396558387300797  1.0000
  H   H36       1.0  0.4011914625710063  0.05486285355864602  0.5860256003336771  1.0000
  H   H37       1.0  0.6431105235230917  0.15276434608558281  0.2614897237186112  1.0000
  H   H38       1.0  0.35689480286176717  0.8472396290301559  0.7385057534130013  1.0000
  H   H39       1.0  0.787446862037179  0.2940751408840825  0.1869317804899992  1.0000
  H   H40       1.0  0.21255653395474658  0.70592564034731  0.8130750350256335  1.0000
  H   H41       1.0  0.10363041690642671  0.9516679463987643  0.335229842025221  1.0000
  H   H42       1.0  0.8963778024048924  0.04832558166630461  0.6647656023474154  1.0000
  H   H43       1.0  0.970144610109351  0.7975732803046046  0.4214071793507088  1.0000
  H   H44       1.0  0.029860702514916702  0.20242344389236422  0.5785809346548305  1.0000
  Pb  Pb1       1.0  0.07121612164583274  0.3284686778417907  0.1409817219222944  1.0000
  Pb  Pb2       1.0  0.9287988723507614  0.6715080128610752  0.859029795016042  1.0000
  C   C1        1.0  0.15715133368794917  0.5633303302172552  0.08020392990952269  1.0000
  C   C2        1.0  0.8428446959503977  0.4366757980577276  0.919789950843615  1.0000
  C   C3        1.0  0.20868109323237868  0.6746529934290137  0.052155874403084126  1.0000
  C   C4        1.0  0.791311451811211  0.3253520915780186  0.9478411769122346  1.0000
  C   C5        1.0  0.3503489020223613  0.6512086955863694  0.010834604066097642  1.0000
  C   C6        1.0  0.6496417176750743  0.348801614750613  0.9891626265059867  1.0000
  C   C7        1.0  0.39694514951315824  0.7557823199341058  0.9860339849217253  1.0000
  C   C8        1.0  0.6030406652714151  0.24422800318286864  0.013965667504486134  1.0000
  C   C9        1.0  0.30196700731264087  0.8830048903774639  0.004293673650131722  1.0000
  C   C10       1.0  0.6980179301239036  0.11700546267985604  0.9957023391236387  1.0000
  C   C11       1.0  0.16170385633563467  0.9060411865251299  0.04916462353492799  1.0000
  C   C12       1.0  0.8382834396026839  0.09396813320610421  0.9508278467853725  1.0000
  C   C13       1.0  0.11587580263585558  0.8023465404051393  0.07198327256487866  1.0000
  C   C14       1.0  0.8841136191428732  0.197659644731857  0.9280081299816983  1.0000
  C   C15       1.0  0.8853980389962078  0.3955208895901379  0.3567154457887937  1.0000
  C   C16       1.0  0.11460333747114504  0.6044778397213407  0.6432881512645138  1.0000
  C   C17       1.0  0.8036302373385952  0.42227190233562345  0.47498596052096775  1.0000
  C   C18       1.0  0.19636648645945348  0.5777289146929051  0.5250215491136955  1.0000
  C   C19       1.0  0.6797887616484319  0.39949073136000385  0.5309885039333153  1.0000
  C   C20       1.0  0.3202144820999423  0.600507974934331  0.46901682085508867  1.0000
  C   C21       1.0  0.5994143065905962  0.4274760569188771  0.6393023520440266  1.0000
  C   C22       1.0  0.40058725428743713  0.5725247578620981  0.36070114957372107  1.0000
  C   C23       1.0  0.6421284506643092  0.47953859555894957  0.6924983679492486  1.0000
  C   C24       1.0  0.35786910100873126  0.5204653715671911  0.3075052667885175  1.0000
  C   C25       1.0  0.7662899312537097  0.5006796611409996  0.6392206143747927  1.0000
  C   C26       1.0  0.23371148364989847  0.4993243020806091  0.3607801311819897  1.0000
  C   C27       1.0  0.8480920222691425  0.47138520217183816  0.5307353923141207  1.0000
  C   C28       1.0  0.1519064871697538  0.5286187613450579  0.4692679166690965  1.0000
  C   C29       1.0  0.3685697827362804  0.0349420147527866  0.15498920994019724  1.0000
  C   C30       1.0  0.6314318040397567  0.9650535871829361  0.8450139708484768  1.0000
  C   C31       1.0  0.4793610385232443  0.914880836090497  0.19076257763474994  1.0000
  C   C32       1.0  0.5206428745874448  0.08511372198670131  0.8092386468632426  1.0000
  C   C33       1.0  0.49190397976084954  0.8650410365563701  0.30971499208468584  1.0000
  C   C34       1.0  0.5081020654593688  0.1349556103042815  0.6902838993058679  1.0000
  C   C35       1.0  0.38535960959850274  0.9372448785298604  0.3883601574362531  1.0000
  C   C36       1.0  0.6146503545944385  0.06275380776600062  0.6116420939889267  1.0000
  C   C37       1.0  0.27692274440615716  0.0564515959078093  0.3455789900905799  1.0000
  C   C38       1.0  0.7230885177522031  0.9435408056962016  0.6544260684577806  1.0000
  C   C39       1.0  0.6189038035440577  0.7461672875150357  0.3461161147802442  1.0000
  C   C40       1.0  0.38110185677123104  0.25382518314039976  0.6538837605628202  1.0000
  C   C41       1.0  0.7341460340958155  0.7999996747101649  0.3120369279790222  1.0000
  C   C42       1.0  0.2658572021610865  0.19999700404309098  0.6879597683495717  1.0000
  C   C43       1.0  0.7079216024768444  0.8754617388410681  0.39772403578351145  1.0000
  C   C44       1.0  0.2920809247591408  0.12453705005580673  0.602269718538487  1.0000
  C   C45       1.0  0.7944699694501982  0.9621080089410724  0.34838502917108366  1.0000
  C   C46       1.0  0.20553803955242966  0.0378886464997521  0.6516108314661793  1.0000
  C   C47       1.0  0.7447838054536434  0.10371548361062112  0.2803637278578819  1.0000
  C   C48       1.0  0.2552235663537986  0.8962853305797865  0.7196346469069965  1.0000
  C   C49       1.0  0.8255103857021882  0.1828477184538713  0.23739730284134444  1.0000
  C   C50       1.0  0.17449236560307937  0.817155193986018  0.7626033983421009  1.0000
  C   C51       1.0  0.0008378783239351257  0.9929138035637097  0.3206776676519496  1.0000
  C   C52       1.0  0.999168361121406  0.0070797106549705035  0.6793216005553616  1.0000
  C   C53       1.0  0.9264265281369863  0.9064706672578853  0.3678477951560736  1.0000
  C   C54       1.0  0.07357961358462722  0.09352601120008333  0.6321463377460929  1.0000
  N   N1        1.0  0.44498346018568935  0.5261894686264628  0.9832352642477387  1.0000
  N   N2        1.0  0.5550078846162236  0.4738187368331239  0.016764115249550574  1.0000
  N   N3        1.0  0.9671451735802709  0.506071130305159  0.46680544091148574  1.0000
  N   N4        1.0  0.03285141051247115  0.4939380585416942  0.5331980473284971  1.0000
  N   N5        1.0  0.2694569481048178  0.10605036297004491  0.22995127242565866  1.0000
  N   N6        1.0  0.7305489845304508  0.8939462470270673  0.7700531705346659  1.0000
  N   N7        1.0  0.951935191682765  0.12908757806530963  0.25675658920516725  1.0000
  N   N8        1.0  0.04807055654182349  0.8709069464623128  0.7432479491907245  1.0000
  O   O1        1.0  0.23382978139070343  0.4354233633973834  0.12012770867899294  1.0000
  O   O2        1.0  0.766167979368682  0.5645806721896137  0.8798656160006145  1.0000
  O   O3        1.0  0.03840247456360409  0.6025074552168093  0.06400829769845022  1.0000
  O   O4        1.0  0.9615914006125268  0.3974913556308053  0.9359899745772607  1.0000
  O   O5        1.0  0.015723886971741846  0.32545710531363886  0.3445995208703961  1.0000
  O   O6        1.0  0.9842799939718252  0.6745374422311272  0.6554032897903924  1.0000
  O   O7        1.0  0.8235675294402757  0.4408995142554416  0.2747980552983691  1.0000
  O   O8        1.0  0.1764322877784751  0.5590929464581293  0.7252085330603537  1.0000
