data_image0
_chemical_formula_structural       Ca4H40C40N8O20
_chemical_formula_sum              "Ca4 H40 C40 N8 O20"
_cell_length_a       6.452744509341467
_cell_length_b       10.78617099307344
_cell_length_c       16.34614779552914
_cell_angle_alpha    89.9998635455497
_cell_angle_beta     99.81864841536276
_cell_angle_gamma    89.99962664937482

_space_group_name_H-M_alt    "P 1"
_space_group_IT_number       1

loop_
  _space_group_symop_operation_xyz
  'x, y, z'

loop_
  _atom_site_type_symbol
  _atom_site_label
  _atom_site_symmetry_multiplicity
  _atom_site_fract_x
  _atom_site_fract_y
  _atom_site_fract_z
  _atom_site_occupancy
  Ca  Ca1       1.0  0.7577886514562452  0.07102177709072778  0.0492288025805934  1.0000
  Ca  Ca2       1.0  0.7422123645670737  0.5710196399196618  0.4507720388241409  1.0000
  Ca  Ca3       1.0  0.24221279601342624  0.9289780612177906  0.950771269931181  1.0000
  Ca  Ca4       1.0  0.257789077781304  0.4289783441582954  0.5492304804032386  1.0000
  H   H1        1.0  0.4569671863990764  0.2946769303720344  0.23386787583028476  1.0000
  H   H2        1.0  0.04302453713606271  0.7946725368596999  0.2661310937689691  1.0000
  H   H3        1.0  0.543037409138883  0.7053275434974607  0.7661311860678521  1.0000
  H   H4        1.0  0.9569816299056413  0.2053282285531708  0.733868686186163  1.0000
  H   H5        1.0  0.711455611144686  0.21169795946140363  0.2336278805508272  1.0000
  H   H6        1.0  0.7885468880655822  0.711698166462881  0.2663697837304539  1.0000
  H   H7        1.0  0.28855055970774407  0.7883092957462239  0.7663700643615883  1.0000
  H   H8        1.0  0.21146398958313742  0.288300744707385  0.7336339854197931  1.0000
  H   H9        1.0  0.29266668680832464  0.3874402731883748  0.34549863959441035  1.0000
  H   H10       1.0  0.20732392985406284  0.8874476952655639  0.1545031698030144  1.0000
  H   H11       1.0  0.7073410530146945  0.6125577108820436  0.6545012467382634  1.0000
  H   H12       1.0  0.7926838086748803  0.11255214302985907  0.8454973282058305  1.0000
  H   H13       1.0  0.09235260769986552  0.26678599621014587  0.9511699442064127  1.0000
  H   H14       1.0  0.4076307479721137  0.7667865289341123  0.5488289704028446  1.0000
  H   H15       1.0  0.9076189585707939  0.7332054981441161  0.048827495525777934  1.0000
  H   H16       1.0  0.5923565369432355  0.23320867383188926  0.4511738148161299  1.0000
  H   H17       1.0  0.7551475225375271  0.5885532471388258  0.9214250156792047  1.0000
  H   H18       1.0  0.7448556090847448  0.08854049430711798  0.5785702915606448  1.0000
  H   H19       1.0  0.24487439004390413  0.41145957072666306  0.07856726450742  1.0000
  H   H20       1.0  0.25513954607006895  0.9114547084480762  0.4214299671378824  1.0000
  H   H21       1.0  0.6307917285076173  0.4510171397965974  0.951850367639899  1.0000
  H   H22       1.0  0.8692039502531446  0.9510002103313012  0.5481475428472321  1.0000
  H   H23       1.0  0.3691971495477517  0.5490040221496031  0.048142737069078095  1.0000
  H   H24       1.0  0.13078805811095154  0.0489912839770881  0.45185311478548573  1.0000
  H   H25       1.0  0.627201502262068  0.48519629308142936  0.844087957473505  1.0000
  H   H26       1.0  0.8727984918960844  0.9851826656661301  0.6559089682389609  1.0000
  H   H27       1.0  0.37281254520669904  0.5148174519123643  0.1559044025190488  1.0000
  H   H28       1.0  0.12719508794425857  0.014809755750931696  0.34409240744528796  1.0000
  H   H29       1.0  0.9906080120936807  0.45980760951258043  0.7935949030539788  1.0000
  H   H30       1.0  0.5093922792992984  0.9598082007183422  0.7064039175005377  1.0000
  H   H31       1.0  0.0094060162389695  0.5401875932033418  0.20640663213574578  1.0000
  H   H32       1.0  0.4905918639081365  0.040191637622839886  0.2935968199293696  1.0000
  H   H33       1.0  0.1974089830002654  0.3954655267709839  0.8677322779887574  1.0000
  H   H34       1.0  0.3025869998187077  0.8954689483655469  0.6322679024542877  1.0000
  H   H35       1.0  0.8025971712711951  0.6045250403871094  0.1322736187619356  1.0000
  H   H36       1.0  0.6973987225854117  0.10452810863873908  0.36772988296139175  1.0000
  H   H37       1.0  0.12157396815356951  0.5537637238509773  0.8768865308274696  1.0000
  H   H38       1.0  0.3784276498011538  0.053764192569147405  0.6231102794020486  1.0000
  H   H39       1.0  0.8784384848426187  0.4462324059790601  0.12311612134360667  1.0000
  H   H40       1.0  0.62155650238779  0.9462356457798077  0.3768861762793775  1.0000
  C   C1        1.0  0.9882023370746397  0.3056416630359918  0.3001287677688254  1.0000
  C   C2        1.0  0.5117864630649509  0.8056413415221968  0.19986904751466028  1.0000
  C   C3        1.0  0.011800684426425803  0.6943609566095432  0.6998707994355866  1.0000
  C   C4        1.0  0.48821812737920584  0.1943566425514333  0.800132461104539  1.0000
  C   C5        1.0  0.17392518443311644  0.1978795658409354  0.1779584868951218  1.0000
  C   C6        1.0  0.3260692536938806  0.6978747876586835  0.32204387555574226  1.0000
  C   C7        1.0  0.8260762642866342  0.8021258351470592  0.8220409739317418  1.0000
  C   C8        1.0  0.6739321899155754  0.30212690487262245  0.6779580319889149  1.0000
  C   C9        1.0  0.29353272595233904  0.27476656516370207  0.23665637826651675  1.0000
  C   C10       1.0  0.2064686639649622  0.7747578334170412  0.2633463348903219  1.0000
  C   C11       1.0  0.7064765840033616  0.7252425442579449  0.7633448377840181  1.0000
  C   C12       1.0  0.7935406447626578  0.22524200487288937  0.7366554928495006  1.0000
  C   C13       1.0  0.8786466919199897  0.2301712800606523  0.23743746346573855  1.0000
  C   C14       1.0  0.621343000882753  0.7301749369106431  0.26256175300179757  1.0000
  C   C15       1.0  0.12135947897643012  0.7698285582424945  0.7625604814554166  1.0000
  C   C16       1.0  0.37865844143262717  0.26982860984567475  0.7374407662190307  1.0000
  C   C17       1.0  0.2010528002748586  0.3276500885529359  0.299137534086654  1.0000
  C   C18       1.0  0.2989275111761885  0.8276532747009141  0.20086611829384535  1.0000
  C   C19       1.0  0.7989486433565887  0.6723478955261226  0.7008643734623732  1.0000
  C   C20       1.0  0.7010739311556905  0.1723474907162199  0.7991364009302585  1.0000
  C   C21       1.0  0.8794929136499834  0.3686455835663408  0.3630489843864737  1.0000
  C   C22       1.0  0.6205092952468406  0.8686515552564557  0.13694902812253668  1.0000
  C   C23       1.0  0.12052582142946733  0.6313496191297644  0.6369583750312415  1.0000
  C   C24       1.0  0.3794968769216497  0.13135013727391245  0.8630483051180844  1.0000
  C   C25       1.0  0.2723970362640529  0.13470786558713138  0.11080923593327438  1.0000
  C   C26       1.0  0.2275997265717109  0.6347004471428332  0.3891921583907062  1.0000
  C   C27       1.0  0.7275997018706803  0.8652956811912204  0.8891862357028513  1.0000
  C   C28       1.0  0.772401713227012  0.365294755593716  0.6108115841966607  1.0000
  C   C29       1.0  0.9465673268402882  0.3171052278807663  0.9575547835726183  1.0000
  C   C30       1.0  0.5534063386254574  0.8170988267337618  0.5424467402536379  1.0000
  C   C31       1.0  0.05340895896392081  0.6828936833692792  0.04244236359527059  1.0000
  C   C32       1.0  0.4465746462656028  0.18289359469837754  0.4575599012200229  1.0000
  C   C33       1.0  0.7204389538609206  0.4905723246911577  0.9069854210768324  1.0000
  C   C34       1.0  0.7795562569440336  0.990559291340517  0.5930117845228577  1.0000
  C   C35       1.0  0.279565650609058  0.5094404932036626  0.0930093590629895  1.0000
  C   C36       1.0  0.22043260587942373  0.0094340572005365  0.406988660359147  1.0000
  C   C37       1.0  0.06402251383806862  0.45988069137075616  0.859414137043494  1.0000
  C   C38       1.0  0.4359742815132108  0.9598789248581522  0.6405841629624262  1.0000
  C   C39       1.0  0.9359867949170495  0.5401145113538774  0.1405876907017856  1.0000
  C   C40       1.0  0.564011438324755  0.04011813214390969  0.35941484580995814  1.0000
  N   N1        1.0  0.9680789982717856  0.17664063161419108  0.17831126665549138  1.0000
  N   N2        1.0  0.5319207712923841  0.6766370064397832  0.321686267487891  1.0000
  N   N3        1.0  0.0319271764133688  0.8233694049359526  0.8216848432185841  1.0000
  N   N4        1.0  0.4680838204073582  0.3233656132002594  0.6783146294474989  1.0000
  N   N5        1.0  0.9140090147941964  0.4201957130173282  0.9110595960852947  1.0000
  N   N6        1.0  0.5859854567598077  0.9201880879664583  0.5889382806416064  1.0000
  N   N7        1.0  0.08598457396167451  0.5798078337642352  0.08893749783735669  1.0000
  N   N8        1.0  0.4140065528763658  0.0798052605691595  0.41106176531057764  1.0000
  O   O1        1.0  0.14866277765062821  0.0709552762799248  0.05694046189651659  1.0000
  O   O2        1.0  0.35133789334851423  0.5709536670332083  0.4430582369985883  1.0000
  O   O3        1.0  0.8513433983395944  0.929051051819087  0.9430550363035762  1.0000
  O   O4        1.0  0.6486588306779097  0.42904895261986536  0.5569439631005294  1.0000
  O   O5        1.0  0.46773875705004303  0.1490564054372996  0.11441710068206129  1.0000
  O   O6        1.0  0.032262560289638  0.6490488378493138  0.3855815205634413  1.0000
  O   O7        1.0  0.5322658398039906  0.8509425057549433  0.8855813495442745  1.0000
  O   O8        1.0  0.9677420340147408  0.35094729200152835  0.614418153022882  1.0000
  O   O9        1.0  0.6875655459021814  0.39866869920720666  0.34235600344670997  1.0000
  O   O10       1.0  0.8124284224643507  0.8986803338803919  0.1576511932940434  1.0000
  O   O11       1.0  0.31244532793581214  0.6013237221683025  0.6576496007462393  1.0000
  O   O12       1.0  0.18756830278465492  0.10133248401745477  0.8423503951147067  1.0000
  O   O13       1.0  0.825259948366295  0.2787275020893603  0.003861640898463722  1.0000
  O   O14       1.0  0.6747354660165213  0.7787152656980465  0.49613482827931676  1.0000
  O   O15       1.0  0.17471162683089156  0.721273263403283  0.9961315170743174  1.0000
  O   O16       1.0  0.3252675517233073  0.22127252013518728  0.5038665739776319  1.0000
  O   O17       1.0  0.9880478325134592  0.3949780350137571  0.43352403629916836  1.0000
  O   O18       1.0  0.5119524874621321  0.8949744900787165  0.0664756428342912  1.0000
  O   O19       1.0  0.011952042235385806  0.6050143863935488  0.5664759298470797  1.0000
  O   O20       1.0  0.4880583940907997  0.10501514996427369  0.9335262912918052  1.0000
