data_image0
_chemical_formula_structural       Cu8H8C8N12Cl8
_chemical_formula_sum              "Cu8 H8 C8 N12 Cl8"
_cell_length_a       6.827206990795706
_cell_length_b       7.013611299775904
_cell_length_c       12.111352186678593
_cell_angle_alpha    90.00130380174701
_cell_angle_beta     90.0013900597354
_cell_angle_gamma    89.99891800532441

_space_group_name_H-M_alt    "P 1"
_space_group_IT_number       1

loop_
  _space_group_symop_operation_xyz
  'x, y, z'

loop_
  _atom_site_type_symbol
  _atom_site_label
  _atom_site_symmetry_multiplicity
  _atom_site_fract_x
  _atom_site_fract_y
  _atom_site_fract_z
  _atom_site_occupancy
  Cu  Cu1       1.0  0.9999969996279107  0.9999977171292044  0.5000046536562551  1.0000
  Cu  Cu2       1.0  0.5000058809567774  1.0082153494000035e-06  0.49999712757641396  1.0000
  Cu  Cu3       1.0  0.4999985683317049  0.4999971881347987  0.9999933155405287  1.0000
  Cu  Cu4       1.0  0.9999921974786331  0.5000012111027557  0.9999942487802543  1.0000
  Cu  Cu5       1.0  0.24997551641505564  0.5000244584168669  0.5306815025898359  1.0000
  Cu  Cu6       1.0  0.2500005690931956  0.9999880656826361  0.9693195541067539  1.0000
  Cu  Cu7       1.0  0.7500249473910755  0.49997879957916774  0.46935732629494  1.0000
  Cu  Cu8       1.0  0.7499984285994827  1.6616877346099997e-05  0.030655698061266903  1.0000
  H   H1        1.0  0.9428220688192253  0.024095397293372397  0.767430396274385  1.0000
  H   H2        1.0  0.5571249731198336  0.9759223852854503  0.7674224815131226  1.0000
  H   H3        1.0  0.5571125527315244  0.5241130873471319  0.7325835906030563  1.0000
  H   H4        1.0  0.9428036909539516  0.4759218625014227  0.7325784724611637  1.0000
  H   H5        1.0  0.057169606021929595  0.9759107118615374  0.2325820110768149  1.0000
  H   H6        1.0  0.4428725606200742  0.0240723173108393  0.23258414610137385  1.0000
  H   H7        1.0  0.4428923045125542  0.4758844666835174  0.2674180830503587  1.0000
  H   H8        1.0  0.0571835895498722  0.524079969117963  0.2674248524438454  1.0000
  C   C1        1.0  0.09369545924204911  0.0121315616016631  0.7407652400374971  1.0000
  C   C2        1.0  0.4062617095014787  0.987857166890649  0.7407638967161034  1.0000
  C   C3        1.0  0.4062506741021109  0.5121425435980311  0.7592244294738252  1.0000
  C   C4        1.0  0.09366627855595769  0.48787827784948234  0.7592287428795645  1.0000
  C   C5        1.0  0.906312327233685  0.9878688438221064  0.2592273512666736  1.0000
  C   C6        1.0  0.5937402180413756  0.0121418127547912  0.25922704319543044  1.0000
  C   C7        1.0  0.5937497888808209  0.4878592878370327  0.24077559283454525  1.0000
  C   C8        1.0  0.9063253961339581  0.5121178504854313  0.24077210500289684  1.0000
  N   N1        1.0  0.15015410107861268  0.007416720237294801  0.6356518147810206  1.0000
  N   N2        1.0  0.349860050544791  0.9925978217121381  0.6356530667168272  1.0000
  N   N3        1.0  0.3498170255632188  0.5074100405546531  0.8643386182869507  1.0000
  N   N4        1.0  0.15011910999257344  0.4925992248002799  0.864342112622225  1.0000
  N   N5        1.0  0.8498551503273146  0.9925794079220933  0.36434820754968206  1.0000
  N   N6        1.0  0.6501492007235754  0.007406861192642098  0.36434447865536174  1.0000
  N   N7        1.0  0.6501775784333929  0.4925903650534451  0.13565727561386612  1.0000
  N   N8        1.0  0.8498798882231212  0.5074011808004215  0.1356554326518378  1.0000
  N   N9        1.0  0.24999272895595936  0.9999949101645954  0.8095975040373204  1.0000
  N   N10       1.0  0.24995113239777564  0.5000176140972741  0.6903969470663753  1.0000
  N   N11       1.0  0.7500179868723221  6.920950568200003e-06  0.190390958938039  1.0000
  N   N12       1.0  0.750046401368678  0.49998706920552394  0.3096154603153849  1.0000
  Cl  Cl1       1.0  0.20387327811958758  0.25148741360360555  0.4206241255607992  1.0000
  Cl  Cl2       1.0  0.2961330604328936  0.7484901681634425  0.4206239031566099  1.0000
  Cl  Cl3       1.0  0.29613738663287853  0.7514961810343691  0.0793812659608903  1.0000
  Cl  Cl4       1.0  0.2038820569464477  0.2485378638829232  0.079375669429524  1.0000
  Cl  Cl5       1.0  0.7961257205073125  0.7485001600654541  0.5793866303748771  1.0000
  Cl  Cl6       1.0  0.7038688675488414  0.25151308931673805  0.5793893299173618  1.0000
  Cl  Cl7       1.0  0.7038923705819966  0.24850422402814584  0.9206030687767496  1.0000
  Cl  Cl8       1.0  0.79609204060867  0.7514682449287233  0.9206111419810057  1.0000
