data_image0
_chemical_formula_structural       Li2NpH10C14N2O12
_chemical_formula_sum              "Li2 Np1 H10 C14 N2 O12"
_cell_length_a       7.022430379851659
_cell_length_b       8.286884300900807
_cell_length_c       8.493995568674766
_cell_angle_alpha    83.29232822922529
_cell_angle_beta     70.96785875418897
_cell_angle_gamma    70.18999366042178

_space_group_name_H-M_alt    "P 1"
_space_group_IT_number       1

loop_
  _space_group_symop_operation_xyz
  'x, y, z'

loop_
  _atom_site_type_symbol
  _atom_site_label
  _atom_site_symmetry_multiplicity
  _atom_site_fract_x
  _atom_site_fract_y
  _atom_site_fract_z
  _atom_site_occupancy
  Li  Li1       1.0  0.7771400130666426  0.34827785013807494  0.9109418814004326  1.0000
  Li  Li2       1.0  0.22286366492584628  0.6517181096449673  0.08906447405368573  1.0000
  Np  Np1       1.0  2.4288688855720507e-05  0.4999981963044603  0.5000014226463347  1.0000
  H   H1        1.0  0.9478654935351899  0.21134701091292374  0.13134019578257042  1.0000
  H   H2        1.0  0.052086397785785755  0.7886695330417337  0.8686931397302544  1.0000
  H   H3        1.0  0.9048970530244773  0.4066747504330832  0.15082318619896987  1.0000
  H   H4        1.0  0.09500166955733393  0.5933431675373126  0.8492491753754408  1.0000
  H   H5        1.0  0.31487860236279624  0.7688098326666333  0.5539906528015307  1.0000
  H   H6        1.0  0.6851275552735601  0.2311835195845403  0.44600002867964866  1.0000
  H   H7        1.0  0.5941851318250855  0.7092108529177066  0.2745561545357377  1.0000
  H   H8        1.0  0.405828556520845  0.29078635911466205  0.7254379125252299  1.0000
  H   H9        1.0  0.6394347162651074  0.9605679837614854  0.08294750051212672  1.0000
  H   H10       1.0  0.3605789881199046  0.03942537779656158  0.9170458361726543  1.0000
  C   C1        1.0  0.0517775366266306  0.09471351590894979  0.6753354788396846  1.0000
  C   C2        1.0  0.9482587807077248  0.9052798480177342  0.3246564153836929  1.0000
  C   C3        1.0  0.3929977398997551  0.29852724353298743  0.15232860982027316  1.0000
  C   C4        1.0  0.6070058722419277  0.7014647891198389  0.8476487910410384  1.0000
  C   C5        1.0  0.2161921900265185  0.04192116399774189  0.510159605065624  1.0000
  C   C6        1.0  0.7838275271904535  0.9580721820090329  0.48982738851704966  1.0000
  C   C7        1.0  0.3401405200344668  0.8723984732557141  0.46681931617656847  1.0000
  C   C8        1.0  0.659860103772935  0.12759744958702868  0.5331737467022464  1.0000
  C   C9        1.0  0.493847625183058  0.8397766808819468  0.310990170430415  1.0000
  C   C10       1.0  0.5061580145479638  0.16022181088960238  0.6890035814895511  1.0000
  C   C11       1.0  0.5184745580909863  0.9773404211232444  0.2042535248183839  1.0000
  C   C12       1.0  0.4815360907394889  0.022660633189111896  0.7957385641246972  1.0000
  C   C13       1.0  0.38451088856249527  0.14207072388894904  0.2567512487798851  1.0000
  C   C14       1.0  0.6154982526266011  0.8579264646729283  0.7432346395083799  1.0000
  N   N1        1.0  0.23689203817518484  0.17442892934756318  0.4065366422741689  1.0000
  N   N2        1.0  0.7631105483920636  0.8255733919279887  0.5934504274918169  1.0000
  O   O1        1.0  0.1963126494252876  0.5188110257725069  0.5834156417641907  1.0000
  O   O2        1.0  0.8036960069579493  0.4811874678053839  0.41657846663181175  1.0000
  O   O3        1.0  0.9321034521710062  0.3218321418476576  0.0691519786827755  1.0000
  O   O4        1.0  0.06779516189745749  0.6782011364981173  0.9309080162790692  1.0000
  O   O5        1.0  0.9625459235159824  0.2595721098564851  0.6900403751148756  1.0000
  O   O6        1.0  0.037505977576252354  0.7404277037505194  0.30996300625963596  1.0000
  O   O7        1.0  0.0074135620726706744  0.9901633750947311  0.787068565733108  1.0000
  O   O8        1.0  0.9926066935221058  0.009824850555638396  0.21292241346491622  1.0000
  O   O9        1.0  0.25309877213015153  0.4391125351098707  0.2213619727463224  1.0000
  O   O10       1.0  0.7469198911944447  0.5608872075233574  0.7786186712475  1.0000
  O   O11       1.0  0.5249524665211354  0.28943965985539677  0.011252606950783684  1.0000
  O   O12       1.0  0.47504611946069303  0.7105497942866347  0.9887205768422972  1.0000
