data_image0
_chemical_formula_structural       Cd2H52C52N8O12
_chemical_formula_sum              "Cd2 H52 C52 N8 O12"
_cell_length_a       10.754149941443199
_cell_length_b       11.811817525355911
_cell_length_c       11.9775
_cell_angle_alpha    96.80924721497145
_cell_angle_beta     113.05351885949113
_cell_angle_gamma    110.45126591760653

_space_group_name_H-M_alt    "P 1"
_space_group_IT_number       1

loop_
  _space_group_symop_operation_xyz
  'x, y, z'

loop_
  _atom_site_type_symbol
  _atom_site_label
  _atom_site_symmetry_multiplicity
  _atom_site_fract_x
  _atom_site_fract_y
  _atom_site_fract_z
  _atom_site_occupancy
  Cd  Cd1       1.0  0.7065078110243095  0.5109612357098214  0.5865885472084784  1.0000
  Cd  Cd2       1.0  0.2934917897202567  0.4890390843291854  0.4134109323863128  1.0000
  H   H1        1.0  0.14889275652345194  0.3678509188644767  0.04603558150409268  1.0000
  H   H2        1.0  0.851106844221114  0.632149401174523  0.9539638980906985  1.0000
  H   H3        1.0  0.3651228931522468  0.9379725420398586  0.23960652131835042  1.0000
  H   H4        1.0  0.6348772323762759  0.062026831977853206  0.7603930321749884  1.0000
  H   H5        1.0  0.07004161272724471  0.6829743950434519  0.7170844248722261  1.0000
  H   H6        1.0  0.929956491643381  0.3170249789742599  0.28291525289139235  1.0000
  H   H7        1.0  0.30465152690953096  0.7075700025929805  0.8982825472195796  1.0000
  H   H8        1.0  0.6953475880400433  0.2924293714247312  0.10171748585828763  1.0000
  H   H9        1.0  0.2917880769821792  0.5465827214081074  0.018164243599905167  1.0000
  H   H10       1.0  0.7082115237623867  0.4534175986308925  0.981835235994893  1.0000
  H   H11       1.0  0.81646118599398  0.3527372827165038  0.763521325540765  1.0000
  H   H12       1.0  0.18353744316060272  0.64726114527992  0.23647842612139414  1.0000
  H   H13       1.0  0.8706879479854024  0.112848041761616  0.041297664801518905  1.0000
  H   H14       1.0  0.1293121775431203  0.8871513322560958  0.9587027235905834  1.0000
  H   H15       1.0  0.06664626732304411  0.2097925195971158  0.11255924157430287  1.0000
  H   H16       1.0  0.9333533334215219  0.790207800441884  0.8874410729192589  1.0000
  H   H17       1.0  0.08109637703537231  0.082342639206054  0.9374278991139277  1.0000
  H   H18       1.0  0.918904720083134  0.9176586268542408  0.06257138231204352  1.0000
  H   H19       1.0  0.8861002937817732  0.9869546864335561  0.8659376471709024  1.0000
  H   H20       1.0  0.11389979275778471  0.0130465796267387  0.1340621138395903  1.0000
  H   H21       1.0  0.4744978704749343  0.3133118454063535  0.6623242047835233  1.0000
  H   H22       1.0  0.5255027408485802  0.6866884746326463  0.33767563012551693  1.0000
  H   H23       1.0  0.2661787311206965  0.09289266864535511  0.5508654700046661  1.0000
  H   H24       1.0  0.7338228907817665  0.9071076513936518  0.44913472021861617  1.0000
  H   H25       1.0  0.2628952689213976  0.9566318659871983  0.37265999567249963  1.0000
  H   H26       1.0  0.7371048176181605  0.0433694000730966  0.6273397653379931  1.0000
  H   H27       1.0  0.6679623502461  0.2650675976197832  0.4315221639801691  1.0000
  H   H28       1.0  0.332035229340562  0.7349327224192237  0.5684757700873675  1.0000
  H   H29       1.0  0.6118522984704668  0.8923109323782228  0.1903496709268282  1.0000
  H   H30       1.0  0.388147827058063  0.107688441639489  0.8096498825665108  1.0000
  H   H31       1.0  0.41936540148643797  0.8581491575322318  0.11037989507397582  1.0000
  H   H32       1.0  0.5806352098370767  0.1418511625067751  0.8896199398350576  1.0000
  H   H33       1.0  0.6708417094911285  0.0480995065290202  0.07385326117366736  1.0000
  H   H34       1.0  0.32915938762737806  0.9519017595312675  0.9261468551510672  1.0000
  H   H35       1.0  0.5435604087866467  0.8940762081075704  0.9685003379990036  1.0000
  H   H36       1.0  0.456440202536868  0.1059241119314294  0.031500331808800346  1.0000
  H   H37       1.0  0.5663228344585178  0.7313510858107932  0.8487322609182967  1.0000
  H   H38       1.0  0.4336772520810399  0.2686501802495016  0.15126750009219586  1.0000
  H   H39       1.0  0.3910478628616404  0.6048084398379815  0.7347076059423473  1.0000
  H   H40       1.0  0.608953234256866  0.3951928262223134  0.2652925103823875  1.0000
  H   H41       1.0  0.3425478300372902  0.380878578065392  0.7708479366024221  1.0000
  H   H42       1.0  0.6574532670812161  0.6191226879949028  0.2291521797223125  1.0000
  H   H43       1.0  0.6611354587693017  0.7305857545862225  0.06673063901259013  1.0000
  H   H44       1.0  0.3388651135652482  0.2694164574953604  0.9332702383123673  1.0000
  H   H45       1.0  0.09219776480755122  0.7460304981861158  0.5140430598838392  1.0000
  H   H46       1.0  0.9078033712999273  0.2539688758315961  0.4859576838225123  1.0000
  H   H47       1.0  0.9548266030791339  0.7044604306088544  0.355029727953962  1.0000
  H   H48       1.0  0.04517453302834441  0.2955389434088573  0.6449710157523896  1.0000
  H   H49       1.0  0.9024306473578676  0.869211930511348  0.28034356721705217  1.0000
  H   H50       1.0  0.0975704887496107  0.13078744350636382  0.7196571764892923  1.0000
  H   H51       1.0  0.08789597334299512  0.9157741524421965  0.6812242923809109  1.0000
  H   H52       1.0  0.9121016452326317  0.0842242755542273  0.31877510396700615  1.0000
  C   C1        1.0  0.0683470691591879  0.6146016522443318  0.7705138275906831  1.0000
  C   C2        1.0  0.9316520457903792  0.3853977217733799  0.22948620548717708  1.0000
  C   C3        1.0  0.19874059495279545  0.6280124500681695  0.8723721351309307  1.0000
  C   C4        1.0  0.8012585199967788  0.37198692394954247  0.12762873284570025  1.0000
  C   C5        1.0  0.19169867764662743  0.5384734269000688  0.9378431569554663  1.0000
  C   C6        1.0  0.8083014478818955  0.46152594711764294  0.06215723143663616  1.0000
  C   C7        1.0  0.0532360919301027  0.4350032941979691  0.8982219572418018  1.0000
  C   C8        1.0  0.9467599912826119  0.5649960798197426  0.10177617499456211  1.0000
  C   C9        1.0  0.9264951952061653  0.4293564931108876  0.795969678139251  1.0000
  C   C10       1.0  0.07350391974340915  0.5706428809068244  0.20403035493861668  1.0000
  C   C11       1.0  0.9327700444033057  0.2324733800532854  0.9349968608113883  1.0000
  C   C12       1.0  0.06722907054626158  0.7675259939644264  0.06500317226647212  1.0000
  C   C13       1.0  0.9662548254231638  0.1518619598100983  0.02154321785190671  1.0000
  C   C14       1.0  0.03374578590035064  0.8481383602289085  0.9784574519558974  1.0000
  C   C15       1.0  0.9860842318153831  0.0429503126411035  0.958219470432226  1.0000
  C   C16       1.0  0.013916379508138729  0.9570500073979034  0.04178119937557766  1.0000
  C   C17       1.0  0.46965867122781907  0.2496096097218157  0.585459973435313  1.0000
  C   C18       1.0  0.5303444860375564  0.7503897642958961  0.4145423157982932  1.0000
  C   C19       1.0  0.3543546026915081  0.1276466528196281  0.5231985990261164  1.0000
  C   C20       1.0  0.6456475439949189  0.8723527211980838  0.4768033348932477  1.0000
  C   C21       1.0  0.3521426051039001  0.052238349677956805  0.42377038290736385  1.0000
  C   C22       1.0  0.6478580452085866  0.94776007831846  0.576230914282057  1.0000
  C   C23       1.0  0.4665276444347484  0.0998506552420224  0.3888390811731952  1.0000
  C   C24       1.0  0.5334729668887662  0.9001496647969773  0.6111615886346087  1.0000
  C   C25       1.0  0.5788762720030931  0.22338306146628642  0.4566176269105  1.0000
  C   C26       1.0  0.42112486410438527  0.7766163125514255  0.5433831167958515  1.0000
  C   C27       1.0  0.5671051856216921  0.0440089104659407  0.24695560652616422  1.0000
  C   C28       1.0  0.43289692207577  0.9559923555943542  0.7530457000115831  1.0000
  C   C29       1.0  0.533330485599656  0.9323200648250278  0.1445870367952153  1.0000
  C   C30       1.0  0.46667012572385874  0.067680255213979  0.855412798113818  1.0000
  C   C31       1.0  0.5554418761311838  0.9744009838995282  0.035357954311280075  1.0000
  C   C32       1.0  0.4445587351923309  0.025599336139471504  0.9646418805977531  1.0000
  C   C33       1.0  0.5853721508164328  0.587984397195541  0.7402974295225349  1.0000
  C   C34       1.0  0.41462744992813333  0.4120159228434588  0.259701215173493  1.0000
  C   C35       1.0  0.5052714152088242  0.6278412202144708  0.8064360683117967  1.0000
  C   C36       1.0  0.4947286713307265  0.37216004584582413  0.1935636926986959  1.0000
  C   C37       1.0  0.5024285485508956  0.5636517835649641  0.9071869238120981  1.0000
  C   C38       1.0  0.4975720237836543  0.4363504285166186  0.09281311861409602  1.0000
  C   C39       1.0  0.41271491411418293  0.433300455873841  0.8715696347349606  1.0000
  C   C40       1.0  0.5872866687993152  0.566701756207749  0.1284307630054684  1.0000
  C   C41       1.0  0.5896097997580156  0.6291647040008357  0.036956751475358485  1.0000
  C   C42       1.0  0.41039028678153505  0.3708365620594591  0.9630430095351341  1.0000
  C   C43       1.0  0.8715613012793785  0.6527546909178313  0.48661889327736674  1.0000
  C   C44       1.0  0.12843931004413636  0.3472456291211686  0.5133817765304372  1.0000
  C   C45       1.0  0.9834194910941323  0.7451119115123745  0.4539904330859628  1.0000
  C   C46       1.0  0.01658213080833802  0.2548884085266252  0.5460105920360903  1.0000
  C   C47       1.0  0.9946953086320038  0.877018498206212  0.47809352492327417  1.0000
  C   C48       1.0  0.005302795738622  0.12298087581149991  0.5219069877391149  1.0000
  C   C49       1.0  0.9453220807796683  0.9266420450353294  0.37729652404104286  1.0000
  C   C50       1.0  0.05467654837491411  0.0733563829610873  0.6227032276211233  1.0000
  C   C51       1.0  0.04978287896287282  0.9527323662249289  0.6016146584107104  1.0000
  C   C52       1.0  0.9502147396127613  0.047266061771488  0.3983855728359771  1.0000
  N   N1        1.0  0.9353968806708796  0.5178019156663822  0.7350689223303987  1.0000
  N   N2        1.0  0.06460223427869492  0.4821974583513296  0.26493111074746883  1.0000
  N   N3        1.0  0.04982206292396539  0.3444387839502241  0.9639803265866148  1.0000
  N   N4        1.0  0.9501780626045573  0.6555605900674877  0.03601922690672399  1.0000
  N   N5        1.0  0.5784177112272033  0.2955351593236912  0.5519467817217105  1.0000
  N   N6        1.0  0.42158391067526685  0.7044651607153085  0.4480559131978765  1.0000
  N   N7        1.0  0.46168728770665285  0.0219826967432724  0.2886742120941861  1.0000
  N   N8        1.0  0.5383113024589579  0.9780176232957275  0.7113240772875925  1.0000
  O   O1        1.0  0.8068170948390333  0.1953467744807185  0.8411608662469731  1.0000
  O   O2        1.0  0.1931815343155492  0.8046516535157053  0.15883972031396346  1.0000
  O   O3        1.0  0.6816424901756264  0.144724229168105  0.2876176937248047  1.0000
  O   O4        1.0  0.31835662477394794  0.8552751448496068  0.7123815044542849  1.0000
  O   O5        1.0  0.7076933774566356  0.5823082694484327  0.8053922444497345  1.0000
  O   O6        1.0  0.2923077196618706  0.4176929966118622  0.1946078718750002  1.0000
  O   O7        1.0  0.5274471727235053  0.560404092472325  0.6195526781331181  1.0000
  O   O8        1.0  0.472553924395001  0.4395971735879698  0.38044743819161647  1.0000
  O   O9        1.0  0.8382819714902326  0.6993169128486798  0.5674622832913414  1.0000
  O   O10       1.0  0.161718639833289  0.300683407190327  0.4325375516176918  1.0000
  O   O11       1.0  0.8215497970496132  0.5352020852751522  0.4372515502210348  1.0000
  O   O12       1.0  0.1784503284789096  0.4647972887425595  0.5627488381710748  1.0000
