data_image0
_chemical_formula_structural       Zr6H42C90N10O56
_chemical_formula_sum              "Zr6 H42 C90 N10 O56"
_cell_length_a       19.080673607413765
_cell_length_b       19.052542759789088
_cell_length_c       19.06557029062569
_cell_angle_alpha    59.50286852712631
_cell_angle_beta     59.928850921019205
_cell_angle_gamma    59.99148895375781

_space_group_name_H-M_alt    "P 1"
_space_group_IT_number       1

loop_
  _space_group_symop_operation_xyz
  'x, y, z'

loop_
  _atom_site_type_symbol
  _atom_site_label
  _atom_site_symmetry_multiplicity
  _atom_site_fract_x
  _atom_site_fract_y
  _atom_site_fract_z
  _atom_site_occupancy
  Zr  Zr1       1.0  0.9028719849632978  0.4107858111153888  0.5964035266103025  1.0000
  Zr  Zr2       1.0  0.08995480160702833  0.5960360627013798  0.4111546098392012  1.0000
  Zr  Zr3       1.0  0.08810152861985904  0.40896634780092705  0.5983343020797066  1.0000
  Zr  Zr4       1.0  0.9046481373068858  0.5979814641102408  0.4093185822468898  1.0000
  Zr  Zr5       1.0  0.9039387346217327  0.5958691378384343  0.5962583642241199  1.0000
  Zr  Zr6       1.0  0.0888840452038765  0.4109192901166949  0.4113013009623714  1.0000
  H   H1        1.0  0.9217853348884332  0.42838673737681165  0.7242120879382056  1.0000
  H   H2        1.0  0.9256243469705793  0.7238154626295457  0.4288057733559826  1.0000
  H   H3        1.0  0.21543788490585306  0.42934943554713095  0.4319709441787437  1.0000
  H   H4        1.0  0.9232307382714214  0.4315900898998845  0.4297465172144329  1.0000
  H   H5        1.0  0.4576712883219543  0.6071891131558756  0.05404656395585066  1.0000
  H   H6        1.0  0.5461829045899692  0.38842121360732307  0.9641963161432585  1.0000
  H   H7        1.0  0.6473989122175111  0.6417614058742416  0.7892524520390084  1.0000
  H   H8        1.0  0.5094579019245984  0.6516811858402463  0.9105742987691698  1.0000
  H   H9        1.0  0.28371088976483355  0.4274138186868938  0.15595297683288575  1.0000
  H   H10       1.0  0.40419637406139247  0.43499396853361805  0.01738381278914152  1.0000
  H   H11       1.0  0.10128207753915291  0.9637473804232642  0.3888152399370172  1.0000
  H   H12       1.0  0.8809823651189888  0.05373164743122068  0.6074343004163154  1.0000
  H   H13       1.0  0.13295596376504193  0.1554321928827207  0.4281000046603083  1.0000
  H   H14       1.0  0.14346216342602258  0.016906977885476217  0.43553858083403435  1.0000
  H   H15       1.0  0.9215556166139506  0.7889216609190798  0.6420710380281776  1.0000
  H   H16       1.0  0.9282223368882401  0.9102691303929047  0.6519849029426156  1.0000
  H   H17       1.0  0.45156204268527494  0.050509466442704765  0.39353274683075073  1.0000
  H   H18       1.0  0.5542326490353557  0.9687604546206786  0.6006597118843899  1.0000
  H   H19       1.0  0.6413647312131942  0.7858098891575193  0.43701970691152064  1.0000
  H   H20       1.0  0.5025822818883154  0.9059010149628505  0.44664207168644043  1.0000
  H   H21       1.0  0.29012587491224207  0.15780143292722218  0.6395594875416819  1.0000
  H   H22       1.0  0.41059550461378086  0.019862702179267475  0.650840466806109  1.0000
  H   H23       1.0  0.8762080823033073  0.6000915576910728  0.9693018189138769  1.0000
  H   H24       1.0  0.10410193521089181  0.39294525577816586  0.05110699342553465  1.0000
  H   H25       1.0  0.9126122109936006  0.6392520688885598  0.15803933127182265  1.0000
  H   H26       1.0  0.9186699448354361  0.6504173200520427  0.020210092121850064  1.0000
  H   H27       1.0  0.13579219151053934  0.43667542594293  0.7862072453510224  1.0000
  H   H28       1.0  0.14475122308915184  0.4461256369903523  0.9064778947016876  1.0000
  H   H29       1.0  0.12465130706172535  0.8127910462798905  0.16766831460033416  1.0000
  H   H30       1.0  0.20005912119390268  0.9152055262777025  0.04263655706912319  1.0000
  H   H31       1.0  0.903515771797892  0.8053349767732383  0.16809880095690508  1.0000
  H   H32       1.0  0.8948446270939956  0.16734515420763077  0.8132867914978873  1.0000
  H   H33       1.0  0.8418854987135729  0.042450415924932684  0.9158538468073161  1.0000
  H   H34       1.0  0.1232596595029775  0.1675472771763752  0.8055352947574334  1.0000
  H   H35       1.0  0.461549121041891  0.3829266410700569  0.6034654756665104  1.0000
  H   H36       1.0  0.5520548908958532  0.6035188333570218  0.38309978223946933  1.0000
  H   H37       1.0  0.6482499630558963  0.4277887870153022  0.6394235292579111  1.0000
  H   H38       1.0  0.5118439690911885  0.43232473164673013  0.6484995892063452  1.0000
  H   H39       1.0  0.28444107221074  0.6392216711287303  0.42807441239061467  1.0000
  H   H40       1.0  0.40719522253044754  0.6484182927462994  0.4325195394292082  1.0000
  H   H41       1.0  0.23459900285312327  0.040091389975991404  0.7900053957006747  1.0000
  H   H42       1.0  0.9352012268366181  0.7899066644761202  0.040226837415936294  1.0000
  C   C1        1.0  0.755940294339247  0.5080666541774904  0.7333299838580061  1.0000
  C   C2        1.0  0.0026613922661340144  0.732967320587825  0.508447429813991  1.0000
  C   C3        1.0  0.2277916205283218  0.5078946302805535  0.2648450875815129  1.0000
  C   C4        1.0  0.9994172609802021  0.2644127929510702  0.508427604449622  1.0000
  C   C5        1.0  0.0006895716042336984  0.26051505896001  0.7340067290808534  1.0000
  C   C6        1.0  0.7574443358083303  0.5097029600192541  0.5055518314704629  1.0000
  C   C7        1.0  0.004805909328901289  0.7336564223486731  0.2609179018399956  1.0000
  C   C8        1.0  0.2273545231834079  0.5052545795342523  0.5099416611328493  1.0000
  C   C9        1.0  0.9993776260960773  0.5064508057660858  0.736007574862903  1.0000
  C   C10       1.0  0.22609338620799957  0.262568466624451  0.5098608058421803  1.0000
  C   C11       1.0  0.0014836906996435117  0.5095316109529691  0.2628900239319307  1.0000
  C   C12       1.0  0.7582013938862673  0.7356820399530332  0.5067883119515456  1.0000
  C   C13       1.0  0.30137583877490215  0.5131943190442739  0.18249556438351527  1.0000
  C   C14       1.0  0.6733996821571606  0.5117361245303583  0.8065244361049864  1.0000
  C   C15       1.0  0.35080076905632035  0.5645548668237339  0.15091532538170332  1.0000
  C   C16       1.0  0.4191475303440698  0.5690258856209097  0.07409039651370365  1.0000
  C   C17       1.0  0.6418718315476752  0.44224382273095836  0.8560667779961905  1.0000
  C   C18       1.0  0.56593932395937  0.44551132741775484  0.9253495125557194  1.0000
  C   C19       1.0  0.6238271261911734  0.587070118431633  0.8278450163527535  1.0000
  C   C20       1.0  0.5471080731118719  0.5917969956214788  0.8964163774477427  1.0000
  C   C21       1.0  0.3222748375946692  0.46683021379617157  0.13251866275123797  1.0000
  C   C22       1.0  0.3902723802784466  0.47096731312009155  0.05522301352615242  1.0000
  C   C23       1.0  0.4407326622441516  0.5210493179573631  0.025351202557530393  1.0000
  C   C24       1.0  0.5177063000177848  0.5204867932685675  0.9474046954205306  1.0000
  C   C25       1.0  0.008340518993137114  0.8061474444181228  0.512102647013343  1.0000
  C   C26       1.0  0.0029174296397656103  0.18202823835066792  0.5137523148712049  1.0000
  C   C27       1.0  0.05990252304057736  0.8556098632065954  0.4426452449991416  1.0000
  C   C28       1.0  0.06323870221757495  0.9249273159442948  0.44589545633301236  1.0000
  C   C29       1.0  0.9336771867983771  0.15048826533962498  0.5650239820056128  1.0000
  C   C30       1.0  0.9376522095972107  0.07373240451970978  0.56936586350772  1.0000
  C   C31       1.0  0.07839138331933532  0.13201772007364806  0.4674300163631244  1.0000
  C   C32       1.0  0.08354413595208139  0.05476052183995964  0.47148520146960493  1.0000
  C   C33       1.0  0.9612328013103594  0.8275091004367923  0.5874024500841629  1.0000
  C   C34       1.0  0.9646402106880033  0.8960890448101324  0.5921185199695599  1.0000
  C   C35       1.0  0.014370441484018812  0.9470577929966453  0.5208154604951217  1.0000
  C   C36       1.0  0.012820293720849781  0.024969087901645527  0.5214355224383665  1.0000
  C   C37       1.0  0.3000499933190995  0.180532109593237  0.5131957011813171  1.0000
  C   C38       1.0  0.675714047470741  0.8089054558547275  0.5129383872400339  1.0000
  C   C39       1.0  0.34647394595962316  0.14769103946955647  0.44543001538860233  1.0000
  C   C40       1.0  0.41539127906512613  0.07141472614721779  0.4493386002928689  1.0000
  C   C41       1.0  0.6481561035531554  0.8606483744929607  0.560109420728729  1.0000
  C   C42       1.0  0.5711762801637195  0.9284338214217766  0.5659539831516511  1.0000
  C   C43       1.0  0.621354545258704  0.8265848657291315  0.4726270656487018  1.0000
  C   C44       1.0  0.5439340368437442  0.894236227547047  0.47790601086573037  1.0000
  C   C45       1.0  0.3252076736658724  0.1325759772659439  0.5867687987528926  1.0000
  C   C46       1.0  0.3936785197943777  0.05572178432588971  0.5921148570675996  1.0000
  C   C47       1.0  0.44068770272516383  0.024462914030365927  0.5228290687782363  1.0000
  C   C48       1.0  0.5183391380812382  0.9472972934954451  0.5232999532227964  1.0000
  C   C49       1.0  0.0024099867590764135  0.5125412737378738  0.8093025651058524  1.0000
  C   C50       1.0  0.006191549475943144  0.5128008704455381  0.1808981118667887  1.0000
  C   C51       1.0  0.9309990409819445  0.5596559408402582  0.8610679164151732  1.0000
  C   C52       1.0  0.9343015667525449  0.565446038821541  0.9289118809507428  1.0000
  C   C53       1.0  0.06025703927404894  0.44494533112086987  0.1481703220764103  1.0000
  C   C54       1.0  0.06367108266463364  0.44881633486834704  0.07192924015914308  1.0000
  C   C55       1.0  0.9554810238325613  0.5864087948956467  0.13288284550142757  1.0000
  C   C56       1.0  0.9584312479340084  0.5916941662055492  0.05609921147025419  1.0000
  C   C57       1.0  0.07937592416853798  0.47218739816001687  0.8270447039667489  1.0000
  C   C58       1.0  0.08382495085624717  0.47740408666534506  0.8947468486864522  1.0000
  C   C59       1.0  0.010928057619359801  0.5227797883433708  0.9477931597459843  1.0000
  C   C60       1.0  0.011876363749848868  0.5223304860013869  0.024946996910777737  1.0000
  C   C61       1.0  0.0785099136406304  0.8385192442813574  0.13574285614779308  1.0000
  C   C62       1.0  0.08315508783837788  0.9075482759006946  0.05709779242404519  1.0000
  C   C63       1.0  0.14991679829594068  0.9440976307929956  0.014638987579793658  1.0000
  C   C64       1.0  0.9537693143035214  0.8342285115264756  0.13462275511749766  1.0000
  C   C65       1.0  0.9566947688292303  0.9025536577417127  0.055474256799641325  1.0000
  C   C66       1.0  0.8949770819848555  0.9383514611835434  0.013128324876440452  1.0000
  C   C67       1.0  0.9472146956119117  0.13540003705342932  0.8389690228308241  1.0000
  C   C68       1.0  0.9521490397594125  0.05678026012374461  0.9080359478506496  1.0000
  C   C69       1.0  0.8911887700880218  0.01440029223184784  0.9447081495066597  1.0000
  C   C70       1.0  0.07754025812117504  0.1341189468854296  0.8344934155412815  1.0000
  C   C71       1.0  0.08542381763604118  0.05496053598265147  0.9028289449812733  1.0000
  C   C72       1.0  0.1537570494452041  0.012501601794888057  0.9385821772239069  1.0000
  C   C73       1.0  0.013042198093543853  0.8036643151446013  0.17479688352100448  1.0000
  C   C74       1.0  0.020446335677213722  0.9420041995616798  0.017535776058665086  1.0000
  C   C75       1.0  0.008594989717003934  0.17434756360693626  0.804001312314881  1.0000
  C   C76       1.0  0.02006016640702755  0.017110773881405875  0.942394404090038  1.0000
  C   C77       1.0  0.30217329341228105  0.5078610523643333  0.5137280960251331  1.0000
  C   C78       1.0  0.6762254140312863  0.5135590370986236  0.5081042688347354  1.0000
  C   C79       1.0  0.352633543617074  0.43742508871304847  0.5637224916249721  1.0000
  C   C80       1.0  0.4223591351896659  0.44056257179055786  0.5663199273742805  1.0000
  C   C81       1.0  0.6462068903457238  0.5636372622323832  0.43766415691111155  1.0000
  C   C82       1.0  0.5707507020988059  0.5662759943775625  0.44074335016824046  1.0000
  C   C83       1.0  0.6260172963533676  0.4664038888907386  0.5839125166760013  1.0000
  C   C84       1.0  0.5499854759778415  0.46876474052535133  0.5882782264914257  1.0000
  C   C85       1.0  0.3236399660990728  0.5837111565264337  0.46661643409119336  1.0000
  C   C86       1.0  0.3929365505937171  0.5881420181178711  0.4689273273088617  1.0000
  C   C87       1.0  0.44421431288739643  0.5163056670376207  0.5178657148228113  1.0000
  C   C88       1.0  0.5216239369382478  0.5177622843111749  0.5164287276093161  1.0000
  C   C89       1.0  0.23239539479683907  0.03830238042573344  0.8933477508231035  1.0000
  C   C90       1.0  0.8357513695607468  0.8931332813615285  0.0389524408234864  1.0000
  N   N1        1.0  0.3365960427341152  0.6139613305873722  0.19956504495525712  1.0000
  N   N2        1.0  0.6896603607794489  0.3588331903326108  0.8406761562343873  1.0000
  N   N3        1.0  0.11112450007956211  0.840109659317136  0.3592975107119258  1.0000
  N   N4        1.0  0.849818077051232  0.1991557940020243  0.6144118585679761  1.0000
  N   N5        1.0  0.32851679067123035  0.1941479868740927  0.362936138491051  1.0000
  N   N6        1.0  0.7020536492745395  0.8499486634878719  0.6022381585149077  1.0000
  N   N7        1.0  0.8456823457996876  0.6017624204900895  0.8503587513327133  1.0000
  N   N8        1.0  0.11420108957060653  0.36245450485376535  0.19471616669825656  1.0000
  N   N9        1.0  0.33749606409381994  0.353270750625299  0.6135621467428721  1.0000
  N   N10       1.0  0.6956087915783018  0.6135906044852035  0.3535719598597566  1.0000
  O   O1        1.0  0.7883657006022063  0.4466080964239654  0.7049298384762538  1.0000
  O   O2        1.0  0.06010123411055432  0.7045871987244255  0.4469745140502894  1.0000
  O   O3        1.0  0.19947257405199556  0.565244172264478  0.2972845145888812  1.0000
  O   O4        1.0  0.9378980311879063  0.2969172212295703  0.5657126155717478  1.0000
  O   O5        1.0  0.056910914640383156  0.29431503506249623  0.707560081264063  1.0000
  O   O6        1.0  0.789717255181586  0.5682552452922137  0.44434502485528066  1.0000
  O   O7        1.0  0.9412225534603635  0.7072287706869956  0.2947264281576949  1.0000
  O   O8        1.0  0.19774360161656546  0.44406006090338224  0.5685697040108407  1.0000
  O   O9        1.0  0.9385992667362831  0.5644364160894212  0.7063410235198616  1.0000
  O   O10       1.0  0.19732745463943507  0.29556289575795347  0.4482411774258992  1.0000
  O   O11       1.0  0.05888854999951578  0.4479343657863523  0.29589387801264877  1.0000
  O   O12       1.0  0.7906727223403042  0.7060287079354309  0.5647621161020382  1.0000
  O   O13       1.0  0.1974021352576968  0.29317048830881726  0.5685933932793718  1.0000
  O   O14       1.0  0.9408661126743639  0.5683048926242404  0.2934518533424963  1.0000
  O   O15       1.0  0.7891589900424876  0.7085117180213842  0.4449674018227725  1.0000
  O   O16       1.0  0.05745616797748455  0.44464941707212086  0.7088203629052289  1.0000
  O   O17       1.0  0.9384769415558762  0.2944867204604266  0.7061012559444747  1.0000
  O   O18       1.0  0.1988164296988869  0.564362046704794  0.4486094878629814  1.0000
  O   O19       1.0  0.060982934573722405  0.7057094866025793  0.2948631407353162  1.0000
  O   O20       1.0  0.7881614158214276  0.4483827548565031  0.5646968449196592  1.0000
  O   O21       1.0  0.0580315897170821  0.29589620699356795  0.4474048998156803  1.0000
  O   O22       1.0  0.7877131453829378  0.5661816455140781  0.7049322793552832  1.0000
  O   O23       1.0  0.941190201991809  0.7045449846230838  0.5665751014078779  1.0000
  O   O24       1.0  0.198712585308847  0.44687330664110186  0.2963351056307815  1.0000
  O   O25       1.0  0.9439629992907189  0.45234899141924234  0.4504866273309815  1.0000
  O   O26       1.0  0.15320194636832005  0.45015044747376  0.4527131420723549  1.0000
  O   O27       1.0  0.9451263635995205  0.6612292436985496  0.45065987579639  1.0000
  O   O28       1.0  0.9430226926888636  0.4502570347897787  0.6616294715415877  1.0000
  O   O29       1.0  0.03485699244112082  0.5408545584864867  0.5429675656305264  1.0000
  O   O30       1.0  0.8813396555755163  0.5425847534036875  0.54122069987298  1.0000
  O   O31       1.0  0.035381703666161085  0.5426063049590367  0.38792349048949143  1.0000
  O   O32       1.0  0.03409365628733942  0.38758460318938154  0.5429696563739128  1.0000
  O   O33       1.0  0.3640961615404522  0.5727524891011626  0.26080998442212433  1.0000
  O   O34       1.0  0.3028247841032081  0.693042368365333  0.17177857690475656  1.0000
  O   O35       1.0  0.7493766638731433  0.30875490660711347  0.8698049073323019  1.0000
  O   O36       1.0  0.662698138785629  0.34414408253037004  0.8041885479985923  1.0000
  O   O37       1.0  0.0725968108557639  0.8693100955753719  0.30898924530076505  1.0000
  O   O38       1.0  0.18922395471266626  0.8034575788662153  0.3448957252239354  1.0000
  O   O39       1.0  0.8022854293858971  0.2604059733030367  0.5732015976988906  1.0000
  O   O40       1.0  0.8322963582402423  0.17140035514830743  0.6934863920613664  1.0000
  O   O41       1.0  0.35810183890579594  0.2534327322584105  0.30984104271796303  1.0000
  O   O42       1.0  0.2898760324971477  0.166225585770519  0.3520346051724204  1.0000
  O   O43       1.0  0.7648885253710205  0.8748496122762291  0.5544525166201381  1.0000
  O   O44       1.0  0.6771904962407619  0.8213416115319421  0.6819192864065259  1.0000
  O   O45       1.0  0.8058264756568078  0.5539381005991191  0.8751262489957768  1.0000
  O   O46       1.0  0.8193580016886983  0.6814512928027269  0.8219135882535512  1.0000
  O   O47       1.0  0.07837415571397338  0.3094351474850043  0.25410193538119336  1.0000
  O   O48       1.0  0.19168030795426466  0.3514826440538812  0.1668317844056091  1.0000
  O   O49       1.0  0.3637199011304589  0.3062978860600011  0.5727344365340343  1.0000
  O   O50       1.0  0.3037155243979938  0.33498373481511123  0.6926662581972777  1.0000
  O   O51       1.0  0.7571337000286747  0.5728733908076933  0.3064725217189021  1.0000
  O   O52       1.0  0.6685641582370607  0.6926736364051677  0.33546344997316885  1.0000
  O   O53       1.0  0.2689557826202318  0.05006941727767615  0.8065495607689429  1.0000
  O   O54       1.0  0.2663036798886011  0.04486038456099106  0.9281526151053257  1.0000
  O   O55       1.0  0.8742678352389673  0.8063919800052161  0.050460344321848545  1.0000
  O   O56       1.0  0.7603997725574205  0.9278932764085397  0.04579148241170837  1.0000
