data_image0
_chemical_formula_structural       Zn2H32C32N4O8
_chemical_formula_sum              "Zn2 H32 C32 N4 O8"
_cell_length_a       7.779589815076466
_cell_length_b       7.838350927555508
_cell_length_c       12.850038735980853
_cell_angle_alpha    90.08036575853572
_cell_angle_beta     81.21091882730214
_cell_angle_gamma    89.5297991015923

_space_group_name_H-M_alt    "P 1"
_space_group_IT_number       1

loop_
  _space_group_symop_operation_xyz
  'x, y, z'

loop_
  _atom_site_type_symbol
  _atom_site_label
  _atom_site_symmetry_multiplicity
  _atom_site_fract_x
  _atom_site_fract_y
  _atom_site_fract_z
  _atom_site_occupancy
  Zn  Zn1       1.0  0.309017817643884  0.07199459839863213  0.32804085579626024  1.0000
  Zn  Zn2       1.0  0.690979975236175  0.9280064646642147  0.6719591831564815  1.0000
  H   H1        1.0  0.6835295311594863  0.05738376896160701  0.35500777853542337  1.0000
  H   H2        1.0  0.3164695142066876  0.9426224016852275  0.6449929189330206  1.0000
  H   H3        1.0  0.9869570850407146  0.18497742719809207  0.05679986386763149  1.0000
  H   H4        1.0  0.013038068362277496  0.8150274601476044  0.943200420803443  1.0000
  H   H5        1.0  0.4244412601340316  0.17147454515295382  0.10442663981172022  1.0000
  H   H6        1.0  0.5755565835941213  0.8285214146208233  0.8955733966576673  1.0000
  H   H7        1.0  0.5754905123726174  0.22011460127398416  0.9295428915321582  1.0000
  H   H8        1.0  0.4245099173207834  0.7798826348030732  0.0704561237419767  1.0000
  H   H9        1.0  0.7954734395774068  0.16397344521200102  0.897765075037434  1.0000
  H   H10       1.0  0.20452568472463642  0.8360250732041692  0.1022363966662496  1.0000
  H   H11       1.0  0.748702397715789  0.46702825183810165  0.8534037053240483  1.0000
  H   H12       1.0  0.2512967339708396  0.5329689853499177  0.14659620983827185  1.0000
  H   H13       1.0  0.8817113392710069  0.457368972243387  0.9540182824312069  1.0000
  H   H14       1.0  0.118286453609052  0.5426320908194598  0.0459817565215275  1.0000
  H   H15       1.0  0.6588231334108698  0.5140662138264248  0.9866736444852081  1.0000
  H   H16       1.0  0.341173384222742  0.48593229599991633  0.013326515153764306  1.0000
  H   H17       1.0  0.3697484369792008  0.4452204021665339  0.2951971802999438  1.0000
  H   H18       1.0  0.6302571625875546  0.5547806731511075  0.704802905045604  1.0000
  H   H19       1.0  0.1889109803933238  0.6959644142145083  0.5887167799602153  1.0000
  H   H20       1.0  0.8110972385538986  0.3040353938706916  0.4112846168292067  1.0000
  H   H21       1.0  0.1741307495963227  0.14771434352916663  0.5530183618794099  1.0000
  H   H22       1.0  0.825870952679807  0.8522854430814563  0.4469797547482274  1.0000
  H   H23       1.0  0.0207447292891274  0.2843339654386696  0.7127641334431872  1.0000
  H   H24       1.0  0.979258276321218  0.7156658254668716  0.2872346392168055  1.0000
  H   H25       1.0  0.014853358438692498  0.5081250265369094  0.7278497587539479  1.0000
  H   H26       1.0  0.9851496598836746  0.49187348854636076  0.2721490132852082  1.0000
  H   H27       1.0  0.1838739288188194  0.36994371309769053  0.8571616502208956  1.0000
  H   H28       1.0  0.8161251801074769  0.6300560784378036  0.14283904414335782  1.0000
  H   H29       1.0  0.3194400831764526  0.505645276531709  0.7703420362100105  1.0000
  H   H30       1.0  0.6805603290840664  0.4943545192987032  0.22965931418659846  1.0000
  H   H31       1.0  0.3336774213334123  0.2818212846171876  0.7519666631960292  1.0000
  H   H32       1.0  0.6663243170216548  0.718175961160661  0.24803456403100196  1.0000
  C   C1        1.0  0.6934491177697595  0.09231046990252173  0.2720434832901688  1.0000
  C   C2        1.0  0.3065486650619961  0.9076918716855289  0.7279573342436763  1.0000
  C   C3        1.0  0.855287082721766  0.11693812048147831  0.2101034417284922  1.0000
  C   C4        1.0  0.14471072287031464  0.8830616667590976  0.7898965966034127  1.0000
  C   C5        1.0  0.8605750164495091  0.16451237719618214  0.10497930972856301  1.0000
  C   C6        1.0  0.139422763718521  0.8354899616889285  0.8950207298450082  1.0000
  C   C7        1.0  0.7058521802044524  0.18608634616533248  0.06323388958116992  1.0000
  C   C8        1.0  0.2941443273808559  0.8139134421862125  0.936767048638906  1.0000
  C   C9        1.0  0.5504019347013269  0.15781702221789123  0.1310250219340077  1.0000
  C   C10       1.0  0.44959589365107894  0.842180210675217  0.8689742371959498  1.0000
  C   C11       1.0  0.017201029259780395  0.09503965849321362  0.2585290356694401  1.0000
  C   C12       1.0  0.982796773668575  0.9049601260444222  0.7414702247021908  1.0000
  C   C13       1.0  0.7042966149424572  0.2428141530670018  0.9517749976882045  1.0000
  C   C14       1.0  0.29570249398384624  0.7571856384684923  0.0482256966760559  1.0000
  C   C15       1.0  0.7508684184819927  0.4316291282040511  0.9356477372359324  1.0000
  C   C16       1.0  0.24912809915161918  0.5683693816222831  0.06435242240304011  1.0000
  C   C17       1.0  0.3172647304842756  0.44063315160833844  0.37877451011795676  1.0000
  C   C18       1.0  0.6827395657482641  0.5593679194143847  0.6212249191952282  1.0000
  C   C19       1.0  0.2876308415888928  0.5906910723446402  0.43725036411071744  1.0000
  C   C20       1.0  0.7123760639758104  0.4093100099708593  0.5627511552274527  1.0000
  C   C21       1.0  0.2175173185139414  0.5784855105680792  0.5437009027531872  1.0000
  C   C22       1.0  0.7824909258573243  0.4215117458725929  0.4563004927945614  1.0000
  C   C23       1.0  0.17709755102052332  0.4188554876201709  0.5891108170243697  1.0000
  C   C24       1.0  0.8229106498872271  0.5811455908814196  0.4108890244653551  1.0000
  C   C25       1.0  0.20963670076476856  0.27546909565312216  0.5238677961140327  1.0000
  C   C26       1.0  0.7903702121845131  0.7245307054342263  0.476132166682767  1.0000
  C   C27       1.0  0.3180537495445038  0.7591970998077359  0.38342884247175135  1.0000
  C   C28       1.0  0.6819492540087141  0.24080397773183657  0.6165730426501526  1.0000
  C   C29       1.0  0.10165568851086698  0.3990994377853596  0.7034377728554377  1.0000
  C   C30       1.0  0.898348635809448  0.6008990842957689  0.2965624331763408  1.0000
  C   C31       1.0  0.2427319101860874  0.38806581545448904  0.7746297583013091  1.0000
  C   C32       1.0  0.7572684994107135  0.6119339776729831  0.22537081413504012  1.0000
  N   N1        1.0  0.5444697555259594  0.11274342870321873  0.23276406517810955  1.0000
  N   N2        1.0  0.4555267393473272  0.8872576354705972  0.7672368736628031  1.0000
  N   N3        1.0  0.2793936902240404  0.2868626762214248  0.4214642779060824  1.0000
  N   N4        1.0  0.7206106086722175  0.7131383975042384  0.5785359293673693  1.0000
  O   O1        1.0  0.16310851021562914  0.1372161758611767  0.20434921166111764  1.0000
  O   O2        1.0  0.8368906288555779  0.8627797800986914  0.795649146959825  1.0000
  O   O3        1.0  0.0051839912267724  0.037783168173668016  0.3512447003679854  1.0000
  O   O4        1.0  0.9948124829433169  0.9622191637135845  0.6487539052129636  1.0000
  O   O5        1.0  0.3231361530980977  0.7670235248268615  0.2849246490049425  1.0000
  O   O6        1.0  0.6768642564986962  0.23297626830061094  0.7150759234314068  1.0000
  O   O7        1.0  0.33158874166428376  0.8915261137135533  0.4410627912713921  1.0000
  O   O8        1.0  0.6684090512157752  0.10847494934929361  0.5589372476813425  1.0000
