data_image0
_chemical_formula_structural       Li4H68C36N16
_chemical_formula_sum              "Li4 H68 C36 N16"
_cell_length_a       10.081538590394036
_cell_length_b       10.297435139295622
_cell_length_c       11.459630767018547
_cell_angle_alpha    90.00017230179434
_cell_angle_beta     90.00009894728487
_cell_angle_gamma    94.43800367061587

_space_group_name_H-M_alt    "P 1"
_space_group_IT_number       1

loop_
  _space_group_symop_operation_xyz
  'x, y, z'

loop_
  _atom_site_type_symbol
  _atom_site_label
  _atom_site_symmetry_multiplicity
  _atom_site_fract_x
  _atom_site_fract_y
  _atom_site_fract_z
  _atom_site_occupancy
  Li  Li1       1.0  0.9929769748784597  0.8348801389822071  0.7454342735732951  1.0000
  Li  Li2       1.0  0.4929734821067911  0.3348805015487244  0.7545705125240971  1.0000
  Li  Li3       1.0  0.007024360311568502  0.16512286659233413  0.2545642763850466  1.0000
  Li  Li4       1.0  0.5070228929514542  0.6651224966044824  0.24543763634358837  1.0000
  H   H1        1.0  0.9617119000930645  0.5341863641949375  0.10609823654169048  1.0000
  H   H2        1.0  0.46171703367915035  0.0341920995406255  0.3939040125035901  1.0000
  H   H3        1.0  0.03827479199687642  0.4658068802058113  0.8939020586493099  1.0000
  H   H4        1.0  0.5382887979189023  0.9658177302324379  0.6060962827243015  1.0000
  H   H5        1.0  0.17597581454258202  0.9485079451225786  0.934820362974669  1.0000
  H   H6        1.0  0.6759762361588174  0.4485083845716956  0.5651790131689081  1.0000
  H   H7        1.0  0.8240242267358228  0.05149116282132839  0.06517644172051008  1.0000
  H   H8        1.0  0.3240249480965076  0.5514926729421108  0.4348247725574836  1.0000
  H   H9        1.0  0.0700520686752313  0.07603360019257371  0.912999903483886  1.0000
  H   H10       1.0  0.5700525315963106  0.5760365713463643  0.5870009249035276  1.0000
  H   H11       1.0  0.9299466786964462  0.9239616101283801  0.08699951909044759  1.0000
  H   H12       1.0  0.4299484262452113  0.4239615640578975  0.4130002429333571  1.0000
  H   H13       1.0  0.24443237390609343  0.10661714045366472  0.8889085503306332  1.0000
  H   H14       1.0  0.7444327399701153  0.6066182483865888  0.6110952429291884  1.0000
  H   H15       1.0  0.7555696514371631  0.8933819704778403  0.11109523539376907  1.0000
  H   H16       1.0  0.2555714203678079  0.39338281358555366  0.38890592491407716  1.0000
  H   H17       1.0  0.18062336990289654  0.1803170970830266  0.6853802288235116  1.0000
  H   H18       1.0  0.6806230498717554  0.6803169722264428  0.8146184307436071  1.0000
  H   H19       1.0  0.8193759057588396  0.8196849314796992  0.3146174485034905  1.0000
  H   H20       1.0  0.3193791264071848  0.3196840867673316  0.18538099184121384  1.0000
  H   H21       1.0  0.009874443400939  0.1371617976898776  0.7216386264507192  1.0000
  H   H22       1.0  0.5098748830675249  0.637159598561695  0.7783622755967059  1.0000
  H   H23       1.0  0.9901265899089113  0.8628373117462902  0.27836079613060594  1.0000
  H   H24       1.0  0.4901261502442864  0.3628395108775493  0.2216388922415503  1.0000
  H   H25       1.0  0.08092713403431871  0.06723925606040382  0.5970691274346293  1.0000
  H   H26       1.0  0.5809270122460717  0.5672394422177974  0.9029316937133984  1.0000
  H   H27       1.0  0.9190728317757577  0.9327588778515974  0.4029294225161095  1.0000
  H   H28       1.0  0.4190751640348296  0.4327616167790539  0.0970694741283538  1.0000
  H   H29       1.0  0.294550081071776  0.8721849060472308  0.7815082549961897  1.0000
  H   H30       1.0  0.7945485608994147  0.37218198630127824  0.7184867318998229  1.0000
  H   H31       1.0  0.7054574326943097  0.12782103054892255  0.218485059200006  1.0000
  H   H32       1.0  0.20545338896768336  0.6278161505860284  0.2815118180524223  1.0000
  H   H33       1.0  0.3345013728145646  0.0072813263820706  0.6885922574494998  1.0000
  H   H34       1.0  0.8344990615157926  0.507281187237794  0.811406168612379  1.0000
  H   H35       1.0  0.6654976764382639  0.9927177800787986  0.31140716513031913  1.0000
  H   H36       1.0  0.1654988447659917  0.4927159696623987  0.1885915087070131  1.0000
  H   H37       1.0  0.17736934144318184  0.9049341256389026  0.5369593189111156  1.0000
  H   H38       1.0  0.6773685966520517  0.4049349892517498  0.9630425596615594  1.0000
  H   H39       1.0  0.8226318428062667  0.0950669318656878  0.46303923104449035  1.0000
  H   H40       1.0  0.3226287704307822  0.5950680103829527  0.036962098693024394  1.0000
  H   H41       1.0  0.31167652395379974  0.8101636050467964  0.5691121613079417  1.0000
  H   H42       1.0  0.8116736474547892  0.310163378408653  0.9308861747351501  1.0000
  H   H43       1.0  0.6883255768538703  0.18983647991046843  0.4308863886470461  1.0000
  H   H44       1.0  0.1883253263287301  0.6898347540187758  0.0691141204717667  1.0000
  H   H45       1.0  0.262781522835212  0.5933811291416545  0.646075917084886  1.0000
  H   H46       1.0  0.7627835091842385  0.09338161293413803  0.8539252504057941  1.0000
  H   H47       1.0  0.7372184429768253  0.4066170047734234  0.3539243781227838  1.0000
  H   H48       1.0  0.2372185161560836  0.9066174979927482  0.14607591743321535  1.0000
  H   H49       1.0  0.1062296800799913  0.5547038448354158  0.7158310477576462  1.0000
  H   H50       1.0  0.6062344104578019  0.05470311339470871  0.7841697779447472  1.0000
  H   H51       1.0  0.8937707385547571  0.4453001332910632  0.2841701200867135  1.0000
  H   H52       1.0  0.3937698253494304  0.9452989226108813  0.2158305172714208  1.0000
  H   H53       1.0  0.2235557339233765  0.6689923718177441  0.7810175098394081  1.0000
  H   H54       1.0  0.7235583339143616  0.16899140783176853  0.7189838021706191  1.0000
  H   H55       1.0  0.776445525800277  0.3310096597279682  0.21898453063142398  1.0000
  H   H56       1.0  0.276444758924761  0.8310086786177496  0.28101736567051455  1.0000
  H   H57       1.0  0.123655620112153  0.6459714027137126  0.46672891736506017  1.0000
  H   H58       1.0  0.6236570376009853  0.14597270531445622  0.033272247951970285  1.0000
  H   H59       1.0  0.8763433536743009  0.3540267297183277  0.5332739957272494  1.0000
  H   H60       1.0  0.37634307915065085  0.8540273766690377  0.966727174629973  1.0000
  H   H61       1.0  0.0021747488328359016  0.7621699982702665  0.48659873214279503  1.0000
  H   H62       1.0  0.5021750542173535  0.26217025536889343  0.0134008171969739  1.0000
  H   H63       1.0  0.9978235348043045  0.2378320288109634  0.5134024356973157  1.0000
  H   H64       1.0  0.4978240705047839  0.7378298251254165  0.9865977327557545  1.0000
  H   H65       1.0  0.9792060253933244  0.6069302840597574  0.554104056365233  1.0000
  H   H66       1.0  0.479205938199982  0.1069313249003301  0.9458966032895617  1.0000
  H   H67       1.0  0.020797142920010014  0.3930707764308823  0.4459006019911271  1.0000
  H   H68       1.0  0.5207932619943989  0.8930697296320317  0.0541036919214619  1.0000
  C   C1        1.0  0.8964489915373265  0.6044435727778676  0.07194447636249629  1.0000
  C   C2        1.0  0.39645877363971493  0.1044572265907888  0.4280325570576479  1.0000
  C   C3        1.0  0.1035424233656244  0.3955594179171128  0.9280523283313825  1.0000
  C   C4        1.0  0.6035474352892153  0.8955574733248994  0.5719494129793502  1.0000
  C   C5        1.0  0.936097155746666  0.6794303728285344  0.9765645042338063  1.0000
  C   C6        1.0  0.4360853052145899  0.1794055616233123  0.5234476297844637  1.0000
  C   C7        1.0  0.0639022708566301  0.3205736038056913  0.023434045724400193  1.0000
  C   C8        1.0  0.5639094095022017  0.820576007768047  0.476564882195376  1.0000
  C   C9        1.0  0.7712359366538095  0.611728787912199  0.1191335207150601  1.0000
  C   C10       1.0  0.27122356181353513  0.11173932074324709  0.3808660307792167  1.0000
  C   C11       1.0  0.22876342539591826  0.3882615537230479  0.8808667744816316  1.0000
  C   C12       1.0  0.7287628174873434  0.888262688495409  0.6191403728226277  1.0000
  C   C13       1.0  0.1590452560683033  0.03302907834941491  0.880099201954749  1.0000
  C   C14       1.0  0.6590464075199023  0.5330272966811763  0.6198999001060271  1.0000
  C   C15       1.0  0.8409550116209631  0.9669729516994252  0.11989760274454396  1.0000
  C   C16       1.0  0.3409556178223808  0.46697181424878664  0.3801030129899061  1.0000
  C   C17       1.0  0.10107916503892514  0.10009177265722971  0.6868094256982075  1.0000
  C   C18       1.0  0.601080599447272  0.600088723640205  0.8131906420228956  1.0000
  C   C19       1.0  0.8989210271829933  0.8999092833612465  0.3131899968851073  1.0000
  C   C20       1.0  0.39892333447978967  0.39990941622700404  0.18681052581624866  1.0000
  C   C21       1.0  0.2547730609508463  0.9317359657017905  0.7119327650686387  1.0000
  C   C22       1.0  0.7547716969643617  0.4317332909885324  0.7880649400649842  1.0000
  C   C23       1.0  0.7452250717378849  0.06826411329718951  0.2880614217410127  1.0000
  C   C24       1.0  0.24522620932329894  0.5682638659208764  0.21193797302519352  1.0000
  C   C25       1.0  0.21982539843468635  0.8464184653083394  0.6057634087044406  1.0000
  C   C26       1.0  0.7198256421593926  0.3464210361643225  0.8942366311193765  1.0000
  C   C27       1.0  0.7801765514314313  0.1535796715774254  0.39423426861934263  1.0000
  C   C28       1.0  0.2801775261519808  0.6535800243232474  0.10576628198005977  1.0000
  C   C29       1.0  0.1823383957330336  0.633860464554353  0.6972189197414309  1.0000
  C   C30       1.0  0.6823392752488786  0.13386076674751732  0.8027831075943224  1.0000
  C   C31       1.0  0.8176657646058701  0.3661405974193244  0.3027831207302896  1.0000
  C   C32       1.0  0.3176648096187549  0.8661393211896494  0.1972180602475717  1.0000
  C   C33       1.0  0.0537594172209097  0.6856173153344753  0.529707386759213  1.0000
  C   C34       1.0  0.5537605972937669  0.18561723342426723  0.9702928399614448  1.0000
  C   C35       1.0  0.9462436756172395  0.3143827711135074  0.47029290845345867  1.0000
  C   C36       1.0  0.44623944398855303  0.814381874525786  0.029707455247589096  1.0000
  N   N1        1.0  0.9696205652640446  0.7425536237137537  0.8942993115793599  1.0000
  N   N2        1.0  0.46961895969121065  0.2425437261081171  0.6056947184286867  1.0000
  N   N3        1.0  0.0303764999170753  0.2574454797487746  0.1056870215719812  1.0000
  N   N4        1.0  0.5303819981473766  0.7574544092915334  0.3943038315228051  1.0000
  N   N5        1.0  0.664277215657826  0.6176846922122151  0.1594916414966505  1.0000
  N   N6        1.0  0.16427178080722635  0.1176834063945336  0.34050863646881163  1.0000
  N   N7        1.0  0.3357184692413071  0.38232220057481214  0.8405060358341956  1.0000
  N   N8        1.0  0.8357294789154538  0.8823186251496437  0.6594925313735586  1.0000
  N   N9        1.0  0.13720304924230223  0.9905531057145041  0.7591070500540056  1.0000
  N   N10       1.0  0.6372008892127354  0.4905541595186875  0.7408915081009793  1.0000
  N   N11       1.0  0.8627990515643946  0.0094469792412184  0.24089062727251329  1.0000
  N   N12       1.0  0.36279930301016355  0.5094468965013235  0.25910878711079727  1.0000
  N   N13       1.0  0.12103382562621329  0.7379098804129852  0.634685585229789  1.0000
  N   N14       1.0  0.6210318694293945  0.2379103983676174  0.8653148846136529  1.0000
  N   N15       1.0  0.8789691917406586  0.2620892319984804  0.36531383735304956  1.0000
  N   N16       1.0  0.378967255296658  0.7620896821328388  0.1346871558529301  1.0000
