data_image0
_chemical_formula_structural       Dy2H38C60N10O14
_chemical_formula_sum              "Dy2 H38 C60 N10 O14"
_cell_length_a       10.443875659912052
_cell_length_b       11.179686853777264
_cell_length_c       13.488
_cell_angle_alpha    110.10838946710234
_cell_angle_beta     101.39742738855654
_cell_angle_gamma    107.7692865604162

_space_group_name_H-M_alt    "P 1"
_space_group_IT_number       1

loop_
  _space_group_symop_operation_xyz
  'x, y, z'

loop_
  _atom_site_type_symbol
  _atom_site_label
  _atom_site_symmetry_multiplicity
  _atom_site_fract_x
  _atom_site_fract_y
  _atom_site_fract_z
  _atom_site_occupancy
  Dy  Dy1       1.0  0.49969927238791456  0.9158326628985661  0.623646048038182  1.0000
  Dy  Dy2       1.0  0.5003008531060757  0.0841679200885608  0.3763536924524686  1.0000
  H   H1        1.0  0.4148758975589999  0.5635948615172737  0.9915008465533572  1.0000
  H   H2        1.0  0.5851233617524656  0.43640363751229216  0.008498908954010242  1.0000
  H   H3        1.0  0.26880083005350736  0.3212993673806608  0.9600328366921856  1.0000
  H   H4        1.0  0.7311998391098411  0.6787001736276891  0.03996817286423484  1.0000
  H   H5        1.0  0.9616698428050154  0.4515831844111631  0.3859342848406654  1.0000
  H   H6        1.0  0.03832941650644977  0.5484153146184028  0.6140654706666949  1.0000
  H   H7        1.0  0.031588430298533886  0.30850074199908306  0.47603204586966535  1.0000
  H   H8        1.0  0.9684099628304137  0.6914956730729145  0.5239669832546453  1.0000
  H   H9        1.0  0.23984537354910165  0.24805138492940418  0.44706563572378133  1.0000
  H   H10       1.0  0.7601548625229951  0.7519471141001617  0.552932786441822  1.0000
  H   H11       1.0  0.07165220121892447  0.6874309138436132  0.29300348276857585  1.0000
  H   H12       1.0  0.928345537662551  0.31256862716472966  0.7069963370147717  1.0000
  H   H13       1.0  0.8049663113305385  0.5593967290038506  0.21326478480518316  1.0000
  H   H14       1.0  0.19503424725471055  0.4406048959620604  0.7867382844760441  1.0000
  H   H15       1.0  0.6568427862954492  0.6764484574793812  0.2965698705631396  1.0000
  H   H16       1.0  0.34315636243791664  0.32355212550774576  0.703431203269261  1.0000
  H   H17       1.0  0.8494361572253339  0.0627219127936272  0.7717795416638323  1.0000
  H   H18       1.0  0.15056494502928075  0.9372786701934998  0.22822034828459434  1.0000
  H   H19       1.0  0.0336530217395818  0.2201565709515236  0.9658004480102419  1.0000
  H   H20       1.0  0.966347214332508  0.7798419280780422  0.03419945695489452  1.0000
  H   H21       1.0  0.9518930416804067  0.3148005457161744  0.12538430943533288  1.0000
  H   H22       1.0  0.04810676130042412  0.6851969113346071  0.8746159737380379  1.0000
  H   H23       1.0  0.7446663157993143  0.3182359497610392  0.1955421874792691  1.0000
  H   H24       1.0  0.25533337660341715  0.6817635912473108  0.8044571898198569  1.0000
  H   H25       1.0  0.4854619127880397  0.24894748668207708  0.15504084748999958  1.0000
  H   H26       1.0  0.5145401662271992  0.7510530963050499  0.8449577091166702  1.0000
  H   H27       1.0  0.23585659451847357  0.11617021442580719  0.015276382232030981  1.0000
  H   H28       1.0  0.7641432084623573  0.8838272426249744  0.9847239009413399  1.0000
  H   H29       1.0  0.07509180561140028  0.9610493321514895  0.8137251262799126  1.0000
  H   H30       1.0  0.9249084304606896  0.0389491668780764  0.18627477868522388  1.0000
  H   H31       1.0  0.18716195759175488  0.8917327356454123  0.6673746231049832  1.0000
  H   H32       1.0  0.8128382784803349  0.1082657633841535  0.332625281860146  1.0000
  H   H33       1.0  0.4920100813383143  0.7576915431263487  0.18525400774655756  1.0000
  H   H34       1.0  0.5079896110644171  0.24230799788199417  0.8147446281528091  1.0000
  H   H35       1.0  0.25879785635670766  0.6519442424587396  0.531486264118108  1.0000
  H   H36       1.0  0.7412037895672724  0.3480552985496103  0.4685134120965627  1.0000
  H   H37       1.0  0.36391059035243245  0.6472574218964695  0.6305159798065958  1.0000
  H   H38       1.0  0.6360905119021821  0.35274316109065745  0.3694846515415903  1.0000
  C   C1        1.0  0.4270028002547902  0.7450627602862666  0.3606836854453944  1.0000
  C   C2        1.0  0.5729965696347745  0.2549336547857308  0.6393169759362108  1.0000
  C   C3        1.0  0.3799728818665073  0.6239629442419455  0.24840423389633054  1.0000
  C   C4        1.0  0.6200257231975002  0.37603868072396546  0.7515955708703003  1.0000
  C   C5        1.0  0.3832828374373917  0.5439025045127579  0.05853066818429647  1.0000
  C   C6        1.0  0.6167168549653325  0.456097036495592  0.9414687091148294  1.0000
  C   C7        1.0  0.30182335083884476  0.4096174889586592  0.04148806883192437  1.0000
  C   C8        1.0  0.6981759084726207  0.5903810100708995  0.9585116866754361  1.0000
  C   C9        1.0  0.29648156129213277  0.48499631801949045  0.22252730923290892  1.0000
  C   C10       1.0  0.7035189972931162  0.5150053069464205  0.7774727944492736  1.0000
  C   C11       1.0  0.23395762231943  0.4425846556482114  0.30196005672892307  1.0000
  C   C12       1.0  0.7660409827445702  0.5574169693176998  0.6980397480377076  1.0000
  C   C13       1.0  0.052928736059826086  0.4256764659496994  0.377255602854909  1.0000
  C   C14       1.0  0.9470715000122637  0.5743220330798664  0.6227443021102275  1.0000
  C   C15       1.0  0.09130705221463839  0.3451242122353193  0.4269576222362232  1.0000
  C   C16       1.0  0.9086922070968271  0.6548742867942465  0.5730421332711444  1.0000
  C   C17       1.0  0.20646877402730007  0.3123268880872629  0.41166835868037305  1.0000
  C   C18       1.0  0.7935318951360557  0.6876726529210799  0.5883311680765289  1.0000
  C   C19       1.0  0.2807656585394014  0.3628555651717633  0.3489175279395766  1.0000
  C   C20       1.0  0.7192344669545889  0.6371450178153637  0.6510836953506001  1.0000
  C   C21       1.0  0.4057449592024722  0.3283525217572745  0.3334292720598029  1.0000
  C   C22       1.0  0.5942579859952913  0.6716501451874207  0.6665714937294493  1.0000
  C   C23       1.0  0.22595855348088625  0.9385415484775094  0.45713308204225467  1.0000
  C   C24       1.0  0.7740430924430868  0.0614579925308334  0.542870301171227  1.0000
  C   C25       1.0  0.0648611284882321  0.8717350788577178  0.4118228483716991  1.0000
  C   C26       1.0  0.9351388864276586  0.12826758808697747  0.5881782104439921  1.0000
  C   C27       1.0  0.003321725948850879  0.7370905806237715  0.3239743739977285  1.0000
  C   C28       1.0  0.996677422784515  0.2629100023633555  0.6760266998346722  1.0000
  C   C29       1.0  0.8554330738706  0.6650960986474813  0.28024106454261505  1.0000
  C   C30       1.0  0.14456607486276596  0.3349044843396527  0.7197614920893186  1.0000
  C   C31       1.0  0.7728611873687256  0.7307845250339824  0.3261278170196817  1.0000
  C   C32       1.0  0.2271383944559062  0.26921709993192167  0.6738743614040101  1.0000
  C   C33       1.0  0.9727685664612408  0.9298191440918372  0.4526993739102138  1.0000
  C   C34       1.0  0.02723101536339099  0.0701824808740739  0.5473005803141929  1.0000
  C   C35       1.0  0.8186253105085725  0.10567540413163809  0.8445008303411112  1.0000
  C   C36       1.0  0.18137535865478327  0.8943241368767048  0.15549943781554995  1.0000
  C   C37       1.0  0.9203366522613121  0.1930255274209927  0.9522292541684576  1.0000
  C   C38       1.0  0.07966456057140188  0.8069729716085731  0.04777080025444752  1.0000
  C   C39       1.0  0.8751152813182229  0.2449692116916964  0.041126630114540284  1.0000
  C   C40       1.0  0.12488593151449116  0.7550292873378694  0.9588741657081313  1.0000
  C   C41       1.0  0.7273997706776425  0.20667128155248798  0.022161451673184698  1.0000
  C   C42       1.0  0.27260089848571306  0.7933282594558618  0.97783807508371  1.0000
  C   C43       1.0  0.632467139719715  0.11745289030668  0.9103790141694219  1.0000
  C   C44       1.0  0.3675315759223849  0.8825466507016699  0.08961947227216881  1.0000
  C   C45       1.0  0.6708101725380614  0.25269131644647297  0.10973393754846936  1.0000
  C   C46       1.0  0.32919092971655317  0.7473092665406611  0.890265211000191  1.0000
  C   C47       1.0  0.5269287246613388  0.21311800427786656  0.08748739332857268  1.0000
  C   C48       1.0  0.4730723775932758  0.7868825787092604  0.9125117552200945  1.0000
  C   C49       1.0  0.42837423757007537  0.1240381962100869  0.9755943157389594  1.0000
  C   C50       1.0  0.5716264315932803  0.875961344798263  0.024405211017942522  1.0000
  C   C51       1.0  0.48056932685116033  0.0755434617084134  0.8866249421103588  1.0000
  C   C52       1.0  0.5194299324603051  0.9244550373211524  0.11337333059747585  1.0000
  C   C53       1.0  0.2788289533825008  0.08107949497816239  0.948421822667214  1.0000
  C   C54       1.0  0.7211697622596063  0.9189200460301805  0.05157814657390247  1.0000
  C   C55       1.0  0.1909560844639841  0.9971851563176627  0.8380649870702752  1.0000
  C   C56       1.0  0.8090442621862123  0.0028112587543347  0.16193508236933946  1.0000
  C   C57       1.0  0.2525267159237075  0.9563645955467875  0.7553801430548076  1.0000
  C   C58       1.0  0.7474744969090067  0.0436339034827782  0.24461916996833108  1.0000
  C   C59       1.0  0.4240938686164454  0.6511658843084475  0.16433949328695974  1.0000
  C   C60       1.0  0.575905823786286  0.34883365669990235  0.8356598840121661  1.0000
  N   N1        1.0  0.2597923387879674  0.3797324955068149  0.12109661128840088  1.0000
  N   N2        1.0  0.740207353614764  0.620267045501535  0.8789042488102508  1.0000
  N   N3        1.0  0.12169480759987286  0.4734053460464622  0.3152976318016272  1.0000
  N   N4        1.0  0.8783048848028512  0.5265941949618806  0.6847024868972581  1.0000
  N   N5        1.0  0.829778212537505  0.8594897442094761  0.4089764563371076  1.0000
  N   N6        1.0  0.17022136928712678  0.14051188075643486  0.5910242392870585  1.0000
  N   N7        1.0  0.6788459318694038  0.0702960565613324  0.823526953911532  1.0000
  N   N8        1.0  0.3211537605333277  0.9297034844470176  0.17647242338759378  1.0000
  N   N9        1.0  0.39290055343757757  0.9936841076095247  0.7783479387376673  1.0000
  N   N10       1.0  0.6070996826345122  0.006314391420041  0.22165122482770264  1.0000
  O   O1        1.0  0.4581088216979268  0.8644922843427523  0.36122348981142943  1.0000
  O   O2        1.0  0.5418930361611132  0.1355124665595113  0.6387784448450873  1.0000
  O   O3        1.0  0.43520732744404705  0.7240272926315185  0.4478420587185282  1.0000
  O   O4        1.0  0.5647904114374285  0.2759722483768314  0.5521533126662419  1.0000
  O   O5        1.0  0.5174209896469505  0.418688956236366  0.3381582618890419  1.0000
  O   O6        1.0  0.4825771823257908  0.581311626750761  0.66184266248559  1.0000
  O   O7        1.0  0.3877081829595639  0.20343385347624116  0.31655978025298026  1.0000
  O   O8        1.0  0.6122915094431675  0.7965656875321088  0.6834395970461458  1.0000
  O   O9        1.0  0.2821976380906364  0.898225305437208  0.5247703658631623  1.0000
  O   O10       1.0  0.7178023768252543  0.1017773615074873  0.47522624455395157  1.0000
  O   O11       1.0  0.28935190031491936  0.0127798697634987  0.41444162475112717  1.0000
  O   O12       1.0  0.7106493032966624  0.9872280070751032  0.5855596177649005  1.0000
  O   O13       1.0  0.3106534808038006  0.7031022747276765  0.6120134273592582  1.0000
  O   O14       1.0  0.6893467552682893  0.2968962243018893  0.3879872190056446  1.0000
