data_image0
_chemical_formula_structural       Cd8H20C28N4O24
_chemical_formula_sum              "Cd8 H20 C28 N4 O24"
_cell_length_a       6.0565155191075934
_cell_length_b       10.627483017005485
_cell_length_c       15.442519506813591
_cell_angle_alpha    107.72809106330187
_cell_angle_beta     89.99936684222214
_cell_angle_gamma    90.00044911109725

_space_group_name_H-M_alt    "P 1"
_space_group_IT_number       1

loop_
  _space_group_symop_operation_xyz
  'x, y, z'

loop_
  _atom_site_type_symbol
  _atom_site_label
  _atom_site_symmetry_multiplicity
  _atom_site_fract_x
  _atom_site_fract_y
  _atom_site_fract_z
  _atom_site_occupancy
  Cd  Cd1       1.0  0.2185351445541812  0.4665584517669146  0.6859988406041067  1.0000
  Cd  Cd2       1.0  0.7185358365097085  0.5334343661680166  0.8140008566046999  1.0000
  Cd  Cd3       1.0  0.7814668465138225  0.5334391699584417  0.3140007348159202  1.0000
  Cd  Cd4       1.0  0.28146120122337953  0.46656523122698723  0.18599912274110866  1.0000
  Cd  Cd5       1.0  0.23125645582603477  0.42590501527836006  0.9373990654925421  1.0000
  Cd  Cd6       1.0  0.7312581981819335  0.5740937790130617  0.5626030937202912  1.0000
  Cd  Cd7       1.0  0.7687405818979727  0.5740945898189836  0.0626015630103822  1.0000
  Cd  Cd8       1.0  0.268748746245862  0.42590779407140655  0.4373972895232328  1.0000
  H   H1        1.0  0.4623398097300395  0.33547064355234824  0.7756360207174068  1.0000
  H   H2        1.0  0.962344881051443  0.6645257880132223  0.7243633613331042  1.0000
  H   H3        1.0  0.5376621813504058  0.6645299416873913  0.22436416057726657  1.0000
  H   H4        1.0  0.0376554589055118  0.3354748049266477  0.27563746912179704  1.0000
  H   H5        1.0  0.5286930265206635  0.3519656581370541  0.5577538938555477  1.0000
  H   H6        1.0  0.0286909889063196  0.6480335453360057  0.9422459867641064  1.0000
  H   H7        1.0  0.4713155690347719  0.6480368950854114  0.44224604218597097  1.0000
  H   H8        1.0  0.9713043976809672  0.35196508732568094  0.0577557380979385  1.0000
  H   H9        1.0  0.17575307220555195  0.014119929320337099  0.5792392406217741  1.0000
  H   H10       1.0  0.6757472538831166  0.9858737392577129  0.9207588727047167  1.0000
  H   H11       1.0  0.8242456166816369  0.9858826084842394  0.42075939712423593  1.0000
  H   H12       1.0  0.32425143494127445  0.014126869084634603  0.0792432560675209  1.0000
  H   H13       1.0  0.5458655625596762  0.0983057942328784  0.7148699469466137  1.0000
  H   H14       1.0  0.0458682368798975  0.9016845413872479  0.7851261036959299  1.0000
  H   H15       1.0  0.4541281729941887  0.9016947524841687  0.2851269885780994  1.0000
  H   H16       1.0  0.9541370564317334  0.09831009372112483  0.21487091837188638  1.0000
  H   H17       1.0  0.4740547331941727  0.8541932504606109  0.6655722624316737  1.0000
  H   H18       1.0  0.9740592708977545  0.1457963205824626  0.8344276091280276  1.0000
  H   H19       1.0  0.525948908956039  0.14580538991442185  0.3344301115718905  1.0000
  H   H20       1.0  0.025937766815395898  0.854196354243314  0.1655703073531782  1.0000
  C   C1        1.0  0.9680578153379501  0.8486102058488215  0.5767710735556121  1.0000
  C   C2        1.0  0.4680575404323477  0.151384272982888  0.9232285321446766  1.0000
  C   C3        1.0  0.0319441757598753  0.15139234736483337  0.42322886249837666  1.0000
  C   C4        1.0  0.5319378461772573  0.848615332112253  0.07677209636136693  1.0000
  C   C5        1.0  0.0188476251310377  0.9828254347025692  0.6002190691824579  1.0000
  C   C6        1.0  0.5188501532532471  0.0171697988734252  0.8997806899459488  1.0000
  C   C7        1.0  0.9811494126326608  0.017177110802144607  0.399780217723773  1.0000
  C   C8        1.0  0.4811501866855393  0.9828308094711178  0.10022143882316935  1.0000
  C   C9        1.0  0.8678468060989603  0.07519183947613331  0.6516773965905998  1.0000
  C   C10       1.0  0.3678480279982494  0.9247973867380923  0.8483176829418183  1.0000
  C   C11       1.0  0.1321469294863107  0.9248096719720353  0.34831779342099617  1.0000
  C   C12       1.0  0.6321572652588614  0.0751972945842923  0.15168323406866338  1.0000
  C   C13       1.0  0.667853264668615  0.02925820179038401  0.6753518528513069  1.0000
  C   C14       1.0  0.16785745439628394  0.970736433574125  0.8246464922577201  1.0000
  C   C15       1.0  0.332143773104967  0.9707423526334016  0.32464573182427614  1.0000
  C   C16       1.0  0.8321461877869183  0.02925920477484571  0.1753520300856479  1.0000
  C   C17       1.0  0.6280546924597488  0.8939161851579345  0.6486756672112008  1.0000
  C   C18       1.0  0.1280524990214786  0.10607638380272993  0.8513237226553655  1.0000
  C   C19       1.0  0.37194729862069664  0.1060844000818051  0.3513245140834725  1.0000
  C   C20       1.0  0.8719461898177201  0.893921237918221  0.1486758527709  1.0000
  C   C21       1.0  0.1298118442150766  0.7459279707681362  0.5220364758180693  1.0000
  C   C22       1.0  0.6297990120788838  0.2540724901641698  0.9779632247820657  1.0000
  C   C23       1.0  0.8701934491016701  0.25407657353084556  0.47796516246033594  1.0000
  C   C24       1.0  0.37019307230191595  0.7459271149265662  0.022037403730216475  1.0000
  C   C25       1.0  0.9246292030703387  0.22075652151535513  0.684156391990939  1.0000
  C   C26       1.0  0.4246408374475408  0.7792377799102114  0.8158381844909213  1.0000
  C   C27       1.0  0.07535957921142261  0.7792479303335824  0.31583745643332856  1.0000
  C   C28       1.0  0.5753677579913585  0.22076090668544884  0.18416808444595031  1.0000
  N   N1        1.0  0.7762224268439795  0.8053342408545134  0.6020172199948559  1.0000
  N   N2        1.0  0.276221824163315  0.1946577584696243  0.8979833556462608  1.0000
  N   N3        1.0  0.2237828664603256  0.19466733993009203  0.3979838124089027  1.0000
  N   N4        1.0  0.7237719113103651  0.8053388908112709  0.10201731614536405  1.0000
  O   O1        1.0  0.4005817847114912  0.4240661009277602  0.801829554239134  1.0000
  O   O2        1.0  0.9005879909739606  0.5759291858244211  0.6981705083123797  1.0000
  O   O3        1.0  0.599415252999286  0.5759325240337958  0.19817152146268305  1.0000
  O   O4        1.0  0.0994156512159492  0.42407239495797466  0.30183052409449823  1.0000
  O   O5        1.0  0.4506650616056689  0.4389363309566292  0.5730868892473919  1.0000
  O   O6        1.0  0.9506646159696217  0.5610630329849968  0.9269131427920596  1.0000
  O   O7        1.0  0.5493385806107085  0.561067210097356  0.42691324876169284  1.0000
  O   O8        1.0  0.04933077061351549  0.4389346118385618  0.07308838011177697  1.0000
  O   O9        1.0  0.0743023637876803  0.6246655522414813  0.5083511821162076  1.0000
  O   O10       1.0  0.5742991178359702  0.3753268887907027  0.9916497091275713  1.0000
  O   O11       1.0  0.9257062317090857  0.3753360593568686  0.4916524469097538  1.0000
  O   O12       1.0  0.42569461762368377  0.6246707637329862  0.008352462936493131  1.0000
  O   O13       1.0  0.3042527416498472  0.7848932240337094  0.4946831915519709  1.0000
  O   O14       1.0  0.8042543190987174  0.21510335832242336  0.005316911718402712  1.0000
  O   O15       1.0  0.6957509005706726  0.2151113048584037  0.5053171484153296  1.0000
  O   O16       1.0  0.19574271863102413  0.7848932678558641  0.9946818125956581  1.0000
  O   O17       1.0  0.09428616627528902  0.2541649810992156  0.6480407020234792  1.0000
  O   O18       1.0  0.5942788884655813  0.74582740538213  0.8519510255352498  1.0000
  O   O19       1.0  0.9057026159807933  0.7458355270995443  0.35195298772504197  1.0000
  O   O20       1.0  0.4057264047379974  0.2541762435067696  0.14805820067025616  1.0000
  O   O21       1.0  0.8037557229777903  0.29486657055485216  0.7461191978197091  1.0000
  O   O22       1.0  0.303758146874948  0.7051273238209819  0.7538686945769654  1.0000
  O   O23       1.0  0.19622810602021448  0.7051368395329974  0.2538699045559341  1.0000
  O   O24       1.0  0.6962587040970689  0.2948664389997192  0.24613786286745656  1.0000
