data_image0
_chemical_formula_structural       Cu4H48C56N8O16
_chemical_formula_sum              "Cu4 H48 C56 N8 O16"
_cell_length_a       7.696420176
_cell_length_b       12.730348048078524
_cell_length_c       14.005
_cell_angle_alpha    108.09224381027973
_cell_angle_beta     90.0
_cell_angle_gamma    90.0

_space_group_name_H-M_alt    "P 1"
_space_group_IT_number       1

loop_
  _space_group_symop_operation_xyz
  'x, y, z'

loop_
  _atom_site_type_symbol
  _atom_site_label
  _atom_site_symmetry_multiplicity
  _atom_site_fract_x
  _atom_site_fract_y
  _atom_site_fract_z
  _atom_site_occupancy
  Cu  Cu1       1.0  0.9810716966240631  0.10229377903604592  0.3196291526211539  1.0000
  Cu  Cu2       1.0  0.48107170805795346  0.39770657742412396  0.18037098370322005  1.0000
  Cu  Cu3       1.0  0.0189256818974357  0.8977052811189452  0.6803720815405397  1.0000
  Cu  Cu4       1.0  0.5189256704635525  0.6022949618788829  0.8196280941583466  1.0000
  H   H1        1.0  0.9980835017238261  0.1327385430499959  0.1396055718715843  1.0000
  H   H2        1.0  0.4980835131577165  0.3672626397928411  0.36039408369631326  1.0000
  H   H3        1.0  0.0019177747137603997  0.8672613434876624  0.8603958955643449  1.0000
  H   H4        1.0  0.5019190625852303  0.6327388995101586  0.6396057081959583  1.0000
  H   H5        1.0  0.13837212309703514  0.219473189140281  0.21500043812613967  1.0000
  H   H6        1.0  0.6383747102738722  0.2805271673198817  0.28499898416752956  1.0000
  H   H7        1.0  0.8616291533405513  0.7805242182493615  0.7849996154563996  1.0000
  H   H8        1.0  0.3616304640797949  0.7194768511311337  0.7150022215781249  1.0000
  H   H9        1.0  0.6333334054707647  0.8655457730608874  0.07056210023914392  1.0000
  H   H10       1.0  0.13333601551537544  0.6344552963196151  0.4294361666418637  1.0000
  H   H11       1.0  0.3666639730507341  0.1344532870941038  0.9294334216769258  1.0000
  H   H12       1.0  0.866663961616851  0.3655487221314075  0.5705700373187169  1.0000
  H   H13       1.0  0.1065950118677605  0.9527481517434425  0.026952976857380354  1.0000
  H   H14       1.0  0.6065988983499577  0.5472529176370529  0.4730474321157345  1.0000
  H   H15       1.0  0.8934023666537383  0.0472509084115416  0.9730468292429105  1.0000
  H   H16       1.0  0.3934023780876287  0.4527511008139626  0.5269537736299199  1.0000
  H   H17       1.0  0.403621414756813  0.1605744169688847  0.27375950368660534  1.0000
  H   H18       1.0  0.9036227026282901  0.3394251131086037  0.22624111339424496  1.0000
  H   H19       1.0  0.5963785623754134  0.8394229904207579  0.7262398358652361  1.0000
  H   H20       1.0  0.0963798731146639  0.6605772525770703  0.7737631959564693  1.0000
  H   H21       1.0  0.10459018369477487  0.8767581331526628  0.22829196324178713  1.0000
  H   H22       1.0  0.6045836757340763  0.623241283462491  0.2717065511214684  1.0000
  H   H23       1.0  0.8954123920481718  0.1232401006196469  0.7717104657070876  1.0000
  H   H24       1.0  0.3954098048713418  0.3767561239271587  0.728289218276849  1.0000
  H   H25       1.0  0.2791245736165777  0.7376242146051553  0.2802727279657233  1.0000
  H   H26       1.0  0.7791219635719668  0.7623752020099985  0.21972650042823713  1.0000
  H   H27       1.0  0.7208806007370965  0.2623748455498358  0.7197285061959773  1.0000
  H   H28       1.0  0.22087931286562673  0.23762303176231822  0.7802723583671209  1.0000
  H   H29       1.0  0.33836250366380927  0.9820682089409942  0.571083884179316  1.0000
  H   H30       1.0  0.8383637915352792  0.5179320340568268  0.9289162915195702  1.0000
  H   H31       1.0  0.6616400720791447  0.017931677596664  0.42891686922590105  1.0000
  H   H32       1.0  0.16163618559694726  0.482069505246173  0.07108135828058688  1.0000
  H   H33       1.0  0.1572874105515822  0.10990724259188059  0.5079082616654843  1.0000
  H   H34       1.0  0.6572860998123318  0.390092287485615  0.9920902133232515  1.0000
  H   H35       1.0  0.8427151651913645  0.890093470328452  0.4920927250139612  1.0000
  H   H36       1.0  0.3427112787091673  0.6099067726693761  0.00790388053140838  1.0000
  H   H37       1.0  0.5691633122708024  0.7940124362194396  0.4722980135032984  1.0000
  H   H38       1.0  0.06916462301005308  0.7059853276303656  0.0277014623729173  1.0000
  H   H39       1.0  0.4308366648614238  0.2059866239355443  0.5277039346891073  1.0000
  H   H40       1.0  0.9308366534275334  0.2940120797592769  0.9722964491175148  1.0000
  H   H41       1.0  0.4224743355539999  0.6849836384077505  0.41305828642570924  1.0000
  H   H42       1.0  0.9224769227308369  0.8150166045900774  0.08694117524247956  1.0000
  H   H43       1.0  0.5775269408835866  0.315017074512582  0.586943414284441  1.0000
  H   H44       1.0  0.0775269523174771  0.1849832819475807  0.913056008009228  1.0000
  H   H45       1.0  0.39063875558345257  0.7702398858980787  0.5404349682507429  1.0000
  H   H46       1.0  0.8906387441495622  0.7297587043344009  0.9595647408996939  1.0000
  H   H47       1.0  0.6093638201595011  0.2297591742569054  0.4595662659109578  1.0000
  H   H48       1.0  0.10936253228802427  0.2702395294379158  0.04043268983426168  1.0000
  C   C1        1.0  0.7013052661588473  0.046320401523033204  0.23439287363752467  1.0000
  C   C2        1.0  0.20130657689809783  0.4536799549371366  0.2656079767175541  1.0000
  C   C3        1.0  0.298694710973379  0.953681964162641  0.7656042954061631  1.0000
  C   C4        1.0  0.7986946995394888  0.5463215843658702  0.7343953853282341  1.0000
  C   C5        1.0  0.3512581093779373  0.8012870828798171  0.9478745540166003  1.0000
  C   C6        1.0  0.851258097944054  0.6987123337353367  0.5521261024387696  1.0000
  C   C7        1.0  0.6487392691435616  0.1987128036578412  0.052127627450026595  1.0000
  C   C8        1.0  0.14873798127208457  0.3012875528023216  0.44787322290504494  1.0000
  C   C9        1.0  0.536740446276802  0.0163475020147104  0.17792487710548952  1.0000
  C   C10       1.0  0.0367404577106853  0.4836536808281267  0.32207335040099844  1.0000
  C   C11       1.0  0.4632608301607916  0.9836532109056222  0.8220718253897343  1.0000
  C   C12       1.0  0.9632634173376216  0.5163478584748802  0.6779285835833803  1.0000
  C   C13       1.0  0.5232211739890857  0.920856391671066  0.09494795876907595  1.0000
  C   C14       1.0  0.02322248472833619  0.579143851326755  0.4050500748377032  1.0000
  C   C15       1.0  0.4767775038377805  0.0791418421012509  0.9050480439034698  1.0000
  C   C16       1.0  0.9767787917092503  0.4208576879762447  0.594953287208085  1.0000
  C   C17       1.0  0.36761246596471847  0.8993663102893805  0.04097448647898011  1.0000
  C   C18       1.0  0.8676137538361957  0.6006339327084476  0.4590235471277991  1.0000
  C   C19       1.0  0.6323849125567802  0.10063192348293631  0.9590250863470827  1.0000
  C   C20       1.0  0.1323862232960309  0.399366780211885  0.5409774395516465  1.0000
  C   C21       1.0  0.22604665028880785  0.9714615873476831  0.07070458990718717  1.0000
  C   C22       1.0  0.7260466388549174  0.5285403084154794  0.4292946242787536  1.0000
  C   C23       1.0  0.7739481296219708  0.0285366464246266  0.9292949829188757  1.0000
  C   C24       1.0  0.2739494403612213  0.4714620572701946  0.570706114918451  1.0000
  C   C25       1.0  0.23863821854832415  0.0661188775754269  0.1543893691073208  1.0000
  C   C26       1.0  0.7386395064197941  0.4338831316500844  0.3456098057041004  1.0000
  C   C27       1.0  0.7613565613624542  0.9338793561968899  0.8456109177494467  1.0000
  C   C28       1.0  0.2613591714070651  0.5661208868009311  0.654391400041554  1.0000
  C   C29       1.0  0.3955540277664795  0.08798826860349608  0.2076309281913566  1.0000
  C   C30       1.0  0.8955540163325892  0.41201291423934094  0.292368727376541  1.0000
  C   C31       1.0  0.6044433507550193  0.9120099651688207  0.7923672165732967  1.0000
  C   C32       1.0  0.10444726010499747  0.5879902778290074  0.7076351012177042  1.0000
  C   C33       1.0  0.1598769261373008  0.8964491794577185  0.30335702631443695  1.0000
  C   C34       1.0  0.6598730167873299  0.603549410774761  0.19664196880529514  1.0000
  C   C35       1.0  0.840125649605646  0.1035490543145983  0.6966446886037332  1.0000
  C   C36       1.0  0.3401243617341691  0.39644799661488145  0.803355228654432  1.0000
  C   C37       1.0  0.2576548518210727  0.8200658027151349  0.33276490990387225  1.0000
  C   C38       1.0  0.757652241776462  0.6799344402826932  0.1672352657950142  1.0000
  C   C39       1.0  0.7423477239218739  0.1799340838225234  0.667235843501345  1.0000
  C   C40       1.0  0.2423490346611246  0.3200646198722978  0.8327638262745721  1.0000
  C   C41       1.0  0.3259281513530538  0.8484470891974567  0.43022524826408653  1.0000
  C   C42       1.0  0.8259281399191636  0.6515531538003714  0.06977564146551171  1.0000
  C   C43       1.0  0.6740744243899002  0.1515544501055501  0.5697781137817016  1.0000
  C   C44       1.0  0.17407183721306294  0.3484467327372869  0.9302236838783031  1.0000
  C   C45       1.0  0.2903492726356589  0.9553603473691865  0.49411234883561406  1.0000
  C   C46       1.0  0.7903492612017684  0.5446407220113088  0.005888060137508039  1.0000
  C   C47       1.0  0.7096520038019276  0.04464036555113889  0.5058886378438388  1.0000
  C   C48       1.0  0.20964941662509054  0.4553599909090238  0.9941100704191256  1.0000
  C   C49       1.0  0.19097839857853666  0.0271780733120934  0.45995610700811074  1.0000
  C   C50       1.0  0.690977087839286  0.4728222831480693  0.04004331528555838  1.0000
  C   C51       1.0  0.8090241771644173  0.9728209868428976  0.5400451271535828  1.0000
  C   C52       1.0  0.3090215899875801  0.527177603389589  0.9599531539354442  1.0000
  C   C53       1.0  0.4317448793091997  0.7691870743741305  0.4651388479311861  1.0000
  C   C54       1.0  0.9317422692645889  0.7308123422410233  0.034861808524183906  1.0000
  C   C55       1.0  0.5682602950444744  0.2308119857808535  0.5348638142919171  1.0000
  C   C56       1.0  0.06825770786763737  0.2691867179139678  0.9651372835454094  1.0000
  N   N1        1.0  0.0972569042337597  0.1385124787782743  0.19006302048303775  1.0000
  N   N2        1.0  0.5972581921052293  0.3614887040645627  0.309935921054155  1.0000
  N   N3        1.0  0.9027417735931065  0.8614865813767166  0.8099367856172532  1.0000
  N   N4        1.0  0.4027430843323571  0.6385144880037856  0.6900643373865663  1.0000
  N   N5        1.0  0.1263379568376592  0.9985851194034366  0.36586843541108743  1.0000
  N   N6        1.0  0.6263340474876884  0.5014134708290428  0.1341305597086446  1.0000
  N   N7        1.0  0.87366202029456  0.0014131143688799997  0.634132565476385  1.0000
  N   N8        1.0  0.3736607324230903  0.4985855893259412  0.8658663902688344  1.0000
  O   O1        1.0  0.7196475599489175  0.1418155303176931  0.29956878422441235  1.0000
  O   O2        1.0  0.21964887068816094  0.3581856525251439  0.20043087134348528  1.0000
  O   O3        1.0  0.280347219961861  0.8581843562199651  0.7004312551501072  1.0000
  O   O4        1.0  0.7803498071386981  0.6418175395432044  0.7995701011279406  1.0000
  O   O5        1.0  0.8308460107129176  0.9790948840876439  0.2200282122063085  1.0000
  O   O6        1.0  0.33084732145216816  0.5209061852928514  0.2799729107975181  1.0000
  O   O7        1.0  0.16915656503003615  0.0209091343633716  0.7799658532323192  1.0000
  O   O8        1.0  0.6691539549854253  0.4790953540101555  0.7200283091561557  1.0000
  O   O9        1.0  0.4805792713258938  0.7325031211876478  0.9333333753476579  1.0000
  O   O10       1.0  0.9805805591973706  0.767496295427506  0.566667281107712  1.0000
  O   O11       1.0  0.5194207058063327  0.2674992444980262  0.06666522175743238  1.0000
  O   O12       1.0  0.0194194179348557  0.2325019383448108  0.4333344338104652  1.0000
  O   O13       1.0  0.22075068163482564  0.79134322018934  0.8926255802338685  1.0000
  O   O14       1.0  0.7207532688116557  0.7086520645124565  0.6073739098503593  1.0000
  O   O15       1.0  0.7792402003598724  0.2086541872003096  0.10737661544077778  1.0000
  O   O16       1.0  0.2792389124883953  0.2913461692598602  0.3926220928221865  1.0000
