data_image0
_chemical_formula_structural       Zn2H42C66N6O8
_chemical_formula_sum              "Zn2 H42 C66 N6 O8"
_cell_length_a       13.815356027986164
_cell_length_b       16.6101605875782
_cell_length_c       17.023225908379974
_cell_angle_alpha    90.00144040389316
_cell_angle_beta     90.35519508766987
_cell_angle_gamma    89.60492070726438

_space_group_name_H-M_alt    "P 1"
_space_group_IT_number       1

loop_
  _space_group_symop_operation_xyz
  'x, y, z'

loop_
  _atom_site_type_symbol
  _atom_site_label
  _atom_site_symmetry_multiplicity
  _atom_site_fract_x
  _atom_site_fract_y
  _atom_site_fract_z
  _atom_site_occupancy
  Zn  Zn1       1.0  0.6007198302266019  0.9995358680979366  0.5003782317359009  1.0000
  Zn  Zn2       1.0  0.3992786096698921  0.00041796419940710004  0.49964340960305237  1.0000
  H   H1        1.0  0.7493041077132503  0.12322274026796264  0.4992450749331139  1.0000
  H   H2        1.0  0.7516415097869142  0.8763862305457693  0.5010649069893203  1.0000
  H   H3        1.0  0.25069256945948126  0.8767660103412497  0.5007853705082752  1.0000
  H   H4        1.0  0.2483754796356621  0.12360192884036539  0.4988933936535103  1.0000
  H   H5        1.0  0.3432646718968826  0.28430264823947476  0.21231201077071654  1.0000
  H   H6        1.0  0.6556759497709947  0.71481370885563  0.21507440162201155  1.0000
  H   H7        1.0  0.3455008067522982  0.7178652423155114  0.7859895425836354  1.0000
  H   H8        1.0  0.6555723322283455  0.2825371222072306  0.7872701012048464  1.0000
  H   H9        1.0  0.6567315880064939  0.7156523874182029  0.787705506862771  1.0000
  H   H10       1.0  0.34433486372574146  0.28513230169917847  0.7849496556607958  1.0000
  H   H11       1.0  0.6545056646414479  0.2820807665148592  0.21403272899966191  1.0000
  H   H12       1.0  0.34444048458312443  0.717428757596295  0.21273869482309485  1.0000
  H   H13       1.0  0.3434686949604994  0.17994382709552076  0.3188512487196958  1.0000
  H   H14       1.0  0.6551948940321495  0.8189682128051602  0.32174649911353714  1.0000
  H   H15       1.0  0.34629427801597495  0.822297320050261  0.6795267642621494  1.0000
  H   H16       1.0  0.6550330545967425  0.17852489315192344  0.6803974857087665  1.0000
  H   H17       1.0  0.656530385030372  0.8200190361064588  0.6811768583754156  1.0000
  H   H18       1.0  0.3448166410725193  0.18097779790492305  0.6782816740877562  1.0000
  H   H19       1.0  0.6536998418125537  0.17765410234177645  0.32049191648491854  1.0000
  H   H20       1.0  0.3449754131658196  0.8214415868809014  0.31961246178254027  1.0000
  H   H21       1.0  0.4990310777946334  0.4180758658089445  0.3000996261067143  1.0000
  H   H22       1.0  0.4996312010767666  0.580996496460628  0.3003682411820988  1.0000
  H   H23       1.0  0.5009868539027166  0.5818833927772648  0.6999291698015069  1.0000
  H   H24       1.0  0.5004040959992508  0.4189639736219633  0.6996535991938158  1.0000
  H   H25       1.0  0.49900147272295914  0.19167067175030897  0.07900839083773548  1.0000
  H   H26       1.0  0.5005558366021958  0.8079988267600343  0.07992224672094038  1.0000
  H   H27       1.0  0.5010129412302077  0.8082783510774405  0.9210010002116246  1.0000
  H   H28       1.0  0.4994353456984299  0.1919574109254114  0.9200952436202879  1.0000
  H   H29       1.0  0.4997769954610262  0.4343359628668253  0.9999344515332209  1.0000
  H   H30       1.0  0.5002272505920757  0.5656160656042886  8.839585360220048e-05  1.0000
  H   H31       1.0  0.0802730689465605  0.2649452831688848  0.4462466728659391  1.0000
  H   H32       1.0  0.17970705620868438  0.22316606523049393  0.49848821414324346  1.0000
  H   H33       1.0  0.0807978789985313  0.2657763928342903  0.5497334729248846  1.0000
  H   H34       1.0  0.914634990845485  0.265510649041083  0.5499284526938266  1.0000
  H   H35       1.0  0.8160151316715128  0.22287328101030823  0.4982542440661602  1.0000
  H   H36       1.0  0.914104925361407  0.264946249327764  0.44642401744904686  1.0000
  H   H37       1.0  0.0861888589778417  0.7351636343892171  0.5536838153537216  1.0000
  H   H38       1.0  0.18399046747494202  0.7771118738066464  0.5014014671255109  1.0000
  H   H39       1.0  0.0850868528022488  0.7343660030881906  0.45018157052562896  1.0000
  H   H40       1.0  0.9189285372179725  0.7343356751394126  0.450101670624427  1.0000
  H   H41       1.0  0.8203039101286862  0.7768281009452663  0.501799016761005  1.0000
  H   H42       1.0  0.9200165144042599  0.7349207748129275  0.553590316045323  1.0000
  C   C1        1.0  0.4999082539946187  0.11216858810393401  0.6087488948052167  1.0000
  C   C2        1.0  0.4984913938719658  0.11116225675885968  0.39018976809312267  1.0000
  C   C3        1.0  0.5000858799649136  0.8877810280000064  0.39127331050553227  1.0000
  C   C4        1.0  0.501486804193334  0.888788556868633  0.6098335262716785  1.0000
  C   C5        1.0  0.7957145328709458  0.0700614673012652  0.49961828111739226  1.0000
  C   C6        1.0  0.8970429782245118  0.07465048642201573  0.49951495094514065  1.0000
  C   C7        1.0  0.948479898201164  0.15002097540914153  0.49888267209566783  1.0000
  C   C8        1.0  0.7970370266994493  0.9296051329730943  0.5005949326074486  1.0000
  C   C9        1.0  0.8984543535431867  0.9251645271919529  0.5005467543439506  1.0000
  C   C10       1.0  0.9513601341675721  0.8498827111669629  0.5011151731507224  1.0000
  C   C11       1.0  0.20428720889202617  0.9299290924311735  0.5003869321184381  1.0000
  C   C12       1.0  0.1029631004527616  0.9253418818921447  0.5004720753568106  1.0000
  C   C13       1.0  0.0515261982003636  0.849970189241475  0.5010914307078096  1.0000
  C   C14       1.0  0.20297123867767647  0.0703860324076118  0.4993838813476825  1.0000
  C   C15       1.0  0.1015524622306998  0.07482663747164511  0.4994355763954415  1.0000
  C   C16       1.0  0.04864668224504949  0.1501084535372854  0.4988659827265493  1.0000
  C   C17       1.0  0.9489438442909018  0.9999494235369254  0.5000021484637002  1.0000
  C   C18       1.0  0.0510629428214102  4.475128159950001e-05  0.4999837068998686  1.0000
  C   C19       1.0  0.41130246122351366  0.2608026060380269  0.23613169764049494  1.0000
  C   C20       1.0  0.5875614705699306  0.7383795423333056  0.23801395499054215  1.0000
  C   C21       1.0  0.41365457309204595  0.7403983765026256  0.7629108286116233  1.0000
  C   C22       1.0  0.5874725418321416  0.2601531337964645  0.7632452299060047  1.0000
  C   C23       1.0  0.5886973216141413  0.7391632681043065  0.7638858396343903  1.0000
  C   C24       1.0  0.4124522008573662  0.26157068379943393  0.7620101179494225  1.0000
  C   C25       1.0  0.5863438992182565  0.2595518434827683  0.2371102252508876  1.0000
  C   C26       1.0  0.4125402850387374  0.7398115418556515  0.23676474096893674  1.0000
  C   C27       1.0  0.41110599001478215  0.2029475701864811  0.2954149703541872  1.0000
  C   C28       1.0  0.5876059400747876  0.7960528268277115  0.2974547171169063  1.0000
  C   C29       1.0  0.4137845924871115  0.7982365269189062  0.7036418825656977  1.0000
  C   C30       1.0  0.5874696666865376  0.202526226309196  0.7037618121556546  1.0000
  C   C31       1.0  0.5888887834805843  0.7970116791823899  0.7046048892543693  1.0000
  C   C32       1.0  0.41240413951902605  0.20389438758093803  0.7025681614178507  1.0000
  C   C33       1.0  0.5862095682979812  0.20171068130909484  0.2963703363867579  1.0000
  C   C34       1.0  0.4125366459120698  0.7974384466851063  0.29624753617873967  1.0000
  C   C35       1.0  0.49941533624554074  0.4341735723297546  0.16777638632795797  1.0000
  C   C36       1.0  0.4998330906464473  0.565319337198524  0.16798570441399352  1.0000
  C   C37       1.0  0.5005845440727014  0.5657808624961406  0.8322487874070316  1.0000
  C   C38       1.0  0.500195728003959  0.43463691573697366  0.8320384505237325  1.0000
  C   C39       1.0  0.49926737872798543  0.4586587710338748  0.25010048663146717  1.0000
  C   C40       1.0  0.4995659451713763  0.5405724350501585  0.2502362820951304  1.0000
  C   C41       1.0  0.5007462546170629  0.5412956694458586  0.7499247612235533  1.0000
  C   C42       1.0  0.5004918058233798  0.4593862380096781  0.7497880289150272  1.0000
  C   C43       1.0  0.4993950850474462  0.3255207174746886  0.06612327809339288  1.0000
  C   C44       1.0  0.5002112485699044  0.6742267651234644  0.06661400056965047  1.0000
  C   C45       1.0  0.50059900580014  0.674433715051947  0.9338995147089191  1.0000
  C   C46       1.0  0.49977198055334054  0.32572826507630753  0.9334063840001572  1.0000
  C   C47       1.0  0.4992723694197707  0.24332745938467332  0.040030346177729784  1.0000
  C   C48       1.0  0.5004680324529004  0.7564880912691408  0.040742767674515776  1.0000
  C   C49       1.0  0.5007181252033703  0.7566245635342383  0.9599894899337538  1.0000
  C   C50       1.0  0.4995130217069388  0.2434675402152636  0.9592740806133261  1.0000
  C   C51       1.0  0.49921192644504936  0.352938075804289  0.14397700243470268  1.0000
  C   C52       1.0  0.5000275339067244  0.6466353282908486  0.14441270288654096  1.0000
  C   C53       1.0  0.500790751127937  0.6470277994876812  0.8560417253065179  1.0000
  C   C54       1.0  0.4999846319518395  0.3533215199168964  0.8556096000413187  1.0000
  C   C55       1.0  0.4989170015252711  0.2899112107398382  0.20657960203552508  1.0000
  C   C56       1.0  0.5000373712020973  0.7094675145035155  0.20721076854997011  1.0000
  C   C57       1.0  0.5010835532975548  0.7100492452016668  0.7934379390723475  1.0000
  C   C58       1.0  0.499969016522698  0.2904881273348678  0.7928079785679569  1.0000
  C   C59       1.0  0.4985821745817347  0.1731390991084041  0.326142682473879  1.0000
  C   C60       1.0  0.500076665348068  0.8258537788526397  0.3271876502342862  1.0000
  C   C61       1.0  0.5014141539014787  0.8268081097683719  0.6738765973544785  1.0000
  C   C62       1.0  0.4999355609471364  0.17409644684757816  0.672831715455082  1.0000
  C   C63       1.0  0.10090225389320298  0.22930655706875314  0.4982970905006281  1.0000
  C   C64       1.0  0.8947126740000753  0.22913814539362684  0.4983309900831399  1.0000
  C   C65       1.0  0.10529487871143317  0.7708530204009846  0.501627259883797  1.0000
  C   C66       1.0  0.8991060041384458  0.7706846078444157  0.5016952343689098  1.0000
  N   N1        1.0  0.7487344922663297  0.9997948287483073  0.5001520528957497  1.0000
  N   N2        1.0  0.2512687170633185  0.00019392565707220002  0.4998461189467631  1.0000
  N   N3        1.0  0.49975477956258624  0.49982013710669543  0.11893656024906814  1.0000
  N   N4        1.0  0.5002494217817244  0.5001367076854779  0.8810898117846191  1.0000
  N   N5        1.0  0.4996918785896795  0.3728790978050896  0.9998345265772596  1.0000
  N   N6        1.0  0.500294268581399  0.6270735254447642  0.0001835238422743002  1.0000
  O   O1        1.0  0.5820365643617862  0.0876970516273374  0.5843980195718926  1.0000
  O   O2        1.0  0.4177678910420326  0.088552468330839  0.5837183735624546  1.0000
  O   O3        1.0  0.41638616929041916  0.08765342475719251  0.4145789879207696  1.0000
  O   O4        1.0  0.5806453206287047  0.0866474896439442  0.41526151067905187  1.0000
  O   O5        1.0  0.41795485214524314  0.9123187923790969  0.4155460465364483  1.0000
  O   O6        1.0  0.5822275274527229  0.9113291130280247  0.4163843128501482  1.0000
  O   O7        1.0  0.5835904755831577  0.9123864903700181  0.5855136205274502  1.0000
  O   O8        1.0  0.4193321432541879  0.913226864530458  0.584698919799649  1.0000
