data_image0
_chemical_formula_structural       Cu4H56C32N8O12
_chemical_formula_sum              "Cu4 H56 C32 N8 O12"
_cell_length_a       9.401535268504123
_cell_length_b       10.039338343229826
_cell_length_c       10.71761424807033
_cell_angle_alpha    89.98866903920782
_cell_angle_beta     89.99818142163073
_cell_angle_gamma    89.99903142209044

_space_group_name_H-M_alt    "P 1"
_space_group_IT_number       1

loop_
  _space_group_symop_operation_xyz
  'x, y, z'

loop_
  _atom_site_type_symbol
  _atom_site_label
  _atom_site_symmetry_multiplicity
  _atom_site_fract_x
  _atom_site_fract_y
  _atom_site_fract_z
  _atom_site_occupancy
  Cu  Cu1       1.0  0.741960369782703  0.1466023106941989  0.5334214685191228  1.0000
  Cu  Cu2       1.0  0.7580315085139092  0.8532420177641387  0.033645589676766  1.0000
  Cu  Cu3       1.0  0.2580258833807463  0.6467102505119443  0.9664042176694352  1.0000
  Cu  Cu4       1.0  0.24196685504166035  0.3534496464914767  0.4665998722597777  1.0000
  H   H1        1.0  0.4904915876456144  0.1356935969619357  0.6132991567298518  1.0000
  H   H2        1.0  0.0094671205385808  0.8642160889241595  0.1133070713874815  1.0000
  H   H3        1.0  0.509479973603746  0.6357539579256651  0.8867095398161454  1.0000
  H   H4        1.0  0.9904980708876963  0.36435253848848953  0.3867227232433237  1.0000
  H   H5        1.0  0.5339733156589332  0.9978367697329629  0.5368501121639611  1.0000
  H   H6        1.0  0.9657213728078204  0.002039542993522  0.0369423438425329  1.0000
  H   H7        1.0  0.4657444604137383  0.4979203163264643  0.9630662383960313  1.0000
  H   H8        1.0  0.034011205944018706  0.5021934929281144  0.463143436459923  1.0000
  H   H9        1.0  0.5203302613445617  0.0154039042525156  0.7965146949530961  1.0000
  H   H10       1.0  0.9796201989759153  0.9842676448038646  0.2966806669866671  1.0000
  H   H11       1.0  0.4796254468819257  0.515750938084672  0.7033377670761567  1.0000
  H   H12       1.0  0.02034595520309781  0.4845568436458407  0.2034736422605121  1.0000
  H   H13       1.0  0.9988286811515151  0.154822960562548  0.785256768340865  1.0000
  H   H14       1.0  0.5011998307646338  0.8452534203045944  0.2853411755436568  1.0000
  H   H15       1.0  0.0011840108254972  0.6547725358948071  0.7146644648045637  1.0000
  H   H16       1.0  0.49883485056245297  0.3451971511233864  0.21473875647411944  1.0000
  H   H17       1.0  0.4880345905638209  0.8054518252517935  0.6792386329178939  1.0000
  H   H18       1.0  0.012063199165155001  0.19434713123524722  0.1793568665330199  1.0000
  H   H19       1.0  0.512152939108077  0.3056774921752421  0.8206363593981579  1.0000
  H   H20       1.0  0.9879508758570522  0.6945008920951637  0.32073478784219134  1.0000
  H   H21       1.0  0.6383381852766022  0.7857274115877715  0.7802869510883567  1.0000
  H   H22       1.0  0.8619223831323524  0.2141239059677886  0.2804972588670651  1.0000
  H   H23       1.0  0.3620209611957037  0.28586046462607584  0.7194871543278438  1.0000
  H   H24       1.0  0.13825406347651642  0.7142824925817451  0.21966541881449334  1.0000
  H   H25       1.0  0.6648130854864434  0.8170214255333476  0.6188494709788728  1.0000
  H   H26       1.0  0.8352554772166415  0.1829301425083472  0.1191035559084384  1.0000
  H   H27       1.0  0.3353338154510226  0.3170207715889362  0.880888135044998  1.0000
  H   H28       1.0  0.16475455319211113  0.6830099833749017  0.38111148927359306  1.0000
  H   H29       1.0  0.9987422657577696  0.9041400637991119  0.7685921945840805  1.0000
  H   H30       1.0  0.5012336667063978  0.09600662679859788  0.2685897245567759  1.0000
  H   H31       1.0  0.0012732509034805  0.4040251345099792  0.7314215310272232  1.0000
  H   H32       1.0  0.49871096976401225  0.5958583030522391  0.23142664201593993  1.0000
  H   H33       1.0  0.9694567354390458  0.8842045415422816  0.5372248360292673  1.0000
  H   H34       1.0  0.5305626638470146  0.11581730220137129  0.0371684629208318  1.0000
  H   H35       1.0  0.0305878675918336  0.3842020559038488  0.9628279810503458  1.0000
  H   H36       1.0  0.46944117014366066  0.6157663849675502  0.4628050824235785  1.0000
  H   H37       1.0  0.1244701375867407  0.7979388657286891  0.5890918589334646  1.0000
  H   H38       1.0  0.37566282100954845  0.20224494719176528  0.08899421485124041  1.0000
  H   H39       1.0  0.875679239446647  0.29778303974587317  0.9109916786889158  1.0000
  H   H40       1.0  0.6244372706239504  0.7020553105963218  0.4108963537991883  1.0000
  H   H41       1.0  0.14104178342847723  0.9551293368173719  0.5149170902407647  1.0000
  H   H42       1.0  0.35890026855572904  0.04501354011245701  0.014987690322612898  1.0000
  H   H43       1.0  0.8589217342166366  0.4550047409164436  0.9850294615826557  1.0000
  H   H44       1.0  0.6410548849154338  0.5448536260621495  0.4850790584750797  1.0000
  H   H45       1.0  0.20036527201170884  0.0332983090173755  0.8587309894082935  1.0000
  H   H46       1.0  0.29953563081252105  0.9669692860093378  0.35881562553916524  1.0000
  H   H47       1.0  0.7995975552309531  0.5330421157232621  0.6411537101891085  1.0000
  H   H48       1.0  0.7003287396825827  0.4667264047972709  0.1412373970482435  1.0000
  H   H49       1.0  0.28033035074114576  0.04396379723254281  0.7090454001762723  1.0000
  H   H50       1.0  0.2195961728548639  0.9563138849191261  0.20911928555329953  1.0000
  H   H51       1.0  0.7195918605285739  0.5436788304988552  0.7908214900021237  1.0000
  H   H52       1.0  0.7803311515891239  0.4560357798219813  0.2909076971064692  1.0000
  H   H53       1.0  0.2602361842371508  0.8859477279853324  0.7836270811909926  1.0000
  H   H54       1.0  0.23981634722827747  0.1143458942690287  0.2836015600784165  1.0000
  H   H55       1.0  0.7398924191734367  0.38567024355428003  0.7163535966664014  1.0000
  H   H56       1.0  0.7601896436955188  0.6140692589265485  0.21635734632646117  1.0000
  C   C1        1.0  0.5980704876795926  0.9899225211677916  0.7237515945113487  1.0000
  C   C2        1.0  0.9019315299838838  0.0099149928556628  0.2239020318994633  1.0000
  C   C3        1.0  0.40192748505261733  0.49007473665840007  0.7760999281913072  1.0000
  C   C4        1.0  0.09806575236324021  0.5100451669414312  0.2762420211341379  1.0000
  C   C5        1.0  0.7468457324271611  0.03078450795970161  0.7698596113871615  1.0000
  C   C6        1.0  0.7531248366130612  0.969095947345643  0.2699563139101002  1.0000
  C   C7        1.0  0.2531224562779641  0.5308524171559981  0.7300469783057153  1.0000
  C   C8        1.0  0.24685223752838684  0.469247454326627  0.23014293421285004  1.0000
  C   C9        1.0  0.9803082711105164  0.0991435222569663  0.6978004893472303  1.0000
  C   C10       1.0  0.5196223557093803  0.9009206804835155  0.19785553745743562  1.0000
  C   C11       1.0  0.019650141887773  0.5990980187991966  0.8021514556632495  1.0000
  C   C12       1.0  0.4803176929876046  0.400846991875305  0.3021992864015814  1.0000
  C   C13       1.0  0.029863578994991306  0.18729471236095924  0.5896052833445253  1.0000
  C   C14       1.0  0.4701566110835955  0.8126937346955073  0.0897413516150252  1.0000
  C   C15       1.0  0.970125111031507  0.687276184973726  0.9102894806923415  1.0000
  C   C16       1.0  0.5298712259628715  0.31272166670905926  0.4104070423638504  1.0000
  C   C17       1.0  0.5966927555490357  0.8397449076494253  0.6994978208091922  1.0000
  C   C18       1.0  0.9034165038810614  0.1600918103180149  0.19968326256368127  1.0000
  C   C19       1.0  0.40348882237739053  0.33989789722691904  0.8003046594320012  1.0000
  C   C20       1.0  0.09663755993542371  0.6602586638032193  0.3004697054327679  1.0000
  C   C21       1.0  0.0646485705585746  0.9658760977050919  0.7064542025932639  1.0000
  C   C22       1.0  0.43538866947626786  0.0342348016904808  0.20647332381696512  1.0000
  C   C23       1.0  0.9353977121447558  0.4657753293105883  0.7935342331977678  1.0000
  C   C24       1.0  0.5646230579855002  0.5341110302015152  0.2935478072622288  1.0000
  C   C25       1.0  0.0750912879111638  0.8966409812257297  0.5796719103521113  1.0000
  C   C26       1.0  0.4249420259453913  0.10345418849612996  0.0797085173231906  1.0000
  C   C27       1.0  0.92496053247541  0.39657004910965554  0.9202937311196777  1.0000
  C   C28       1.0  0.5750769277272312  0.6033370207847497  0.420331675267974  1.0000
  C   C29       1.0  0.2098969809378133  0.9833954751352608  0.7677795242063539  1.0000
  C   C30       1.0  0.2900997490167327  0.0168437559845316  0.2678170828950357  1.0000
  C   C31       1.0  0.7901202606655958  0.4831676218977848  0.7321497364473544  1.0000
  C   C32       1.0  0.7098580552867234  0.5166063501178825  0.2322044412802384  1.0000
  N   N1        1.0  0.5644941424292399  0.06124860099247087  0.6065664942039959  1.0000
  N   N2        1.0  0.9353961730059981  0.9386069941980253  0.106708477050212  1.0000
  N   N3        1.0  0.4354043443405544  0.561361470403014  0.8933055956619073  1.0000
  N   N4        1.0  0.0645016911094203  0.4387772075835557  0.3934243386555565  1.0000
  N   N5        1.0  0.8305237467268541  0.07364207685794358  0.6784386582418592  1.0000
  N   N6        1.0  0.6694256618733192  0.9264202864967215  0.1785119259585528  1.0000
  N   N7        1.0  0.1694479024702531  0.573637939048588  0.8215039517447948  1.0000
  N   N8        1.0  0.3305064687922297  0.426344771204704  0.321540100005322  1.0000
  O   O1        1.0  0.939360967308879  0.21764837473404705  0.5047761830779507  1.0000
  O   O2        1.0  0.5607542666007391  0.7820237663415953  0.0051093197264436  1.0000
  O   O3        1.0  0.060703743976674204  0.7178389016788175  0.9949851816848962  1.0000
  O   O4        1.0  0.43938368687311424  0.2824752419845852  0.4952900344121929  1.0000
  O   O5        1.0  0.1584156454239647  0.2260941922276274  0.588629578481175  1.0000
  O   O6        1.0  0.3415535253319533  0.7741225843022478  0.0885990276165032  1.0000
  O   O7        1.0  0.8415361605920212  0.725881194169439  0.9114064607626631  1.0000
  O   O8        1.0  0.658380366913967  0.2738783729192278  0.4113642408453728  1.0000
  O   O9        1.0  0.7830389736947367  0.0169365965343147  0.8826793254819948  1.0000
  O   O10       1.0  0.7168381716822338  0.9827563845329339  0.3827651916052091  1.0000
  O   O11       1.0  0.21680821259437977  0.5171287848907654  0.6172867031728089  1.0000
  O   O12       1.0  0.28310141914410286  0.4831366412743066  0.1173399348120583  1.0000
