data_image0
_chemical_formula_structural       Ag4H36C24N12Cl4O20
_chemical_formula_sum              "Ag4 H36 C24 N12 Cl4 O20"
_cell_length_a       8.109720688783858
_cell_length_b       10.75088986400126
_cell_length_c       12.075642670978159
_cell_angle_alpha    89.99998578387687
_cell_angle_beta     103.04839109729093
_cell_angle_gamma    89.99995075862931

_space_group_name_H-M_alt    "P 1"
_space_group_IT_number       1

loop_
  _space_group_symop_operation_xyz
  'x, y, z'

loop_
  _atom_site_type_symbol
  _atom_site_label
  _atom_site_symmetry_multiplicity
  _atom_site_fract_x
  _atom_site_fract_y
  _atom_site_fract_z
  _atom_site_occupancy
  Ag  Ag1       1.0  0.5092546179653326  0.2644421013408333  0.20746555367341557  1.0000
  Ag  Ag2       1.0  0.9907453132165215  0.764442404446818  0.2925352123196204  1.0000
  Ag  Ag3       1.0  0.4907454765937446  0.7355574448362675  0.792534254034322  1.0000
  Ag  Ag4       1.0  0.009253517579601599  0.23555807188616035  0.7074652331956626  1.0000
  H   H1        1.0  0.0430606649546661  0.321063508913099  0.9339425763379122  1.0000
  H   H2        1.0  0.45693948787426564  0.8210638982902196  0.566057894848363  1.0000
  H   H3        1.0  0.9569381678481436  0.6789369674197661  0.06605869759386002  1.0000
  H   H4        1.0  0.5430606066842144  0.17893657804243904  0.43394191285918265  1.0000
  H   H5        1.0  0.18993141260923352  0.34467558401070875  0.06222018071304798  1.0000
  H   H6        1.0  0.3100681978152337  0.8446759630939129  0.4377808244020115  1.0000
  H   H7        1.0  0.8100674201935688  0.655324892322149  0.9377810932187243  1.0000
  H   H8        1.0  0.6899318967432535  0.155324513238746  0.5622189833055342  1.0000
  H   H9        1.0  0.9395447065560986  0.0942011859045451  0.09702039030315736  1.0000
  H   H10       1.0  0.5604554318473803  0.5942035971531965  0.4029763034286729  1.0000
  H   H11       1.0  0.060454122233935016  0.9057983602729964  0.902979226795814  1.0000
  H   H12       1.0  0.4395459224589118  0.40579873949050693  0.5970212096377664  1.0000
  H   H13       1.0  0.8631042490830865  0.14437368021406632  0.9523579562690611  1.0000
  H   H14       1.0  0.6368925462766768  0.6443752126481999  0.5476400866957645  1.0000
  H   H15       1.0  0.1368958474826769  0.8556258659629138  0.04764267985517279  1.0000
  H   H16       1.0  0.3631050147370375  0.3556252636854538  0.45235851137775995  1.0000
  H   H17       1.0  0.8051068176892572  0.9941070745489217  0.995604921805764  1.0000
  H   H18       1.0  0.6948907971202373  0.4941085689846433  0.5043931683300186  1.0000
  H   H19       1.0  0.19489454063218403  0.0058924716278526  0.004394248094236292  1.0000
  H   H20       1.0  0.30510676389288705  0.5058928375045754  0.495605429743314  1.0000
  H   H21       1.0  0.19018127239929328  0.0895487138419  0.6396009165939062  1.0000
  H   H22       1.0  0.3098191718691439  0.5895481849132054  0.8603979927118243  1.0000
  H   H23       1.0  0.8098175543840612  0.9104508323357552  0.3603978720885691  1.0000
  H   H24       1.0  0.6901821884589764  0.410451361263455  0.13960200560467223  1.0000
  H   H25       1.0  0.4083219404442246  0.10550732216366038  0.6387334579215318  1.0000
  H   H26       1.0  0.09167721768917401  0.6055069345353489  0.8612652542302326  1.0000
  H   H27       1.0  0.5916756205694896  0.894493154169993  0.36126514015199956  1.0000
  H   H28       1.0  0.9083254084079898  0.39449261164087096  0.13873493469502304  1.0000
  H   H29       1.0  0.33485426703561677  0.9683494022505387  0.6932302183749852  1.0000
  H   H30       1.0  0.16514569582528796  0.46834896978114676  0.8067693639879108  1.0000
  H   H31       1.0  0.6651458295289531  0.0316520042375643  0.306770417748872  1.0000
  H   H32       1.0  0.834854398733789  0.5316505763959469  0.1932304437198268  1.0000
  H   H33       1.0  0.6124836014388181  0.056345715134362706  0.8421344857029849  1.0000
  H   H34       1.0  0.8875158377984179  0.5563461234790382  0.6578639745829165  1.0000
  H   H35       1.0  0.3875164870990275  0.9436556913542166  0.15786283675488014  1.0000
  H   H36       1.0  0.1124842567606663  0.44365342269806274  0.34213583312482126  1.0000
  C   C1        1.0  0.8340810910457607  0.09059594771402861  0.022741942725659194  1.0000
  C   C2        1.0  0.6659203237489492  0.5905964091176586  0.47725742834345636  1.0000
  C   C3        1.0  0.1659190035133165  0.9094035984630723  0.9772578649820783  1.0000
  C   C4        1.0  0.334081034571895  0.4094040672146805  0.522741741556352  1.0000
  C   C5        1.0  0.5462962985114785  0.156123503767887  0.9825331915938803  1.0000
  C   C6        1.0  0.9537030153990003  0.6561239090480911  0.5174660561861868  1.0000
  C   C7        1.0  0.4537037960470086  0.8438769725647721  0.017466616113665578  1.0000
  C   C8        1.0  0.046297079159486984  0.34387656728456767  0.4825337515213589  1.0000
  C   C9        1.0  0.3192644842974488  0.0699009892614626  0.6872762549236808  1.0000
  C   C10       1.0  0.1807347212829953  0.5698996274796925  0.8127233002481729  1.0000
  C   C11       1.0  0.6807343444913981  0.9301004172271947  0.312723362174914  1.0000
  C   C12       1.0  0.819266639045715  0.43009898854140255  0.18727669806851566  1.0000
  C   C13       1.0  0.27539959959666765  0.23626859025440436  0.9477790141117663  1.0000
  C   C14       1.0  0.2246019272139534  0.7362691343208425  0.5522216824605903  1.0000
  C   C15       1.0  0.7246004949618127  0.7637318860782544  0.05222079359577944  1.0000
  C   C16       1.0  0.7753994351202564  0.2637313420112619  0.4477791442722177  1.0000
  C   C17       1.0  0.3569832301489201  0.12466851995257847  0.8037487997846069  1.0000
  C   C18       1.0  0.1430159055382063  0.6246681458875045  0.6962507329249802  1.0000
  C   C19       1.0  0.6430168664168434  0.8753310262244014  0.19625183633962703  1.0000
  C   C20       1.0  0.8569841890208706  0.37533140028959633  0.3037490747827575  1.0000
  C   C21       1.0  0.5165618150697282  0.1066652973833868  0.8734465043855547  1.0000
  C   C22       1.0  0.9834388257208247  0.6066647222254817  0.6265521258715052  1.0000
  C   C23       1.0  0.483439545258392  0.8933342487932735  0.12655349393094883  1.0000
  C   C24       1.0  0.016562534607295704  0.3933348239511788  0.3734478724449913  1.0000
  N   N1        1.0  0.4262111556916111  0.21715304594638243  0.021462864680017877  1.0000
  N   N2        1.0  0.07378988123559078  0.7171535667676778  0.4785375549286994  1.0000
  N   N3        1.0  0.5737889388668762  0.7828474303862765  0.9785369430275278  1.0000
  N   N4        1.0  0.9262114810986191  0.2828469095644267  0.5214632718041015  1.0000
  N   N5        1.0  0.23627924334621755  0.1907254115894332  0.839288766538452  1.0000
  N   N6        1.0  0.26372107581684645  0.6907249692976692  0.6607117581041776  1.0000
  N   N7        1.0  0.7637221189879996  0.8092750647426714  0.16071206019434917  1.0000
  N   N8        1.0  0.736280284511274  0.30927457687899107  0.33928824021231907  1.0000
  N   N9        1.0  0.15864416098624193  0.30224083625941495  0.9846895252578631  1.0000
  N   N10       1.0  0.3413560178702538  0.8022413150514893  0.5153117820647282  1.0000
  N   N11       1.0  0.8413559355795214  0.6977587099175651  0.015311110866363688  1.0000
  N   N12       1.0  0.6586440786955096  0.1977582311254906  0.48468885405950596  1.0000
  Cl  Cl1       1.0  0.30386339334516077  0.5726045684707162  0.18917654402461884  1.0000
  Cl  Cl2       1.0  0.1961365622820779  0.0726041147404501  0.3108237442598919  1.0000
  Cl  Cl3       1.0  0.6961367032206027  0.427394977706264  0.810824092099615  1.0000
  Cl  Cl4       1.0  0.8038647980460426  0.92739543143621  0.6891762540566118  1.0000
  O   O1        1.0  0.27037752200742915  0.43802688077119  0.19926697224991582  1.0000
  O   O2        1.0  0.22962070351638897  0.9380264208297223  0.3007338039699475  1.0000
  O   O3        1.0  0.7296213107965672  0.5619717352505447  0.8007343016822402  1.0000
  O   O4        1.0  0.770379391043285  0.061972195191813705  0.6992660037379819  1.0000
  O   O5        1.0  0.47968846594915243  0.5912020420676855  0.18677473700913785  1.0000
  O   O6        1.0  0.0203127337190097  0.0912035620544813  0.313226562672753  1.0000
  O   O7        1.0  0.5203103648481572  0.4087965739541701  0.8132257085065216  1.0000
  O   O8        1.0  0.9796898943842436  0.9087969142771826  0.6867744546688143  1.0000
  O   O9        1.0  0.26476717720683496  0.6356439999817526  0.2881308996565436  1.0000
  O   O10       1.0  0.23523270198531782  0.1356426188370179  0.2118710196064909  1.0000
  O   O11       1.0  0.7352316535886912  0.36435740650679094  0.7118695458585477  1.0000
  O   O12       1.0  0.7647686623561684  0.864356927339408  0.7881306355429981  1.0000
  O   O13       1.0  0.19339918830523575  0.6202332346280672  0.08509812777840148  1.0000
  O   O14       1.0  0.3066019743161021  0.12023174949857209  0.41490315999740074  1.0000
  O   O15       1.0  0.8065996404853949  0.3797653813939093  0.9149014893207618  1.0000
  O   O16       1.0  0.6934006537889346  0.8797659363664112  0.5850978573447347  1.0000
  O   O17       1.0  0.6934675058509613  0.1466360004178497  0.05932911604440954  1.0000
  O   O18       1.0  0.8065325716575203  0.6466373111299577  0.44067004143180083  1.0000
  O   O19       1.0  0.3065338524698831  0.8533644759144892  0.9406700538553989  1.0000
  O   O20       1.0  0.19346752290037017  0.3533640953582662  0.5593297662755602  1.0000
