data_image0
_chemical_formula_structural       CuH20C14S4N2O8
_chemical_formula_sum              "Cu1 H20 C14 S4 N2 O8"
_cell_length_a       6.90419680810073
_cell_length_b       7.671073860155948
_cell_length_c       10.198373572429144
_cell_angle_alpha    68.45017360655346
_cell_angle_beta     81.68787390354606
_cell_angle_gamma    74.91353296036236

_space_group_name_H-M_alt    "P 1"
_space_group_IT_number       1

loop_
  _space_group_symop_operation_xyz
  'x, y, z'

loop_
  _atom_site_type_symbol
  _atom_site_label
  _atom_site_symmetry_multiplicity
  _atom_site_fract_x
  _atom_site_fract_y
  _atom_site_fract_z
  _atom_site_occupancy
  Cu  Cu1       1.0  0.5000071580211554  0.9999974894996911  0.5000022023665381  1.0000
  H   H1        1.0  0.11881044071350998  0.8840108731562709  0.5230223166279587  1.0000
  H   H2        1.0  0.8811982963956809  0.11600273670353538  0.4769793241654626  1.0000
  H   H3        1.0  0.9785943642466889  0.6940881417399821  0.42602124842138533  1.0000
  H   H4        1.0  0.021409161805884508  0.3059155290509636  0.5739844525029272  1.0000
  H   H5        1.0  0.5744547631112765  0.5290589823665357  0.24386330224997024  1.0000
  H   H6        1.0  0.4255521669339402  0.47093626231890084  0.756135474131668  1.0000
  H   H7        1.0  0.6887159848374083  0.7253916378934451  0.3481988070931267  1.0000
  H   H8        1.0  0.31129069417531946  0.27459785971755934  0.6518024805193933  1.0000
  H   H9        1.0  0.5606497456806635  0.8717341654973154  0.8787613311570157  1.0000
  H   H10       1.0  0.43933768405293694  0.12827004650693402  0.12123783921058624  1.0000
  H   H11       1.0  0.39399648239938767  0.7684240081933852  0.020721364371930003  1.0000
  H   H12       1.0  0.6059868530508296  0.23157888301384594  0.9792775424834306  1.0000
  H   H13       1.0  0.3243142124597825  0.023506153892697085  0.9144061014030175  1.0000
  H   H14       1.0  0.6756658845204272  0.9764982619392556  0.08559171795344879  1.0000
  H   H15       1.0  0.9905631404760984  0.99959249944159  0.8734758950044611  1.0000
  H   H16       1.0  0.009425729997040798  0.0004116047804174997  0.12652611547196813  1.0000
  H   H17       1.0  0.0242891229015925  0.7414358627558357  0.9702723210732603  1.0000
  H   H18       1.0  0.9757054381897421  0.2585625272245338  0.029725769408287302  1.0000
  H   H19       1.0  0.9435627199550963  0.8419897238588164  0.7923854743976623  1.0000
  H   H20       1.0  0.056418596514248485  0.15800891444342113  0.20761473102166422  1.0000
  C   C1        1.0  0.21390610911796415  0.8038374860484866  0.46027195760490985  1.0000
  C   C2        1.0  0.7861048755011879  0.19615897633136112  0.5397310359914302  1.0000
  C   C3        1.0  0.13706589013107626  0.69526135266657  0.40625526277663243  1.0000
  C   C4        1.0  0.8629472028152207  0.3047395945991411  0.5937375364252092  1.0000
  C   C5        1.0  0.2649892345744718  0.5961328544915149  0.3254475353697118  1.0000
  C   C6        1.0  0.7350125334570805  0.40387233624452534  0.674555964462073  1.0000
  C   C7        1.0  0.4671625981841173  0.6051015817782501  0.3047992772488613  1.0000
  C   C8        1.0  0.5328370846175616  0.39490651529010284  0.6952036489323207  1.0000
  C   C9        1.0  0.5326466207538446  0.7152508680420906  0.3634517321254692  1.0000
  C   C10       1.0  0.4673669975544358  0.28474697136571336  0.6365506617255223  1.0000
  C   C11       1.0  0.40305959090837723  0.8787538561778163  0.916284569843761  1.0000
  C   C12       1.0  0.5969193925411461  0.12124928104916678  0.08370878196196684  1.0000
  C   C13       1.0  0.03385025416023524  0.8547671180829256  0.8671055623333931  1.0000
  C   C14       1.0  0.9661389633764799  0.1452356513031816  0.13289284384988787  1.0000
  S   S1        1.0  0.17261199323887408  0.4582765885589666  0.24922411928682212  1.0000
  S   S2        1.0  0.8273945599606733  0.5417199136354255  0.7507812266647993  1.0000
  S   S3        1.0  0.28925508623404994  0.8132623612433109  0.7991772094474855  1.0000
  S   S4        1.0  0.7107314876861819  0.18673900533918442  0.20082278490675531  1.0000
  N   N1        1.0  0.4075313883431804  0.8164042742224281  0.43801109157275436  1.0000
  N   N2        1.0  0.5924846622585493  0.1835893240171558  0.5619882716356985  1.0000
  O   O1        1.0  0.2289778605107244  0.25764886353352523  0.3471471029933754  1.0000
  O   O2        1.0  0.7710385867914054  0.7423435287484212  0.6528437137938571  1.0000
  O   O3        1.0  0.955266410340336  0.5357163630818605  0.24445747496581302  1.0000
  O   O4        1.0  0.04474543677700642  0.4642756308285314  0.755552497412147  1.0000
  O   O5        1.0  0.27892801379829996  0.4873985249015434  0.11043729547046874  1.0000
  O   O6        1.0  0.7210712364299426  0.5125982584475111  0.8895637341931749  1.0000
  O   O7        1.0  0.28183392925450335  0.9829958093966908  0.6568080222932412  1.0000
  O   O8        1.0  0.7181603443374343  0.017004070073497204  0.34318774192776413  1.0000
