data_image0
_chemical_formula_structural       Cd4H16C24N32
_chemical_formula_sum              "Cd4 H16 C24 N32"
_cell_length_a       6.592407081613043
_cell_length_b       8.223133173734977
_cell_length_c       17.784269565000496
_cell_angle_alpha    90.00001802254496
_cell_angle_beta     89.99997628083405
_cell_angle_gamma    105.67660249494241

_space_group_name_H-M_alt    "P 1"
_space_group_IT_number       1

loop_
  _space_group_symop_operation_xyz
  'x, y, z'

loop_
  _atom_site_type_symbol
  _atom_site_label
  _atom_site_symmetry_multiplicity
  _atom_site_fract_x
  _atom_site_fract_y
  _atom_site_fract_z
  _atom_site_occupancy
  Cd  Cd1       1.0  0.7670688959202606  0.9803502751097498  0.2093811167244155  1.0000
  Cd  Cd2       1.0  0.2670688241384553  0.9803501918324716  0.2906186769019357  1.0000
  Cd  Cd3       1.0  0.2329319656097439  0.019649960394140496  0.7906189040804392  1.0000
  Cd  Cd4       1.0  0.7329320373915423  0.019650043671418895  0.7093813439029192  1.0000
  H   H1        1.0  0.7514830167897343  0.36167147266579763  0.19372903915626694  1.0000
  H   H2        1.0  0.25148292971657327  0.36167139689110417  0.306270668245098  1.0000
  H   H3        1.0  0.24851978575127734  0.6383300277486372  0.8062704193538581  1.0000
  H   H4        1.0  0.748516414295537  0.6383288367656448  0.6937299148545435  1.0000
  H   H5        1.0  0.7412574148473323  0.5043814093275502  0.9590593298159505  1.0000
  H   H6        1.0  0.2412575869903577  0.5043812063703826  0.5409404240142379  1.0000
  H   H7        1.0  0.2587419291656019  0.4956188243287941  0.040939566399679  1.0000
  H   H8        1.0  0.7587413335283486  0.4956177642230983  0.45906072138001264  1.0000
  H   H9        1.0  0.7181250660724102  0.19976356538055032  0.925979514270125  1.0000
  H   H10       1.0  0.2181252058979055  0.19976337827973376  0.5740201994316365  1.0000
  H   H11       1.0  0.2818738544471201  0.8002354052125256  0.0740199442401135  1.0000
  H   H12       1.0  0.781875655632092  0.8002368572241495  0.4259798213732182  1.0000
  H   H13       1.0  0.720189369084764  0.9968274923169176  0.0289267042128287  1.0000
  H   H14       1.0  0.22018912100680402  0.996827495538021  0.47107309882638754  1.0000
  H   H15       1.0  0.2798099749276232  0.0031727413396965007  0.97107331659214  1.0000
  H   H16       1.0  0.7798113170297968  0.003171476902601001  0.5289274842730763  1.0000
  C   C1        1.0  0.7454208846740897  0.3309778525119214  0.13380979270832682  1.0000
  C   C2        1.0  0.24542031556929092  0.3309765423953054  0.36618991121105193  1.0000
  C   C3        1.0  0.2545823413603329  0.6690249109657814  0.8661891035071891  1.0000
  C   C4        1.0  0.7545786049496923  0.6690224281980409  0.633810671888533  1.0000
  C   C5        1.0  0.7504146936149495  0.45437398547302627  0.0787156070282649  1.0000
  C   C6        1.0  0.2504140706855082  0.45437270176507377  0.4212841138051219  1.0000
  C   C7        1.0  0.24958853241946602  0.5456287780046696  0.921283289187251  1.0000
  C   C8        1.0  0.749585273326602  0.5456275318916753  0.5787164692945197  1.0000
  C   C9        1.0  0.7391261348515314  0.40954482582633744  0.0021962966911317004  1.0000
  C   C10       1.0  0.23912628415229156  0.4095461049236775  0.49780341942321377  1.0000
  C   C11       1.0  0.26087430318561633  0.5904541466140144  0.9978031618189931  1.0000
  C   C12       1.0  0.7608741538845861  0.5904528675168026  0.5021966013815842  1.0000
  C   C13       1.0  0.7271227118262545  0.24281352699763664  0.9840808627110676  1.0000
  C   C14       1.0  0.22712181438949128  0.24281457326299014  0.515919418094697  1.0000
  C   C15       1.0  0.27287772621061623  0.7571854454428503  0.015919158093723206  1.0000
  C   C16       1.0  0.7728786236471096  0.7571843991776321  0.48408116500477405  1.0000
  C   C17       1.0  0.726222486981946  0.1278471195365043  0.041706474834562406  1.0000
  C   C18       1.0  0.22622267488218029  0.12784837969530122  0.45829376518815945  1.0000
  C   C19       1.0  0.2737794685722648  0.872151854751394  0.9582941082647949  1.0000
  C   C20       1.0  0.7737797041654345  0.8721518576558651  0.5417062556165817  1.0000
  C   C21       1.0  0.7728380664232759  0.6243654828633256  0.10066197850954242  1.0000
  C   C22       1.0  0.2728374649341986  0.6243641886358091  0.3993383255804873  1.0000
  C   C23       1.0  0.227162371613872  0.37563348957702664  0.8993374800005824  1.0000
  C   C24       1.0  0.7271614555847847  0.3756347819575296  0.6006622575190976  1.0000
  N   N1        1.0  0.1298992883973042  0.1237616125796919  0.20041419023235113  1.0000
  N   N2        1.0  0.6298977545356621  0.12376173724797473  0.2995855014046214  1.0000
  N   N3        1.0  0.8700996321216791  0.876237358013654  0.7995863928672338  1.0000
  N   N4        1.0  0.3700996484662581  0.8762372314978251  0.7004139571057308  1.0000
  N   N5        1.0  0.1954284775230448  0.16182511937457628  0.13767897160864356  1.0000
  N   N6        1.0  0.6954283998891525  0.16182527596154023  0.3623212779118958  1.0000
  N   N7        1.0  0.8045704429959386  0.8381738512187697  0.8623216114909413  1.0000
  N   N8        1.0  0.3045709441232346  0.8381749576950668  0.6376787428930798  1.0000
  N   N9        1.0  0.2537818188638497  0.20117526557142903  0.07679201619973951  1.0000
  N   N10       1.0  0.7537816817463111  0.2011754513436017  0.4232076678790762  1.0000
  N   N11       1.0  0.7462190426661478  0.7988249699324612  0.9232080046051152  1.0000
  N   N12       1.0  0.2462187562908368  0.7988235210967503  0.5767917906310487  1.0000
  N   N13       1.0  0.9079114828105901  0.8278241523630144  0.2951304702085764  1.0000
  N   N14       1.0  0.4079127652816012  0.8278278171731374  0.2048692803896728  1.0000
  N   N15       1.0  0.0920889552262807  0.17217482007746557  0.7048695505962146  1.0000
  N   N16       1.0  0.5920870022239201  0.17217367954687293  0.7951307404153525  1.0000
  N   N17       1.0  0.8402354710071478  0.6766198405389615  0.3025600639618986  1.0000
  N   N18       1.0  0.34023294929867376  0.6766121342170449  0.19743911287793034  1.0000
  N   N19       1.0  0.15976708449564106  0.32338544721840634  0.6974393945485249  1.0000
  N   N20       1.0  0.6597651242346031  0.3233843102492244  0.8025603456321946  1.0000
  N   N21       1.0  0.7736479764425964  0.5316841418992767  0.3118030583952703  1.0000
  N   N22       1.0  0.27364969869486805  0.531689061781151  0.18819723230487992  1.0000
  N   N23       1.0  0.22635052058353716  0.4683135656305311  0.6881969624095846  1.0000
  N   N24       1.0  0.7263509157969069  0.46831496106566567  0.8118027885002662  1.0000
  N   N25       1.0  0.7329566596291742  0.1711089625703579  0.11481603051858262  1.0000
  N   N26       1.0  0.23295413095728174  0.17110639664760194  0.3851842146841521  1.0000
  N   N27       1.0  0.26704656640497143  0.8288938009074729  0.8851834279916064  1.0000
  N   N28       1.0  0.7670447895617015  0.8288925739457441  0.6148163684154256  1.0000
  N   N29       1.0  0.7984059889092165  0.7655835529634559  0.11744254655423701  1.0000
  N   N30       1.0  0.2984054038143001  0.7655822506922692  0.38255721161071693  1.0000
  N   N31       1.0  0.20159420208942436  0.2344192068199646  0.8825574742508452  1.0000
  N   N32       1.0  0.7015930932118336  0.23441545683753867  0.617442809194131  1.0000
