data_image0
_chemical_formula_structural       Zn4H80C88N16O16
_chemical_formula_sum              "Zn4 H80 C88 N16 O16"
_cell_length_a       9.973872983048304
_cell_length_b       15.202578429978503
_cell_length_c       22.55147694601049
_cell_angle_alpha    90.00005909474797
_cell_angle_beta     89.9999036194666
_cell_angle_gamma    92.67322315534709

_space_group_name_H-M_alt    "P 1"
_space_group_IT_number       1

loop_
  _space_group_symop_operation_xyz
  'x, y, z'

loop_
  _atom_site_type_symbol
  _atom_site_label
  _atom_site_symmetry_multiplicity
  _atom_site_fract_x
  _atom_site_fract_y
  _atom_site_fract_z
  _atom_site_occupancy
  Zn  Zn1       1.0  0.84716854916568  0.5512006039444443  0.7880405023429021  1.0000
  Zn  Zn2       1.0  0.6528299015824642  0.9487991018574958  0.2880406458949309  1.0000
  Zn  Zn3       1.0  0.15282994135460368  0.448800057668997  0.2119591661940134  1.0000
  Zn  Zn4       1.0  0.3471715056188033  0.05120024501167109  0.711958579210503  1.0000
  H   H1        1.0  0.0555778406608027  0.4720656056909078  0.8714211178938388  1.0000
  H   H2        1.0  0.4444190518686923  0.027935577329145606  0.37142030675647686  1.0000
  H   H3        1.0  0.9444226552016632  0.527935057426582  0.1285798809321435  1.0000
  H   H4        1.0  0.5555824466685522  0.9720650865389686  0.6285793617793162  1.0000
  H   H5        1.0  0.1694647609377498  0.5183779185249122  0.9637835566197526  1.0000
  H   H6        1.0  0.33053180685217853  0.981623786792035  0.4637831472210152  1.0000
  H   H7        1.0  0.8305347779207892  0.4816234023403397  0.0362174422068122  1.0000
  H   H8        1.0  0.6694697373534665  0.018377535575396602  0.536216521314998  1.0000
  H   H9        1.0  0.8974446531277278  0.7340671757726228  0.9713708903016924  1.0000
  H   H10       1.0  0.6025532113084111  0.7659341055296166  0.4713709436117171  1.0000
  H   H11       1.0  0.10255488573408661  0.2659341450913786  0.028628334805127106  1.0000
  H   H12       1.0  0.39744619054985725  0.23406523983580735  0.5286273946345901  1.0000
  H   H13       1.0  0.795318583815508  0.67548264712417  0.8805724202951027  1.0000
  H   H14       1.0  0.7046806189138053  0.8245185069008512  0.3805724384038455  1.0000
  H   H15       1.0  0.20468286905416022  0.3245173582443143  0.11942680481054421  1.0000
  H   H16       1.0  0.2953208796258977  0.175482156966325  0.6194258998421419  1.0000
  H   H17       1.0  0.14442795784993478  0.800141382318927  0.028696350526857407  1.0000
  H   H18       1.0  0.3555700811601313  0.6998577340127737  0.5286954176756709  1.0000
  H   H19       1.0  0.8555714440025924  0.19985796304868583  0.9713050917290005  1.0000
  H   H20       1.0  0.6444293206964957  0.3001416113532684  0.471303807430509  1.0000
  H   H21       1.0  0.9756831737705125  0.7641419546526365  0.0445229294906397  1.0000
  H   H22       1.0  0.5243162227679717  0.735858066280457  0.5445222686714928  1.0000
  H   H23       1.0  0.024317276425193796  0.2358580499649108  0.9554771824752566  1.0000
  H   H24       1.0  0.4756841817609753  0.2641412798371475  0.45547695643431757  1.0000
  H   H25       1.0  0.3183925812671832  0.6652001731855179  0.0235684147851103  1.0000
  H   H26       1.0  0.1816035626866892  0.834800251412247  0.5235690361269151  1.0000
  H   H27       1.0  0.6816058635838829  0.3347998299289188  0.976431697181532  1.0000
  H   H28       1.0  0.8183959761726669  0.16520106945269217  0.4764315192697098  1.0000
  H   H29       1.0  0.2402011031783573  0.5594895341672625  0.037725351176206304  1.0000
  H   H30       1.0  0.2597979964637886  0.9405109126469214  0.5377259880680256  1.0000
  H   H31       1.0  0.7597993926865669  0.4405111289492892  0.9622743173599632  1.0000
  H   H32       1.0  0.7402034564042381  0.059489092722188296  0.4622741238974939  1.0000
  H   H33       1.0  0.18458372409145338  0.594795639395997  0.1379161613326474  1.0000
  H   H34       1.0  0.3154149595453006  0.9052042901907669  0.6379162886840604  1.0000
  H   H35       1.0  0.8154176374406035  0.4052030489741653  0.862083507202506  1.0000
  H   H36       1.0  0.6845864933235504  0.0947957151780301  0.36208337985151945  1.0000
  H   H37       1.0  0.3568690691598775  0.6167713229204425  0.12567389110402163  1.0000
  H   H38       1.0  0.14312870272416237  0.8832292471521657  0.6256741315153392  1.0000
  H   H39       1.0  0.6431304240327264  0.3832293394445543  0.8743257774325173  1.0000
  H   H40       1.0  0.8568737984862266  0.11677141746719141  0.37432509359014426  1.0000
  H   H41       1.0  0.0907795657722446  0.8238942209673468  0.1329906565515415  1.0000
  H   H42       1.0  0.40921808773212115  0.6761050424226341  0.6329896671264521  1.0000
  H   H43       1.0  0.9092187877403859  0.1761044651490735  0.8670103422745472  1.0000
  H   H44       1.0  0.5907833194691463  0.323894304446533  0.3670095579789816  1.0000
  H   H45       1.0  0.030700699536282596  0.7130841738533249  0.1427403342688862  1.0000
  H   H46       1.0  0.4692980119375109  0.7869164210348528  0.6427402643159185  1.0000
  H   H47       1.0  0.9692977453147835  0.28691582926110465  0.8572597776977489  1.0000
  H   H48       1.0  0.53070243825902  0.21308358358238172  0.357259404220038  1.0000
  H   H49       1.0  0.4713535817184962  0.6733185806578064  0.1814121243998628  1.0000
  H   H50       1.0  0.028646946488137794  0.8266814117625786  0.6814119672145369  1.0000
  H   H51       1.0  0.5286467314703814  0.32667944846241426  0.8185888744252666  1.0000
  H   H52       1.0  0.971354643386725  0.17332056910385765  0.31858725789174264  1.0000
  H   H53       1.0  0.6298380348361476  0.7668894135224349  0.23930098942155817  1.0000
  H   H54       1.0  0.8701596847355901  0.7331115398015486  0.7393000689202581  1.0000
  H   H55       1.0  0.3701613670188452  0.23310993184423273  0.7606991225444946  1.0000
  H   H56       1.0  0.129838897123939  0.26689043880958246  0.2606982693272712  1.0000
  H   H57       1.0  0.3815589352296556  0.9776386513978395  0.23529432262857608  1.0000
  H   H58       1.0  0.1184403911389822  0.5223614162464115  0.735293885980461  1.0000
  H   H59       1.0  0.6184403752893601  0.022359376969880898  0.7647053459071105  1.0000
  H   H60       1.0  0.881557005373004  0.477637927616513  0.2647053391264649  1.0000
  H   H61       1.0  0.21269726932289496  0.896311440492681  0.17578428590007894  1.0000
  H   H62       1.0  0.287301228675318  0.603687883988961  0.6757828933357575  1.0000
  H   H63       1.0  0.7873040922075205  0.1036872478780992  0.8242162694949472  1.0000
  H   H64       1.0  0.7126960308347563  0.39630948437476127  0.3242145580507767  1.0000
  H   H65       1.0  0.6919404024097489  0.3309250597333033  0.6843044838225085  1.0000
  H   H66       1.0  0.808061651475576  0.169077402486586  0.184305203179683  1.0000
  H   H67       1.0  0.30805799677456497  0.6690742848811837  0.3156947412840482  1.0000
  H   H68       1.0  0.1919399840676803  0.8309252368791674  0.8156940219268165  1.0000
  H   H69       1.0  0.6658089142211807  0.19093419140032353  0.6264567922525544  1.0000
  H   H70       1.0  0.8341892057926615  0.30906621074864654  0.12645803333409594  1.0000
  H   H71       1.0  0.33419540966190203  0.8090638407242636  0.3735415459914578  1.0000
  H   H72       1.0  0.16580331436291118  0.6909351048544393  0.8735411917753383  1.0000
  H   H73       1.0  0.8518720875622205  0.0852095902220569  0.626360018269132  1.0000
  H   H74       1.0  0.6481282208296193  0.41479344729005857  0.1263601415753044  1.0000
  H   H75       1.0  0.14813447000420868  0.9147917359034847  0.3736400936949452  1.0000
  H   H76       1.0  0.35186530199663923  0.5852078690652077  0.873639970393626  1.0000
  H   H77       1.0  0.079926039380787  0.2572114631394413  0.7435411611396036  1.0000
  H   H78       1.0  0.42007620219088426  0.2427875678257365  0.24354051820122186  1.0000
  H   H79       1.0  0.9200724968021562  0.7427898569755057  0.256461611407083  1.0000
  H   H80       1.0  0.5799262990129463  0.7572130967961286  0.7564622543437594  1.0000
  C   C1        1.0  0.39800468779322523  0.9103090855284535  0.22116794548737323  1.0000
  C   C2        1.0  0.10199564779574641  0.5896903044491281  0.7211671246891171  1.0000
  C   C3        1.0  0.6019967650772671  0.08969091983971822  0.778830836188334  1.0000
  C   C4        1.0  0.898000837380714  0.41031035566087576  0.27883210041861173  1.0000
  C   C5        1.0  0.0232706892836276  0.5288860397387509  0.8963077681258441  1.0000
  C   C6        1.0  0.47672603658226365  0.9711142534364541  0.3963072424267225  1.0000
  C   C7        1.0  0.9767277555666142  0.47111396337599837  0.1036927872707309  1.0000
  C   C8        1.0  0.5232754619574392  0.028886410430722303  0.603691095819258  1.0000
  C   C9        1.0  0.08655495219070268  0.5559779895051875  0.9481424964812106  1.0000
  C   C10       1.0  0.41344053373551753  0.9440217175081  0.44814244245804974  1.0000
  C   C11       1.0  0.913443492659539  0.44402201360955473  0.05185805891537142  1.0000
  C   C12       1.0  0.5865599164601889  0.05597828710945409  0.5518576695078465  1.0000
  C   C13       1.0  0.0458058483509731  0.6320423265683247  0.9785724742208188  1.0000
  C   C14       1.0  0.45419061910457253  0.8679587411026544  0.47857278013320587  1.0000
  C   C15       1.0  0.9541926878368869  0.3679589935447396  0.0214276377462497  1.0000
  C   C16       1.0  0.5458098310919581  0.1320412635145871  0.5214268884027504  1.0000
  C   C17       1.0  0.9365674629231933  0.6746858163097472  0.9525867194276219  1.0000
  C   C18       1.0  0.563428419932201  0.8253147785038238  0.45258684336911154  1.0000
  C   C19       1.0  0.06343098192868982  0.32531418680437696  0.0474129491090807  1.0000
  C   C20       1.0  0.4365710275928194  0.174685225361543  0.5474123817372814  1.0000
  C   C21       1.0  0.8782167512475141  0.6423555241630724  0.901040216863507  1.0000
  C   C22       1.0  0.6217803704821704  0.857645657218825  0.4010398764645657  1.0000
  C   C23       1.0  0.12178374461659298  0.3576451389537921  0.0989598951026025  1.0000
  C   C24       1.0  0.3782180743721781  0.1423543458943541  0.598958461782324  1.0000
  C   C25       1.0  0.0807672202150229  0.7498844019103357  0.05232053002103501  1.0000
  C   C26       1.0  0.4192308684775767  0.7501167232301639  0.5523195848226835  1.0000
  C   C27       1.0  0.9192312246344017  0.25011560120472603  0.947680468805473  1.0000
  C   C28       1.0  0.5807695817205881  0.24988328138644528  0.4476791968534003  1.0000
  C   C29       1.0  0.2363735651815162  0.6296560044709878  0.048018716230899414  1.0000
  C   C30       1.0  0.2636264990886943  0.8703444576074445  0.5480175275454684  1.0000
  C   C31       1.0  0.7636259280102705  0.37034465789432147  0.9519813957355794  1.0000
  C   C32       1.0  0.7363749537826153  0.12965554776041438  0.4519808107003059  1.0000
  C   C33       1.0  0.25743610928395094  0.6389897785564074  0.11467155232199393  1.0000
  C   C34       1.0  0.24256266027159507  0.8610101182550454  0.6146721465361368  1.0000
  C   C35       1.0  0.7425632469042825  0.3610089083103247  0.885327672783973  1.0000
  C   C36       1.0  0.7574387469272139  0.13898922861505975  0.38532840885910263  1.0000
  C   C37       1.0  0.10498998697656957  0.75616724215169  0.11897336386905982  1.0000
  C   C38       1.0  0.3950078096769758  0.7438333184721343  0.6189724323363066  1.0000
  C   C39       1.0  0.8950084578736792  0.24383276096305906  0.8810271915275154  1.0000
  C   C40       1.0  0.6049916835172695  0.2561673438922369  0.38102634934035967  1.0000
  C   C41       1.0  0.3265356913407089  0.7762598090436796  0.16924760085467483  1.0000
  C   C42       1.0  0.17346383349123326  0.7237395069727127  0.6692463769800059  1.0000
  C   C43       1.0  0.6734658071957185  0.22374085482474726  0.8307525111110581  1.0000
  C   C44       1.0  0.8265356597038291  0.276261155391346  0.3307519612667279  1.0000
  C   C45       1.0  0.4473684559540629  0.7411732143329814  0.1900577105134929  1.0000
  C   C46       1.0  0.0526320859650014  0.75882744877692  0.6900570446321197  1.0000
  C   C47       1.0  0.5526339082519556  0.2588254747881109  0.8099410711614184  1.0000
  C   C48       1.0  0.9473703695761626  0.24117255734343965  0.3099426239030905  1.0000
  C   C49       1.0  0.5361127256871541  0.7928337886387381  0.2234927561570927  1.0000
  C   C50       1.0  0.9638870119917515  0.7071664853994974  0.7234926345400015  1.0000
  C   C51       1.0  0.4638887728509148  0.20716687522906338  0.7765064689487604  1.0000
  C   C52       1.0  0.036113620880008995  0.2928361532143882  0.27650614713693505  1.0000
  C   C53       1.0  0.3037930657347445  0.8637797820858212  0.1873608659559807  1.0000
  C   C54       1.0  0.19620543514005107  0.6362202172188699  0.6873600074372561  1.0000
  C   C55       1.0  0.6962083414673472  0.13621956478303326  0.8126379157195134  1.0000
  C   C56       1.0  0.8037939667173929  0.3637791281468666  0.31263877423898384  1.0000
  C   C57       1.0  0.9037527715662534  0.3857884940939086  0.7524910888799284  1.0000
  C   C58       1.0  0.5962478906013828  0.1142120880218584  0.25249192778758817  1.0000
  C   C59       1.0  0.09624362227013708  0.6142108490187113  0.24750990994711944  1.0000
  C   C60       1.0  0.40375360793668597  0.8857885758459433  0.7475072973182719  1.0000
  C   C61       1.0  0.8873245687180003  0.3024105246268434  0.7173621028522774  1.0000
  C   C62       1.0  0.6126794596599794  0.19759330270597528  0.21736121402720704  1.0000
  C   C63       1.0  0.11267683847753321  0.6975888222445122  0.2826402262627142  1.0000
  C   C64       1.0  0.3873191678638577  0.8024093344060433  0.7826393413702206  1.0000
  C   C65       1.0  0.77078688486111  0.2837149261917773  0.6840162084948533  1.0000
  C   C66       1.0  0.7292180410997345  0.2162855623790492  0.1840179064474299  1.0000
  C   C67       1.0  0.22921242565626437  0.7162831021765753  0.31598434690070587  1.0000
  C   C68       1.0  0.27078149776044563  0.7837157584855703  0.815982205519262  1.0000
  C   C69       1.0  0.7571885530262391  0.20564960076842453  0.651677284431017  1.0000
  C   C70       1.0  0.7428164011337728  0.29434952520456636  0.1516785833390912  1.0000
  C   C71       1.0  0.2428167278583047  0.7943477736093385  0.34832238410221816  1.0000
  C   C72       1.0  0.25717917270716123  0.7056524511525167  0.8483206417694333  1.0000
  C   C73       1.0  0.8599785229194765  0.14638116473754792  0.6516993969257073  1.0000
  C   C74       1.0  0.6400254284846197  0.35361796051577  0.15170170069834654  1.0000
  C   C75       1.0  0.1400247982880103  0.8536168666367274  0.3483007150384268  1.0000
  C   C76       1.0  0.3599710566893748  0.6463826995951721  0.8482988546991876  1.0000
  C   C77       1.0  0.9770234031770786  0.16461226677159854  0.6847313425365655  1.0000
  C   C78       1.0  0.5229784664578787  0.33538756205251014  0.1847315036634427  1.0000
  C   C79       1.0  0.022979052359993105  0.835387739350317  0.3152705431483298  1.0000
  C   C80       1.0  0.4770199783907286  0.6646124410628574  0.815269938593012  1.0000
  C   C81       1.0  0.9894477212093166  0.24253382573898816  0.7177172312656951  1.0000
  C   C82       1.0  0.5105532064971001  0.2574686828432177  0.21771912095307755  1.0000
  C   C83       1.0  0.010549675297753002  0.7574655181258195  0.2822846544208559  1.0000
  C   C84       1.0  0.48944637802820523  0.7425332965219766  0.7822827647335728  1.0000
  C   C85       1.0  0.0897211967798768  0.10216735487298928  0.6835037938960796  1.0000
  C   C86       1.0  0.41028222370830036  0.39783093369177186  0.18350592712025812  1.0000
  C   C87       1.0  0.9102799820761333  0.8978286995008345  0.3164972049280337  1.0000
  C   C88       1.0  0.5897185004928716  0.602173021923562  0.8164968454265349  1.0000
  N   N1        1.0  0.5146576543756538  0.8769735066695361  0.23893878852751274  1.0000
  N   N2        1.0  0.9853409778707273  0.6230261298965375  0.7389377052965432  1.0000
  N   N3        1.0  0.4853427501549347  0.12302583944744332  0.7610595497184179  1.0000
  N   N4        1.0  0.014654504633412594  0.37697452946190413  0.2610615198115553  1.0000
  N   N5        1.0  0.919989033492726  0.5708379980849044  0.8721609148198157  1.0000
  N   N6        1.0  0.5800102003287718  0.9291631440794249  0.37216065550166644  1.0000
  N   N7        1.0  0.0800114167037975  0.4291620065323301  0.12783875371614073  1.0000
  N   N8        1.0  0.4199923465500107  0.07083817903925652  0.6278385696040304  1.0000
  N   N9        1.0  0.10690989809894799  0.6622365979743492  0.029484291349724905  1.0000
  N   N10       1.0  0.3930872266621606  0.8377638357158119  0.5294838702794209  1.0000
  N   N11       1.0  0.8930895494244381  0.3377634058916429  0.9705158206165407  1.0000
  N   N12       1.0  0.6069133148719814  0.16223748589974457  0.4705153548270289  1.0000
  N   N13       1.0  0.23862611899869526  0.7289292670625611  0.1340086834286112  1.0000
  N   N14       1.0  0.2613725334138906  0.7710699985148681  0.6340083139493659  1.0000
  N   N15       1.0  0.7613721888471758  0.2710687605539164  0.8659914285373919  1.0000
  N   N16       1.0  0.738628873786567  0.2289293483546118  0.3659913545860008  1.0000
  O   O1        1.0  0.8073416919709259  0.4396530755077706  0.7471903821517645  1.0000
  O   O2        1.0  0.6926578044466042  0.0603448643839855  0.24718978129316588  1.0000
  O   O3        1.0  0.1926587125555699  0.560346270610772  0.2528101732438516  1.0000
  O   O4        1.0  0.3073416430784235  0.9396551394813812  0.7528094438132273  1.0000
  O   O5        1.0  0.005128048140711897  0.40028532459386673  0.784966463683908  1.0000
  O   O6        1.0  0.49487116929638825  0.09971573802610581  0.2849665519359236  1.0000
  O   O7        1.0  0.9948703510411363  0.5997140200215652  0.2150340917124538  1.0000
  O   O8        1.0  0.5051302835708213  0.9002842673433092  0.715034003459529  1.0000
  O   O9        1.0  0.19337264100332874  0.1274326766107876  0.715593901768415  1.0000
  O   O10       1.0  0.3066297038685732  0.3725663149485996  0.21559432088132272  1.0000
  O   O11       1.0  0.8066287205213456  0.8725660117621814  0.28440975763616905  1.0000
  O   O12       1.0  0.6933708376540936  0.6274350066713338  0.7844111122442357  1.0000
  O   O13       1.0  0.0818318000827034  0.03381735277971389  0.6526676551536428  1.0000
  O   O14       1.0  0.41816467001282825  0.46618022854427477  0.1526689433759714  1.0000
  O   O15       1.0  0.9181739374825355  0.96618660659248  0.34733378710147633  1.0000
  O   O16       1.0  0.581826482115872  0.5338158183155243  0.8473342726015646  1.0000
