data_image0
_chemical_formula_structural       Ag2H28C32S2N4O4
_chemical_formula_sum              "Ag2 H28 C32 S2 N4 O4"
_cell_length_a       7.524309476045506
_cell_length_b       11.977266427345462
_cell_length_c       13.023096931954065
_cell_angle_alpha    73.0239046827614
_cell_angle_beta     84.90485021869713
_cell_angle_gamma    72.90886082923925

_space_group_name_H-M_alt    "P 1"
_space_group_IT_number       1

loop_
  _space_group_symop_operation_xyz
  'x, y, z'

loop_
  _atom_site_type_symbol
  _atom_site_label
  _atom_site_symmetry_multiplicity
  _atom_site_fract_x
  _atom_site_fract_y
  _atom_site_fract_z
  _atom_site_occupancy
  Ag  Ag1       1.0  0.3025937756115624  0.25865483103657283  0.10160230351866065  1.0000
  Ag  Ag2       1.0  0.6974065684945574  0.7413413785176529  0.8984016057847344  1.0000
  H   H1        1.0  0.27778243444294043  0.7722718801388738  0.8246043089209535  1.0000
  H   H2        1.0  0.7222192384704369  0.22772795466298856  0.1753870551915782  1.0000
  H   H3        1.0  0.08020251460387579  0.6490802606740402  0.8016016038257021  1.0000
  H   H4        1.0  0.919800249509251  0.3509168431059848  0.19839273907700772  1.0000
  H   H5        1.0  0.5627464553183047  0.33558383544167475  0.8727470229956111  1.0000
  H   H6        1.0  0.4372646800439455  0.6644122829715542  0.127250259655554  1.0000
  H   H7        1.0  0.7413374116982182  0.47158671323629153  0.897243747502124  1.0000
  H   H8        1.0  0.25866450083275083  0.5284122015899014  0.10275860048471942  1.0000
  H   H9        1.0  0.08123103848150498  0.4492589088430066  0.7656584749637717  1.0000
  H   H10       1.0  0.9187682048775088  0.5507400309919107  0.23434322408360936  1.0000
  H   H11       1.0  0.2818124769122933  0.3199443366996704  0.8022383237750718  1.0000
  H   H12       1.0  0.7181844991974486  0.6800537207679866  0.1977606451262091  1.0000
  H   H13       1.0  0.912590496016456  0.27194630450325263  0.8554362376755195  1.0000
  H   H14       1.0  0.08741618115470816  0.7280507547226734  0.14456637971103695  1.0000
  H   H15       1.0  0.9115113014349349  0.20553969858995905  0.9981339090139161  1.0000
  H   H16       1.0  0.08849062064339827  0.794459216977387  0.001867670438755907  1.0000
  H   H17       1.0  0.1771699913776814  0.1750960047277061  0.7443213173607931  1.0000
  H   H18       1.0  0.8228307822167481  0.8249056374145383  0.2556818945067221  1.0000
  H   H19       1.0  0.4328362979675335  0.9876426185795351  0.7398506353798028  1.0000
  H   H20       1.0  0.5671658627233497  0.012359015134720196  0.2601486740194972  1.0000
  H   H21       1.0  0.4171271893770765  0.8498397571787778  0.06996663921007946  1.0000
  H   H22       1.0  0.5828720455110243  0.15015284417445682  0.9300321389981933  1.0000
  H   H23       1.0  0.1615850113264443  0.0322162946217688  0.08923305400427492  1.0000
  H   H24       1.0  0.838422795233896  0.9677780365469459  0.9107694680357739  1.0000
  H   H25       1.0  0.1459060834972092  0.1688962381032297  0.46570287830538604  1.0000
  H   H26       1.0  0.8540661022560911  0.8311165376406109  0.5342987171638356  1.0000
  H   H27       1.0  0.9372344391786597  0.935613944053799  0.34535142391352025  1.0000
  H   H28       1.0  0.0627520585134818  0.06439960411209  0.6546531320597779  1.0000
  C   C1        1.0  0.3378931999667004  0.674881965281365  0.8356033834785709  1.0000
  C   C2        1.0  0.6621103669153428  0.32511966148721433  0.16439048638416406  1.0000
  C   C3        1.0  0.22663604671161156  0.6052077449171662  0.8222629215124329  1.0000
  C   C4        1.0  0.7733669273719884  0.394792074786281  0.1777314569394335  1.0000
  C   C5        1.0  0.30561080179034417  0.4806689463600052  0.835285237235553  1.0000
  C   C6        1.0  0.6943898095703956  0.519329983564603  0.16471409641195578  1.0000
  C   C7        1.0  0.4944482334719567  0.4320764798092611  0.8615110974357093  1.0000
  C   C8        1.0  0.5055558222640357  0.567920608131182  0.1384870283405135  1.0000
  C   C9        1.0  0.5948887169227531  0.5075498698925786  0.8745090213117308  1.0000
  C   C10       1.0  0.4051219794038303  0.4924408151914719  0.12548972730948552  1.0000
  C   C11       1.0  0.1931483336820322  0.4000667934354779  0.8248131955326701  1.0000
  C   C12       1.0  0.806854354052227  0.5999303044152741  0.1751872956434327  1.0000
  C   C13       1.0  0.9992973768618115  0.22910915822401276  0.9278734441870214  1.0000
  C   C14       1.0  0.0007037795605880828  0.7708915750599347  0.07212922354221968  1.0000
  C   C15       1.0  0.15001323113040846  0.11882101164529502  0.9179942617274008  1.0000
  C   C16       1.0  0.8499896665743308  0.8811788021288862  0.08200626499785103  1.0000
  C   C17       1.0  0.2280373873531545  0.10582077890884282  0.819067412248458  1.0000
  C   C18       1.0  0.7719672134444906  0.8941781123909395  0.18093404760949738  1.0000
  C   C19       1.0  0.36927472519585086  0.0008982944952506989  0.815708498446476  1.0000
  C   C20       1.0  0.6307241448825563  0.9991015549391237  0.18429297620501467  1.0000
  C   C21       1.0  0.358809289588322  0.9236400693749046  0.9991892540655841  1.0000
  C   C22       1.0  0.6411859452390728  0.07635890760251841  0.0008118558396859134  1.0000
  C   C23       1.0  0.21798072852506317  0.024354246920061905  0.0103837368044708  1.0000
  C   C24       1.0  0.7820205636418363  0.9756365208769964  0.989617736000753  1.0000
  C   C25       1.0  0.09456546222777719  0.11983126418867582  0.2817669016714888  1.0000
  C   C26       1.0  0.9054351671512393  0.8801740049587748  0.7182345842809428  1.0000
  C   C27       1.0  0.04600703725936482  0.058035572378365395  0.3948342652902568  1.0000
  C   C28       1.0  0.9539902050285534  0.9419715432002036  0.6051638173284175  1.0000
  C   C29       1.0  0.08176002904097153  0.09480388371734699  0.48191653196436596  1.0000
  C   C30       1.0  0.9182291388995695  0.905203301699288  0.5180849835751218  1.0000
  C   C31       1.0  0.9639871184853991  0.9627376768421668  0.41410695202208103  1.0000
  C   C32       1.0  0.0359977524926975  0.0372767997273868  0.5858905225451281  1.0000
  S   S1        1.0  0.08369155404609772  0.3469242643203217  0.9545362408272596  1.0000
  S   S2        1.0  0.9163120806724976  0.6530737295137855  0.045465503223944416  1.0000
  N   N1        1.0  0.5188341892386249  0.6272833369432718  0.8621483872540311  1.0000
  N   N2        1.0  0.4811660488415156  0.37271650258079353  0.1378507219975873  1.0000
  N   N3        1.0  0.43478592144080597  0.9106694961530338  0.9043362008816729  1.0000
  N   N4        1.0  0.5652133505602778  0.08932944590536349  0.09566319256317972  1.0000
  O   O1        1.0  0.2040079622086566  0.186742091720042  0.2728151860031076  1.0000
  O   O2        1.0  0.7959890319193549  0.8132623049704575  0.7271859352031029  1.0000
  O   O3        1.0  0.024338310857700687  0.10317773206534041  0.20459998563921294  1.0000
  O   O4        1.0  0.9756716293603059  0.896814771476464  0.7953990827244013  1.0000
