data_image0
_chemical_formula_structural       Zn4H24C12O12
_chemical_formula_sum              "Zn4 H24 C12 O12"
_cell_length_a       6.428989741001496
_cell_length_b       8.041365372343714
_cell_length_c       8.67574770825672
_cell_angle_alpha    93.7352265629215
_cell_angle_beta     90.0000484451567
_cell_angle_gamma    89.99993545609058

_space_group_name_H-M_alt    "P 1"
_space_group_IT_number       1

loop_
  _space_group_symop_operation_xyz
  'x, y, z'

loop_
  _atom_site_type_symbol
  _atom_site_label
  _atom_site_symmetry_multiplicity
  _atom_site_fract_x
  _atom_site_fract_y
  _atom_site_fract_z
  _atom_site_occupancy
  Zn  Zn1       1.0  0.9246368188557383  0.5525621626516681  0.8373471884074137  1.0000
  Zn  Zn2       1.0  0.4246359936626476  0.4474395471889709  0.6626524340854874  1.0000
  Zn  Zn3       1.0  0.07536309870383211  0.4474394488194947  0.16265242991145365  1.0000
  Zn  Zn4       1.0  0.5753639238990828  0.552560824148877  0.3373494174330532  1.0000
  H   H1        1.0  0.8433019396446397  0.13617273742754324  0.035548873052484005  1.0000
  H   H2        1.0  0.3433008797441559  0.8638297930300922  0.46445211797298935  1.0000
  H   H3        1.0  0.15670264427994604  0.8638238831075568  0.9644481498809514  1.0000
  H   H4        1.0  0.6567005932719141  0.1361705783070803  0.5355497335459918  1.0000
  H   H5        1.0  0.8840584188273938  0.13022324569640636  0.8318191953763192  1.0000
  H   H6        1.0  0.38405856345710293  0.8697785023040938  0.668181556972286  1.0000
  H   H7        1.0  0.11594149872835402  0.8697820983350155  0.16817833461771414  1.0000
  H   H8        1.0  0.6159429095583064  0.1302218659930006  0.3318191417281469  1.0000
  H   H9        1.0  0.5897549409524316  0.36052765635920286  0.024112149182414607  1.0000
  H   H10       1.0  0.08975420877016661  0.6394750874605535  0.475886392725137  1.0000
  H   H11       1.0  0.4102465320646403  0.6394702195109475  0.9758884046431932  1.0000
  H   H12       1.0  0.9102457087902353  0.36052527779713744  0.5241131531563213  1.0000
  H   H13       1.0  0.42108685744589286  0.1029169149600904  0.9551609299209719  1.0000
  H   H14       1.0  0.9210837505506149  0.8970860411273879  0.5448376101812544  1.0000
  H   H15       1.0  0.578911504660006  0.897084699551826  0.04483984121600321  1.0000
  H   H16       1.0  0.07891461155477941  0.10291432109089985  0.45516078288121536  1.0000
  H   H17       1.0  0.5542445514577707  0.07610410858153933  0.7743482019542258  1.0000
  H   H18       1.0  0.05424002031757171  0.9238941801510522  0.7256498408037617  1.0000
  H   H19       1.0  0.44575536610728506  0.9238912779024135  0.22565335981464335  1.0000
  H   H20       1.0  0.9457552308808063  0.07610368964163432  0.2743484073830019  1.0000
  H   H21       1.0  0.1923866711379603  0.27636375672185665  0.8556217832719002  1.0000
  H   H22       1.0  0.6923839224779017  0.7236369079163439  0.6443776353538766  1.0000
  H   H23       1.0  0.8076148018766176  0.7236378577887097  0.14437898786595582  1.0000
  H   H24       1.0  0.30761288417315313  0.2763634543026114  0.3556207577081525  1.0000
  C   C1        1.0  0.851613198078539  0.21359816294871342  0.9352220767121442  1.0000
  C   C2        1.0  0.35161178455798137  0.7864048563068806  0.5647775768943151  1.0000
  C   C3        1.0  0.14838983038838197  0.7864034424409497  0.06477523597052233  1.0000
  C   C4        1.0  0.6483881330030812  0.2135955119908887  0.4352231218056773  1.0000
  C   C5        1.0  0.6418212206181338  0.29938191978087775  0.9125437229056532  1.0000
  C   C6        1.0  0.14181995357049  0.7006212810475246  0.5874558119806467  1.0000
  C   C7        1.0  0.35818025239643714  0.7006196947296884  0.08745704823219572  1.0000
  C   C8        1.0  0.8581799639905796  0.2993790872502444  0.4125448867193456  1.0000
  C   C9        1.0  0.48001358686234147  0.16821857693854983  0.8564626085586868  1.0000
  C   C10       1.0  0.9800091301778623  0.831783075855377  0.6435335868149823  1.0000
  C   C11       1.0  0.5199878861534017  0.8317792928514438  0.14353563962983176  1.0000
  C   C12       1.0  0.019987676472531708  0.16821728332350017  0.35646365342850583  1.0000
  O   O1        1.0  0.0163761415772825  0.3319850159310819  0.9529518397140538  1.0000
  O   O2        1.0  0.5163718028852458  0.6680170472566545  0.5470475517452444  1.0000
  O   O3        1.0  0.983626886890967  0.668016595538731  0.04704777860570182  1.0000
  O   O4        1.0  0.483626559220646  0.3319845672552618  0.4529532193917306  1.0000
  O   O5        1.0  0.6650984454691553  0.42193530310617433  0.802775555528058  1.0000
  O   O6        1.0  0.1650974771415079  0.5780678775758973  0.6972239925307947  1.0000
  O   O7        1.0  0.33490147209174376  0.5780663144451452  0.19722636842789856  1.0000
  O   O8        1.0  0.8349024404187304  0.42193373693534414  0.30277677860662083  1.0000
  O   O9        1.0  0.30985611910938365  0.23928232129730284  0.7772791036000017  1.0000
  O   O10       1.0  0.8098534090590023  0.7607194909257944  0.7227216067571051  1.0000
  O   O11       1.0  0.690146909361694  0.7607180530792804  0.22272390073796094  1.0000
  O   O12       1.0  0.19014495304706003  0.23928087433257167  0.27727793912391263  1.0000
