data_image0
_chemical_formula_structural       Cu4H8C8N12
_chemical_formula_sum              "Cu4 H8 C8 N12"
_cell_length_a       4.86296964075291
_cell_length_b       4.947663176552304
_cell_length_c       14.642594714007156
_cell_angle_alpha    90.00009639027158
_cell_angle_beta     90.00002590627791
_cell_angle_gamma    108.46994678838733

_space_group_name_H-M_alt    "P 1"
_space_group_IT_number       1

loop_
  _space_group_symop_operation_xyz
  'x, y, z'

loop_
  _atom_site_type_symbol
  _atom_site_label
  _atom_site_symmetry_multiplicity
  _atom_site_fract_x
  _atom_site_fract_y
  _atom_site_fract_z
  _atom_site_occupancy
  Cu  Cu1       1.0  0.8377975166123832  0.16347334945068326  0.4506121847897975  1.0000
  Cu  Cu2       1.0  0.1621914021891513  0.3365368273948023  0.9506185106424214  1.0000
  Cu  Cu3       1.0  0.16219269369868533  0.8365312455429006  0.5493810229036812  1.0000
  Cu  Cu4       1.0  0.83780088033064  0.6634741603841335  0.049386989956275315  1.0000
  H   H1        1.0  0.17132256598637952  0.3307418706482537  0.6960884845797397  1.0000
  H   H2        1.0  0.8286908453812885  0.16926246399349756  0.19608625829846463  1.0000
  H   H3        1.0  0.828689559227861  0.669260549199322  0.3039136013226483  1.0000
  H   H4        1.0  0.1713233520179571  0.830746348596378  0.8039137787886902  1.0000
  H   H5        1.0  0.6607778866465281  0.8169728512807239  0.6952008385976002  1.0000
  H   H6        1.0  0.3392099701617042  0.683020648601122  0.19520469366055698  1.0000
  H   H7        1.0  0.33921023434617575  0.18301895419671865  0.30479373497022527  1.0000
  H   H8        1.0  0.6607795323079984  0.3169754187414284  0.8048008069336847  1.0000
  C   C1        1.0  0.3692092336924091  0.3809573306375  0.6565265362896471  1.0000
  C   C2        1.0  0.630819225746947  0.1190872498473254  0.15651469081159772  1.0000
  C   C3        1.0  0.6308153246691574  0.6190834457315757  0.3434857937106131  1.0000
  C   C4        1.0  0.3692087690913438  0.880957784261042  0.8434744192617888  1.0000
  C   C5        1.0  0.6123308538727414  0.6215129792231052  0.6563101311605453  1.0000
  C   C6        1.0  0.3876143745930775  0.8784697090047044  0.15630249469404595  1.0000
  C   C7        1.0  0.3876236612464012  0.3784639662025739  0.34369605236472023  1.0000
  C   C8        1.0  0.6123333017388363  0.12151151430759914  0.8436907129896131  1.0000
  N   N1        1.0  0.6784002662741102  0.31837092930280153  0.5571165647758037  1.0000
  N   N2        1.0  0.3216099054915347  0.1816176506119973  0.05712519699092412  1.0000
  N   N3        1.0  0.3216063330851995  0.6816144431806918  0.4428739111571575  1.0000
  N   N4        1.0  0.6784028761990228  0.818374106628667  0.9428837182991716  1.0000
  N   N5        1.0  0.8002603009884484  0.577716959332861  0.5941633603731804  1.0000
  N   N6        1.0  0.19967429251315139  0.9222078050040068  0.09416869664800492  1.0000
  N   N7        1.0  0.19967283575909528  0.4222067211946268  0.40582916435395333  1.0000
  N   N8        1.0  0.8002629715015529  0.0777222642896263  0.9058374868626375  1.0000
  N   N9        1.0  0.4150494934025701  0.19630464077576454  0.5946139629405638  1.0000
  N   N10       1.0  0.5850294812620335  0.3037501301064793  0.09461792330873922  1.0000
  N   N11       1.0  0.5850278399275125  0.8037466935652303  0.4053819765289789  1.0000
  N   N12       1.0  0.415048542811057  0.6963033351752727  0.9053862114302904  1.0000
