data_image0
_chemical_formula_structural       Ag4H32C36S4N12O12
_chemical_formula_sum              "Ag4 H32 C36 S4 N12 O12"
_cell_length_a       8.55607614955536
_cell_length_b       9.483733894170657
_cell_length_c       12.836687571029326
_cell_angle_alpha    89.99995036494735
_cell_angle_beta     90.00024668728337
_cell_angle_gamma    93.19005128969617

_space_group_name_H-M_alt    "P 1"
_space_group_IT_number       1

loop_
  _space_group_symop_operation_xyz
  'x, y, z'

loop_
  _atom_site_type_symbol
  _atom_site_label
  _atom_site_symmetry_multiplicity
  _atom_site_fract_x
  _atom_site_fract_y
  _atom_site_fract_z
  _atom_site_occupancy
  Ag  Ag1       1.0  0.4449438758300418  0.6317771531570315  0.7845003353807486  1.0000
  Ag  Ag2       1.0  0.05505791798722021  0.8682235584716694  0.2844984261869641  1.0000
  Ag  Ag3       1.0  0.5550473980284991  0.3682276803949591  0.2154986519605231  1.0000
  Ag  Ag4       1.0  0.9449446958542608  0.1317759592045959  0.7155021192069313  1.0000
  H   H1        1.0  0.6663388115132065  0.6446547559857975  0.9585401009610379  1.0000
  H   H2        1.0  0.8336653634597723  0.8553434974628614  0.4585374556494983  1.0000
  H   H3        1.0  0.3336439372316137  0.3553448221064883  0.0414557703008214  1.0000
  H   H4        1.0  0.16634082505725442  0.1446570656195831  0.5414630897492785  1.0000
  H   H5        1.0  0.9184749757198033  0.7774958312032183  0.0157317821115015  1.0000
  H   H6        1.0  0.5815323927842256  0.7225048880448385  0.5157310131307469  1.0000
  H   H7        1.0  0.0815076348940167  0.222501634752156  0.9842687632538513  1.0000
  H   H8        1.0  0.4184737957352596  0.2774956750372795  0.4842703112851936  1.0000
  H   H9        1.0  0.011687672138989996  0.9845827017922275  0.9053812402193628  1.0000
  H   H10       1.0  0.48831948764139105  0.5154168381566393  0.40538082538923  1.0000
  H   H11       1.0  0.9883086155237849  0.015409441180224798  0.0946200841848537  1.0000
  H   H12       1.0  0.5116854632783546  0.48458267241078795  0.5946228360767521  1.0000
  H   H13       1.0  0.2532074282907217  0.8541711095146028  0.8969378681250505  1.0000
  H   H14       1.0  0.24679493513973233  0.6458273956633034  0.3969397793743711  1.0000
  H   H15       1.0  0.7467939479436725  0.14582735564795973  0.1030626772673742  1.0000
  H   H16       1.0  0.7532087090927179  0.35417000632391893  0.6030615450388837  1.0000
  H   H17       1.0  0.5263489923020545  0.7544868604108643  0.21250238455481  1.0000
  H   H18       1.0  0.9736514350539168  0.7455137186590405  0.7125027456495516  1.0000
  H   H19       1.0  0.47365245299783965  0.24551266082014678  0.7874958237858679  1.0000
  H   H20       1.0  0.026350010253331398  0.2544858025709971  0.2874977997426313  1.0000
  H   H21       1.0  0.2752714008914268  0.0424202598657857  0.7656114498296915  1.0000
  H   H22       1.0  0.2247331235358914  0.4575761026389599  0.2656154311614359  1.0000
  H   H23       1.0  0.7247334118654436  0.9575771385689721  0.2343867585165924  1.0000
  H   H24       1.0  0.77527052069901  0.5424212993479358  0.7343866722689826  1.0000
  H   H25       1.0  0.5246925868553589  0.862660872640269  0.6596714448066122  1.0000
  H   H26       1.0  0.9753108754062794  0.6373376279491225  0.15967091278352544  1.0000
  H   H27       1.0  0.4753067976601386  0.1373428799691752  0.3403244264781833  1.0000
  H   H28       1.0  0.024691738437645896  0.362661889726823  0.8403304116275336  1.0000
  H   H29       1.0  0.6757785650161452  0.9927087127031909  0.6350126137105576  1.0000
  H   H30       1.0  0.824227010023037  0.5072887453955205  0.1350117250016964  1.0000
  H   H31       1.0  0.3242243251045025  0.0072950292446166  0.3649840365965247  1.0000
  H   H32       1.0  0.17577787181650004  0.4927097091054122  0.864989599413022  1.0000
  C   C1        1.0  0.6994567527365875  0.8812880932693118  0.770380160734625  1.0000
  C   C2        1.0  0.8005472682449337  0.6187082023209244  0.27037990950911  1.0000
  C   C3        1.0  0.3005401565671876  0.11871355431238581  0.2296164895644068  1.0000
  C   C4        1.0  0.19945520745083198  0.3812892032203904  0.7296206358852687  1.0000
  C   C5        1.0  0.7163916271842794  0.7354575548986303  0.9156459012298157  1.0000
  C   C6        1.0  0.7836144767176306  0.7645386152868738  0.4156455058102537  1.0000
  C   C7        1.0  0.28359229009968345  0.2645420196392365  0.0843515280680904  1.0000
  C   C8        1.0  0.21639171180184752  0.23546194779523688  0.5843558186056867  1.0000
  C   C9        1.0  0.8531325171027151  0.8082184783737533  0.9477166560182084  1.0000
  C   C10       1.0  0.6468737886699644  0.6917776649104823  0.447715908579049  1.0000
  C   C11       1.0  0.14685366818665813  0.19178003298779342  0.05228388935202591  1.0000
  C   C12       1.0  0.3531334993157956  0.30822183854972707  0.5522869738731728  1.0000
  C   C13       1.0  0.9057863439424024  0.9210272550204833  0.8859920499473546  1.0000
  C   C14       1.0  0.5942184738358166  0.5789699996608563  0.3859904430276444  1.0000
  C   C15       1.0  0.0942054077291559  0.0789670143019876  0.1140092744495504  1.0000
  C   C16       1.0  0.405786477079026  0.4210295109072248  0.614011660403996  1.0000
  C   C17       1.0  0.3397014753121256  0.9417766181027502  0.90672086354828  1.0000
  C   C18       1.0  0.16029991930902548  0.5582239945578422  0.4067225791443292  1.0000
  C   C19       1.0  0.6603001081383796  0.05822501526256469  0.0932789028262562  1.0000
  C   C20       1.0  0.8396991889297568  0.4417755337797331  0.5932779662444432  1.0000
  C   C21       1.0  0.44149137708066627  0.9425000563579716  0.9941244011450222  1.0000
  C   C22       1.0  0.05851049863021979  0.5574994269205648  0.4941242619443926  1.0000
  C   C23       1.0  0.5585113058336688  0.057500517385776086  0.005876144248624401  1.0000
  C   C24       1.0  0.9414897090723929  0.44249904179543637  0.5058770624634974  1.0000
  C   C25       1.0  0.4354524632627417  0.8326669923556692  0.0706603385033588  1.0000
  C   C26       1.0  0.06454915306208871  0.6673338950905645  0.5706603348006283  1.0000
  C   C27       1.0  0.5645502196491422  0.167333581388398  0.9293394278731242  1.0000
  C   C28       1.0  0.9354522922427009  0.3326656261398  0.429339431574391  1.0000
  C   C29       1.0  0.5361877235830192  0.8386021438479573  0.1549400140229835  1.0000
  C   C30       1.0  0.9638135099739529  0.6613984799526591  0.6549396220216792  1.0000
  C   C31       1.0  0.46381612786064624  0.1613984263426715  0.8450589733380411  1.0000
  C   C32       1.0  0.036188004403698  0.33860209734518076  0.34506014435309135  1.0000
  C   C33       1.0  0.35166127047484963  0.048124193523499094  0.8335044637472748  1.0000
  C   C34       1.0  0.14834265091626256  0.4518742277210634  0.33350666768537  1.0000
  C   C35       1.0  0.6483436804301875  0.951875317045882  0.1664945236156967  1.0000
  C   C36       1.0  0.8516598247795029  0.5481231778202513  0.6664938777090087  1.0000
  S   S1        1.0  0.2958788848022991  0.6827504290712555  0.0662400400095251  1.0000
  S   S2        1.0  0.2041238031585166  0.8172494024617479  0.5662395674550211  1.0000
  S   S3        1.0  0.7041214610435702  0.3172501517800298  0.9337605053807109  1.0000
  S   S4        1.0  0.7958776421462802  0.18275011876861666  0.43376019891999107  1.0000
  N   N1        1.0  0.628244118814692  0.9141056528626166  0.6817434727087459  1.0000
  N   N2        1.0  0.871760581841592  0.5858917695912993  0.1817426717339998  1.0000
  N   N3        1.0  0.37175299771010384  0.08589916292118009  0.3182539566067319  1.0000
  N   N4        1.0  0.1282431314637122  0.41410668846339865  0.8182586526790133  1.0000
  N   N5        1.0  0.6402724492981663  0.7704184349566959  0.8286116436588458  1.0000
  N   N6        1.0  0.859731938226318  0.7295778117880828  0.3286114932240167  1.0000
  N   N7        1.0  0.35971634933638813  0.2295842935691823  0.1713842276108224  1.0000
  N   N8        1.0  0.14027170600613204  0.2704195901991398  0.6713898311892308  1.0000
  N   N9        1.0  0.8311549045842384  0.9587563389577128  0.7992779697053862  1.0000
  N   N10       1.0  0.668850535900397  0.5412409849067927  0.2992766052280373  1.0000
  N   N11       1.0  0.1688430351203111  0.0412431929336279  0.2007225756816737  1.0000
  N   N12       1.0  0.33115317740735867  0.4587574731475783  0.7007254982021395  1.0000
  O   O1        1.0  0.35021237670749633  0.5840693196367042  0.1439658103299379  1.0000
  O   O2        1.0  0.1497886015808376  0.9159325659413681  0.6439651150016418  1.0000
  O   O3        1.0  0.6497869387523068  0.4159333769029701  0.8560355140752733  1.0000
  O   O4        1.0  0.8502128437239592  0.0840669552889892  0.35603465137337753  1.0000
  O   O5        1.0  0.29625440571913936  0.6250296910761293  0.959106691498853  1.0000
  O   O6        1.0  0.2037554983831882  0.8749708527667721  0.4591067701508251  1.0000
  O   O7        1.0  0.7037481390519319  0.37496877053233396  0.0408946329124475  1.0000
  O   O8        1.0  0.7962530962751585  0.12503075927560298  0.5408937752511136  1.0000
  O   O9        1.0  0.1428859059080096  0.738926949857948  0.09247008545443691  1.0000
  O   O10       1.0  0.357114679173158  0.7610739228467408  0.5924724331958302  1.0000
  O   O11       1.0  0.8571145090009081  0.2610746870621199  0.9075273438668816  1.0000
  O   O12       1.0  0.6428856666727115  0.2389266580045444  0.40752811219440593  1.0000
