data_image0
_chemical_formula_structural       Zn2H32C44N24
_chemical_formula_sum              "Zn2 H32 C44 N24"
_cell_length_a       10.377152710702081
_cell_length_b       10.377179644217133
_cell_length_c       11.9774367879762
_cell_angle_alpha    70.75468226419335
_cell_angle_beta     70.7551683064496
_cell_angle_gamma    66.75709224325836

_space_group_name_H-M_alt    "P 1"
_space_group_IT_number       1

loop_
  _space_group_symop_operation_xyz
  'x, y, z'

loop_
  _atom_site_type_symbol
  _atom_site_label
  _atom_site_symmetry_multiplicity
  _atom_site_fract_x
  _atom_site_fract_y
  _atom_site_fract_z
  _atom_site_occupancy
  Zn  Zn1       1.0  0.0725359434334718  0.9274598689544863  0.7499996341052225  1.0000
  Zn  Zn2       1.0  0.9274614482316109  0.0725385683057809  0.2500024447785095  1.0000
  H   H1        1.0  0.4989161882850225  0.5905859070745906  0.13323149165096035  1.0000
  H   H2        1.0  0.40941287938348137  0.5010852835063915  0.36676971980553225  1.0000
  H   H3        1.0  0.5010838030995258  0.40941696967890817  0.8667701358408169  1.0000
  H   H4        1.0  0.5905884041061212  0.4989164513863856  0.633226851565887  1.0000
  H   H5        1.0  0.7633845804838159  0.4753767194412505  0.13306222552397168  1.0000
  H   H6        1.0  0.5246206777603176  0.23661659508856306  0.36694010686364475  1.0000
  H   H7        1.0  0.23661520520060014  0.5246206907994093  0.8669394413428864  1.0000
  H   H8        1.0  0.4753823872178485  0.7633830402926732  0.6330582306496526  1.0000
  H   H9        1.0  0.9436401728240539  0.5067392942930339  0.9341302876456937  1.0000
  H   H10       1.0  0.49325524815859006  0.05636192791442338  0.5658723948781061  1.0000
  H   H11       1.0  0.05636073693923995  0.49325489908650166  0.06587284514888131  1.0000
  H   H12       1.0  0.5067460652502903  0.9436398368834557  0.4341258287419267  1.0000
  H   H13       1.0  0.622319863905247  0.7501240637732777  0.7468209990618606  1.0000
  H   H14       1.0  0.24986949212394188  0.3776786157584198  0.7531784130802494  1.0000
  H   H15       1.0  0.3776835186954698  0.24987779613387326  0.25317907764640085  1.0000
  H   H16       1.0  0.7501256735479772  0.6223229235218426  0.24681755577228148  1.0000
  H   H17       1.0  0.9185295354493873  0.8483801680838566  0.01342888045134319  1.0000
  H   H18       1.0  0.1516250294925641  0.08147041840648939  0.48656896792483917  1.0000
  H   H19       1.0  0.08146618346449229  0.1516290921402685  0.9865704404696845  1.0000
  H   H20       1.0  0.8483699232742623  0.9185290010157277  0.5134310446028536  1.0000
  H   H21       1.0  0.6657371802080122  0.883655465463086  0.1300424586008972  1.0000
  H   H22       1.0  0.1163482924079844  0.33426386888133663  0.3699619111908704  1.0000
  H   H23       1.0  0.3342604769957518  0.11634849812023161  0.8699628854049666  1.0000
  H   H24       1.0  0.883647045024894  0.665734488222206  0.6300391407289256  1.0000
  H   H25       1.0  0.5376332583597048  0.090748792237676  0.7856689832596332  1.0000
  H   H26       1.0  0.9092422212303073  0.4623614086235293  0.7143328658950453  1.0000
  H   H27       1.0  0.46236341203723436  0.9092398490783256  0.21433626560366995  1.0000
  H   H28       1.0  0.09076389517688449  0.5376383170876835  0.28566535981553914  1.0000
  H   H29       1.0  0.7943214430495686  0.048078053054695105  0.6856045879192011  1.0000
  H   H30       1.0  0.9519063640554819  0.20567390179773073  0.8143926705673367  1.0000
  H   H31       1.0  0.2056737557266785  0.9519115506914206  0.3143958035728147  1.0000
  H   H32       1.0  0.048093967116209085  0.7943278677794439  0.18560751794363736  1.0000
  C   C1        1.0  0.389876257193734  0.7434080321212663  0.9331788599566339  1.0000
  C   C2        1.0  0.2565942738328744  0.6101224987690658  0.5668211463879018  1.0000
  C   C3        1.0  0.6101260982908839  0.2565937877075228  0.06682070326966283  1.0000
  C   C4        1.0  0.7434050003034401  0.38987920082464467  0.43317687639249414  1.0000
  C   C5        1.0  0.5406924334290011  0.6786902825920862  0.9396412161026861  1.0000
  C   C6        1.0  0.32130784241671506  0.45930789956973683  0.5603595619561689  1.0000
  C   C7        1.0  0.4593099669345264  0.32131158209435984  0.06036082549652385  1.0000
  C   C8        1.0  0.6786914018003287  0.540693770118871  0.4396368085756139  1.0000
  C   C9        1.0  0.5817947366985479  0.6016738880499661  0.04971671578262963  1.0000
  C   C10       1.0  0.3983290865601816  0.41820632438717814  0.4502844660769085  1.0000
  C   C11       1.0  0.4182079513682595  0.3983301712572924  0.9502854127629381  1.0000
  C   C12       1.0  0.6016772876310127  0.5817955660397447  0.549712194331427  1.0000
  C   C13       1.0  0.727790634254191  0.5391176177299642  0.049365632626383237  1.0000
  C   C14       1.0  0.46088041344678715  0.27221224905500924  0.450635615095699  1.0000
  C   C15       1.0  0.2722138574657579  0.460881010363515  0.9506350838852884  1.0000
  C   C16       1.0  0.5391219121185526  0.7277895408686775  0.5493622958819914  1.0000
  C   C17       1.0  0.828080313523643  0.556042802171035  0.9388437682038105  1.0000
  C   C18       1.0  0.44395175137253057  0.171921662027998  0.5611574847939096  1.0000
  C   C19       1.0  0.1719221389237475  0.4439557607182749  0.06115674746823168  1.0000
  C   C20       1.0  0.5560481502541988  0.8280811250101934  0.43883918595204835  1.0000
  C   C21       1.0  0.650420124491866  0.6900782522714125  0.834045149770951  1.0000
  C   C22       1.0  0.3099196852238819  0.3495810195136002  0.665954980280276  1.0000
  C   C23       1.0  0.34958291832171534  0.30992471481206973  0.16595636591811314  1.0000
  C   C24       1.0  0.6900812435189465  0.650421807602953  0.33404220394764667  1.0000
  C   C25       1.0  0.8298979559571221  0.8993867388786257  0.9672580096077826  1.0000
  C   C26       1.0  0.10061201849719477  0.1701013738272437  0.5327381306778493  1.0000
  C   C27       1.0  0.1700989912033606  0.1006127008901032  0.03273972538662662  1.0000
  C   C28       1.0  0.8993860006582961  0.8298981508775044  0.4672625961714375  1.0000
  C   C29       1.0  0.687642465450537  0.919502077768378  0.03104325355334226  1.0000
  C   C30       1.0  0.08049948585155423  0.31236002420788367  0.46895711452528843  1.0000
  C   C31       1.0  0.3123572531903775  0.08049861931686313  0.968959113116377  1.0000
  C   C32       1.0  0.9194985333039366  0.6876395004968642  0.5310436123239984  1.0000
  C   C33       1.0  0.5766322171972288  0.9883607933871303  0.9679403841463388  1.0000
  C   C34       1.0  0.011637569097679467  0.4233699290230676  0.5320604021084209  1.0000
  C   C35       1.0  0.42336796811287764  0.011635569487403104  0.032063148236936505  1.0000
  C   C36       1.0  0.9883627022354629  0.5766317807438952  0.46793648190533355  1.0000
  C   C37       1.0  0.6169969200135128  0.035327815087235606  0.8412711450637503  1.0000
  C   C38       1.0  0.9646659809621738  0.382998335770573  0.6587302019941321  1.0000
  C   C39       1.0  0.3829986412641872  0.9646640580424445  0.1587334639961497  1.0000
  C   C40       1.0  0.035337711506407715  0.6170023870551445  0.3412667834847198  1.0000
  C   C41       1.0  0.7614355690804261  0.011487758194810701  0.7838056803729218  1.0000
  C   C42       1.0  0.988506393061449  0.23856590823863405  0.7161943261983411  1.0000
  C   C43       1.0  0.2385646012700419  0.988508589727168  0.21619702588603926  1.0000
  C   C44       1.0  0.011490132308757835  0.7614379105984598  0.28380472145543223  1.0000
  N   N1        1.0  0.2013997677046788  0.8478890770847017  0.8655248271809273  1.0000
  N   N2        1.0  0.15210713041287244  0.7985992556003366  0.6344749842346719  1.0000
  N   N3        1.0  0.7986023970394386  0.15210729118379623  0.13447560154475724  1.0000
  N   N4        1.0  0.8478878522732316  0.2014001937269825  0.36552668054162746  1.0000
  N   N5        1.0  0.15989526707656404  0.8105652501271338  0.9868778662395601  1.0000
  N   N6        1.0  0.18943321704584548  0.8401032397765605  0.5131222389567256  1.0000
  N   N7        1.0  0.8401065279611403  0.1894321954125928  0.013122349218313862  1.0000
  N   N8        1.0  0.8105614108934844  0.15989730177453512  0.48688003867607693  1.0000
  N   N9        1.0  0.277068598845986  0.7447489876251796  0.031061200250327606  1.0000
  N   N10       1.0  0.2552541759977772  0.722932067728877  0.46893833567187926  1.0000
  N   N11       1.0  0.7229341263450451  0.2552517549323881  0.9689385762437726  1.0000
  N   N12       1.0  0.7447478097804278  0.2770708293711408  0.531061014286614  1.0000
  N   N13       1.0  0.3448626772528414  0.8073429229743  0.8287278405445379  1.0000
  N   N14       1.0  0.1926583059602506  0.6551363148159267  0.6712728388743728  1.0000
  N   N15       1.0  0.6551394054881357  0.19265671718623173  0.1712724618597079  1.0000
  N   N16       1.0  0.8073437767807263  0.3448633253446046  0.32872746352986587  1.0000
  N   N17       1.0  0.7908848703167806  0.6305866860814645  0.8326469147243146  1.0000
  N   N18       1.0  0.36940708626927676  0.2091156297527235  0.6673537571479075  1.0000
  N   N19       1.0  0.20911759709024844  0.369411891760393  0.16735442707203424  1.0000
  N   N20       1.0  0.6305921579477669  0.7908860399358772  0.3326426133838823  1.0000
  N   N21       1.0  0.8671264355933772  0.9440001733883892  0.8452004063425494  1.0000
  N   N22       1.0  0.055998478486408515  0.1328695409353529  0.6547959131373562  1.0000
  N   N23       1.0  0.1328708291896561  0.05600149090625451  0.15479906784682382  1.0000
  N   N24       1.0  0.9440005528255424  0.8671300088952024  0.3452045010695884  1.0000
