data_image0
_chemical_formula_structural       Al2H10C26N6O22
_chemical_formula_sum              "Al2 H10 C26 N6 O22"
_cell_length_a       6.808739978888809
_cell_length_b       11.272571416386233
_cell_length_c       15.392017190899278
_cell_angle_alpha    82.40837274771307
_cell_angle_beta     75.53754115990102
_cell_angle_gamma    70.83030193693301

_space_group_name_H-M_alt    "P 1"
_space_group_IT_number       1

loop_
  _space_group_symop_operation_xyz
  'x, y, z'

loop_
  _atom_site_type_symbol
  _atom_site_label
  _atom_site_symmetry_multiplicity
  _atom_site_fract_x
  _atom_site_fract_y
  _atom_site_fract_z
  _atom_site_occupancy
  Al  Al1       1.0  0.5016662656696411  0.49995905591090684  0.5069398388139419  1.0000
  Al  Al2       1.0  0.007261536280232461  0.4922938584628724  0.505905964649628  1.0000
  H   H1        1.0  0.2520799376158607  0.405089428280199  0.6087910507664206  1.0000
  H   H2        1.0  0.7800809453385396  0.5599312283715535  0.3976154362195174  1.0000
  H   H3        1.0  0.8661022830609468  0.4664550184256201  0.9387671642721287  1.0000
  H   H4        1.0  0.19592159730682107  0.44528004905450314  0.0739754990644315  1.0000
  H   H5        1.0  0.6560670351926134  0.5639342060307941  0.2286696908608832  1.0000
  H   H6        1.0  0.7319429365799336  0.576616549689085  0.06264443526058726  1.0000
  H   H7        1.0  0.27844764954084406  0.5579535223424659  0.7795473076970937  1.0000
  H   H8        1.0  0.19394496588526514  0.5601496876079609  0.9461340209989617  1.0000
  H   H9        1.0  0.22822812618257873  0.2327270721428434  0.38493986849590567  1.0000
  H   H10       1.0  0.4320675241940536  0.7675462081401817  0.37014529026875925  1.0000
  C   C1        1.0  0.8677744125785977  0.2708712460415655  0.5037637805355928  1.0000
  C   C2        1.0  0.6601717030592621  0.5111552208791039  0.6653786843823326  1.0000
  C   C3        1.0  0.13665237546775436  0.7219552653738576  0.4995490741643707  1.0000
  C   C4        1.0  0.3416872243154429  0.4932380233289566  0.3455599712038762  1.0000
  C   C5        1.0  0.6124845271701388  0.5144559144748442  0.7652583412744391  1.0000
  C   C6        1.0  0.38124484875881837  0.5047235978089831  0.24552342161932472  1.0000
  C   C7        1.0  0.771968147025639  0.4944261608026111  0.812742467136822  1.0000
  C   C8        1.0  0.7333525474757463  0.48812763446942853  0.9057248896961099  1.0000
  C   C9        1.0  0.25091288768827974  0.47749103888349254  0.1985303502074203  1.0000
  C   C10       1.0  0.2980882019652639  0.47367322347118096  0.10590839106941272  1.0000
  C   C11       1.0  0.5562962617533459  0.5388683479905866  0.19373948128413324  1.0000
  C   C12       1.0  0.60061332508036  0.5428438269722164  0.1005013003712563  1.0000
  C   C13       1.0  0.40445541573341603  0.5364813349038259  0.81606965897263  1.0000
  C   C14       1.0  0.3595612377439607  0.5360020261370623  0.9091256219886718  1.0000
  C   C15       1.0  0.5232764587306987  0.5092001678197491  0.9559271246402119  1.0000
  C   C16       1.0  0.47585203568267787  0.5072955520491007  0.054791766429424606  1.0000
  C   C17       1.0  0.9392695483800321  0.13014553339566254  0.49759658226719244  1.0000
  C   C18       1.0  0.13460815220916797  0.06557138186043694  0.4397307187634496  1.0000
  C   C19       1.0  0.8076338075737012  0.062070623077850905  0.5458442220545124  1.0000
  C   C20       1.0  0.2687114233822641  0.1313328830160216  0.3832894564865725  1.0000
  C   C21       1.0  0.44858161655398726  0.06781454767549631  0.3240619781684018  1.0000
  C   C22       1.0  0.061159803527850526  0.8635965117413845  0.4921733352726108  1.0000
  C   C23       1.0  0.8655006348906793  0.9306492176465684  0.5417022841504249  1.0000
  C   C24       1.0  0.19488123540971722  0.9313074757398924  0.4363767473991302  1.0000
  C   C25       1.0  0.382442921924529  0.8690432714275929  0.3741254105049094  1.0000
  C   C26       1.0  0.5040127841796148  0.9363469909341479  0.3186316317045693  1.0000
  N   N1        1.0  0.9886749626844133  0.48879605904560464  0.7632083525538392  1.0000
  N   N2        1.0  0.045199390698499514  0.46151506094732764  0.24624294088818743  1.0000
  N   N3        1.0  0.7168281817738063  0.864397156966575  0.5977731579612636  1.0000
  N   N4        1.0  0.6051726809023208  0.12677086249336614  0.6075606618988018  1.0000
  N   N5        1.0  0.5705263698065437  0.141357976971122  0.2604954290955064  1.0000
  N   N6        1.0  0.7016704861489627  0.8670826139487888  0.25741465668902924  1.0000
  O   O1        1.0  0.6757085098904978  0.3259198439009978  0.4983141191681356  1.0000
  O   O2        1.0  0.8464346981529545  0.5125235934264155  0.624224980509581  1.0000
  O   O3        1.0  0.007243411202289001  0.6665089529649678  0.49247876206660374  1.0000
  O   O4        1.0  0.4744668642186057  0.512904201828661  0.3825841965215702  1.0000
  O   O5        1.0  0.3249023966900778  0.673260097130367  0.5114175858089994  1.0000
  O   O6        1.0  0.17544025363187635  0.463769130008764  0.3869835704080842  1.0000
  O   O7        1.0  0.004554955354130587  0.31882420003309164  0.5136004408547521  1.0000
  O   O8        1.0  0.5163620596500779  0.5041787051092542  0.6291913214510672  1.0000
  O   O9        1.0  0.2606646678411124  0.4441298285614509  0.5480118135761886  1.0000
  O   O10       1.0  0.7526633381564733  0.5461193939774278  0.4630669549064876  1.0000
  O   O11       1.0  0.0179904514574786  0.592368493594414  0.7425988348999226  1.0000
  O   O12       1.0  0.12378248546093568  0.38489412618444885  0.747496041590459  1.0000
  O   O13       1.0  0.9076344078151024  0.5601154129747314  0.275068463786127  1.0000
  O   O14       1.0  0.01808765885243699  0.3578729626757067  0.2508864193216525  1.0000
  O   O15       1.0  0.7338376099637994  0.8366564178652925  0.6765653347615342  1.0000
  O   O16       1.0  0.589207371746838  0.8448442802462992  0.5617065110196222  1.0000
  O   O17       1.0  0.4400758446757819  0.11712240225515566  0.5938709114895389  1.0000
  O   O18       1.0  0.6193940800456231  0.18325586377154932  0.6680289917309352  1.0000
  O   O19       1.0  0.59777970390099  0.2305078052146712  0.28972550634463096  1.0000
  O   O20       1.0  0.6322987604654101  0.10987113185337453  0.181698354537744  1.0000
  O   O21       1.0  0.6840595640741683  0.8008011843945863  0.20382671634668276  1.0000
  O   O22       1.0  0.8695864720500028  0.8791245164800117  0.2664731897210828  1.0000
