data_image0
_chemical_formula_structural       Ag4H36C28N8O8
_chemical_formula_sum              "Ag4 H36 C28 N8 O8"
_cell_length_a       5.759974165234573
_cell_length_b       10.382684106637067
_cell_length_c       13.923886168102902
_cell_angle_alpha    104.71738737621385
_cell_angle_beta     89.99994775282613
_cell_angle_gamma    89.9996298753796

_space_group_name_H-M_alt    "P 1"
_space_group_IT_number       1

loop_
  _space_group_symop_operation_xyz
  'x, y, z'

loop_
  _atom_site_type_symbol
  _atom_site_label
  _atom_site_symmetry_multiplicity
  _atom_site_fract_x
  _atom_site_fract_y
  _atom_site_fract_z
  _atom_site_occupancy
  Ag  Ag1       1.0  0.07994627611922311  0.3019078749578555  0.4577528698522856  1.0000
  Ag  Ag2       1.0  0.5799557601297777  0.1980926978630251  0.5422377371925009  1.0000
  Ag  Ag3       1.0  0.9200571634682789  0.6981001372217932  0.5422353047368347  1.0000
  Ag  Ag4       1.0  0.4200389992084156  0.8019084324510146  0.45776351979807106  1.0000
  H   H1        1.0  0.28709567368181876  0.1541990045397981  0.09131867881403369  1.0000
  H   H2        1.0  0.7870825263592138  0.3458042152445912  0.9086857306543266  1.0000
  H   H3        1.0  0.7129025579303486  0.8458021435465637  0.9086854542671005  1.0000
  H   H4        1.0  0.21290876075218526  0.6541999424270627  0.09132255388907133  1.0000
  H   H5        1.0  0.2713618615910818  0.405428062444038  0.10744593701500794  1.0000
  H   H6        1.0  0.7713630726290147  0.09456206662763829  0.8925518055198866  1.0000
  H   H7        1.0  0.7286381062084217  0.5945670753055339  0.8925513312124593  1.0000
  H   H8        1.0  0.2286351591980207  0.905431128344979  0.10745300109188341  1.0000
  H   H9        1.0  0.8621159720423959  0.4077137226714314  0.22675904616767173  1.0000
  H   H10       1.0  0.36210977589166055  0.0922930415213727  0.7732442050453869  1.0000
  H   H11       1.0  0.1378926761944115  0.5922853672488132  0.773233930645162  1.0000
  H   H12       1.0  0.6378728306269538  0.9077091023102072  0.22676011350729644  1.0000
  H   H13       1.0  0.5596951543859134  0.1511063190980551  0.03005365049853739  1.0000
  H   H14       1.0  0.05969975595437659  0.3488911845824418  0.969947979259743  1.0000
  H   H15       1.0  0.44028571612381023  0.8488888274591136  0.9699450558126088  1.0000
  H   H16       1.0  0.9402932673805396  0.6511069805116492  0.03005631652694516  1.0000
  H   H17       1.0  0.5487791915660125  0.3995291412203059  0.04983390753735508  1.0000
  H   H18       1.0  0.0487857596700252  0.10047025398173298  0.9501652572417285  1.0000
  H   H19       1.0  0.4512120956443795  0.600464991812764  0.9501617372148771  1.0000
  H   H20       1.0  0.9512124719746566  0.8995299027402907  0.049839409420876224  1.0000
  H   H21       1.0  0.8893782700370706  0.28405201782708633  0.11306206609020818  1.0000
  H   H22       1.0  0.38936334744348494  0.21595496972111045  0.8869439607479777  1.0000
  H   H23       1.0  0.11062169769741098  0.7159451026511618  0.8869341349742966  1.0000
  H   H24       1.0  0.6106192590426289  0.7840481654748146  0.11305982422322804  1.0000
  H   H25       1.0  0.532580067633326  0.0834412124786681  0.134865197811564  1.0000
  H   H26       1.0  0.03257154369567421  0.4165620481390632  0.8651354875000336  1.0000
  H   H27       1.0  0.46741295560943286  0.9165589220246775  0.8651358737394474  1.0000
  H   H28       1.0  0.9674145351167239  0.5834381085371306  0.13486917918497449  1.0000
  H   H29       1.0  0.49691992478994246  0.5111998378201787  0.16767050104579076  1.0000
  H   H30       1.0  0.9969356082685863  0.9888013497332863  0.8323272755953609  1.0000
  H   H31       1.0  0.5030800428993132  0.4887972604590302  0.8323221048975212  1.0000
  H   H32       1.0  0.0030695678335917  0.0111987981353181  0.1676759530059755  1.0000
  H   H33       1.0  0.8628217903745039  0.23713351786829406  0.22689522472582266  1.0000
  H   H34       1.0  0.3628154221765456  0.26287524325587697  0.7731083947714552  1.0000
  H   H35       1.0  0.13718338571300143  0.7628625935060286  0.7730986338136177  1.0000
  H   H36       1.0  0.6371671843095612  0.737127891940048  0.22689539019975052  1.0000
  C   C1        1.0  0.43601905094463694  0.44713368348844534  0.3443910683094558  1.0000
  C   C2        1.0  0.936021596100865  0.0528726467956062  0.6556124440647296  1.0000
  C   C3        1.0  0.5640052221909001  0.5528753956108402  0.6556087960718457  1.0000
  C   C4        1.0  0.0639887883345409  0.9471284968967808  0.34439096996976554  1.0000
  C   C5        1.0  0.6098420629955683  0.5432939921536571  0.3501884684878718  1.0000
  C   C6        1.0  0.10982249761926971  0.9567082544635996  0.6498107577209495  1.0000
  C   C7        1.0  0.39019262712053404  0.45670413757910927  0.649810075028121  1.0000
  C   C8        1.0  0.8901774699636532  0.0432968502070565  0.35018980298258384  1.0000
  C   C9        1.0  0.4133234033617014  0.31894702347012327  0.26950539477542884  1.0000
  C   C10       1.0  0.9133021094050308  0.18105811309645503  0.7304937017098893  1.0000
  C   C11       1.0  0.5867147584487853  0.6810730006475367  0.730495071402146  1.0000
  C   C12       1.0  0.0866874417246066  0.8189390606202026  0.26951112766467833  1.0000
  C   C13       1.0  0.5390297697382637  0.300585804423406  0.16974748649539612  1.0000
  C   C14       1.0  0.03901252456565629  0.1994065021255693  0.8302432259219188  1.0000
  C   C15       1.0  0.4609754064213547  0.6994053057311405  0.8302418497090471  1.0000
  C   C16       1.0  0.9609770265549358  0.8005906671512761  0.16976088442841328  1.0000
  C   C17       1.0  0.4754193214391195  0.16411948898130652  0.10260059280069807  1.0000
  C   C18       1.0  0.9754116096777068  0.3358811591805235  0.8974009426835252  1.0000
  C   C19       1.0  0.5245737018559495  0.8358776492299853  0.8973984843735606  1.0000
  C   C20       1.0  0.024579677538312705  0.6641170059070163  0.10260335310636036  1.0000
  C   C21       1.0  0.4592099567422919  0.4110403807344055  0.12125728564819126  1.0000
  C   C22       1.0  0.9592180512764584  0.08895813585848339  0.8787410625716062  1.0000
  C   C23       1.0  0.5407848026083643  0.5889567264047813  0.8787367583531988  1.0000
  C   C24       1.0  0.040781916478067594  0.9110420164302792  0.12126288506356521  1.0000
  C   C25       1.0  0.8036073535893352  0.3082384695005231  0.18597684596372227  1.0000
  C   C26       1.0  0.30360050840489816  0.19176584401421334  0.8140233739288547  1.0000
  C   C27       1.0  0.19639087803700048  0.6917566416036537  0.814016108121514  1.0000
  C   C28       1.0  0.6963820981046779  0.8082362953775689  0.18598022559959304  1.0000
  N   N1        1.0  0.2748258222891948  0.47514746950049863  0.4173336217975603  1.0000
  N   N2        1.0  0.7748140732535234  0.024851630127713496  0.5826629008810542  1.0000
  N   N3        1.0  0.7252001868838319  0.5248615696470651  0.582659771362394  1.0000
  N   N4        1.0  0.2251963112378661  0.9751475263961924  0.41734086129216047  1.0000
  N   N5        1.0  0.7266026384980648  0.6387526136763456  0.3796269598748552  1.0000
  N   N6        1.0  0.22658553899026407  0.8612535587604456  0.6203817395972635  1.0000
  N   N7        1.0  0.2734233708377758  0.36125650538775744  0.6203793757213915  1.0000
  N   N8        1.0  0.7734109565677798  0.1387405698524589  0.3796131861211265  1.0000
  O   O1        1.0  0.2795147177012042  0.5877719777692434  0.4819669512453259  1.0000
  O   O2        1.0  0.7795090039002305  0.912227534380861  0.5180258745895896  1.0000
  O   O3        1.0  0.7205008747872768  0.41223506085113104  0.5180246329998255  1.0000
  O   O4        1.0  0.22049096371520696  0.0877765789254497  0.4819752196954212  1.0000
  O   O5        1.0  0.2870996518998297  0.2303168869342898  0.2860061276790162  1.0000
  O   O6        1.0  0.787104590094316  0.2696783576355273  0.7139953601507969  1.0000
  O   O7        1.0  0.7128812187382325  0.7696763079728512  0.7139986789647564  1.0000
  O   O8        1.0  0.2128832248513959  0.7303207988032625  0.286008402064013  1.0000
