data_image0
_chemical_formula_structural       Cd4H40C28Se8S4N16
_chemical_formula_sum              "Cd4 H40 C28 Se8 S4 N16"
_cell_length_a       7.280990064638417
_cell_length_b       11.894469762350115
_cell_length_c       14.466055334521771
_cell_angle_alpha    89.9990987735325
_cell_angle_beta     90.00036453901423
_cell_angle_gamma    90.00147323353117

_space_group_name_H-M_alt    "P 1"
_space_group_IT_number       1

loop_
  _space_group_symop_operation_xyz
  'x, y, z'

loop_
  _atom_site_type_symbol
  _atom_site_label
  _atom_site_symmetry_multiplicity
  _atom_site_fract_x
  _atom_site_fract_y
  _atom_site_fract_z
  _atom_site_occupancy
  Cd  Cd1       1.0  0.17743676262073654  0.8000444563081074  0.2811284238845175  1.0000
  Cd  Cd2       1.0  0.8225624500293379  0.300018008470218  0.7188663901090706  1.0000
  Cd  Cd3       1.0  0.8225664785346043  0.800018683399621  0.7811392940369828  1.0000
  Cd  Cd4       1.0  0.17741350619470353  0.30005218840975806  0.2188645064264421  1.0000
  H   H1        1.0  0.6959574847191519  0.9051410619230612  0.4579708391505762  1.0000
  H   H2        1.0  0.3040433961595497  0.40513842391412425  0.5420233080985355  1.0000
  H   H3        1.0  0.3040318098138429  0.9051415974871944  0.9579731392382839  1.0000
  H   H4        1.0  0.6959498429635859  0.4051404103791968  0.042021007963811  1.0000
  H   H5        1.0  0.6534139272661578  0.9455782879053414  0.34079965991468  1.0000
  H   H6        1.0  0.3465804115551948  0.44557575717638553  0.6591946561406061  1.0000
  H   H7        1.0  0.34657970213896055  0.945581174573846  0.8408020959588923  1.0000
  H   H8        1.0  0.6534187571202281  0.445577914881497  0.1591942938907493  1.0000
  H   H9        1.0  0.5399669770227576  0.8259600099366295  0.3879589262368696  1.0000
  H   H10       1.0  0.46002371071844556  0.3259584863092826  0.6120445393034046  1.0000
  H   H11       1.0  0.4600194781599214  0.8259613192852983  0.8879575772036786  1.0000
  H   H12       1.0  0.5399629689440459  0.3259588584024015  0.11204035812495051  1.0000
  H   H13       1.0  0.9078440419402157  0.07104471373571641  0.4898041783235101  1.0000
  H   H14       1.0  0.09216340690090873  0.5710494591371785  0.5101935941990092  1.0000
  H   H15       1.0  0.09215868986040482  0.0710511623813304  0.9898078750475675  1.0000
  H   H16       1.0  0.9078405185064756  0.5710505769616744  0.0101905886863563  1.0000
  H   H17       1.0  0.988597384307255  0.06385433553694501  0.6065459230256921  1.0000
  H   H18       1.0  0.0114097625518284  0.5638617268866001  0.3934512511067609  1.0000
  H   H19       1.0  0.011407058360646302  0.0638606805202073  0.1065497303991734  1.0000
  H   H20       1.0  0.988589101131737  0.5638621076183699  0.8934488262191779  1.0000
  H   H21       1.0  0.9525721500659261  0.9372353330227412  0.5430025153214615  1.0000
  H   H22       1.0  0.047425958847185305  0.4372412136557243  0.45699882121248697  1.0000
  H   H23       1.0  0.047422850855682  0.9372414042457964  0.0430043639941573  1.0000
  H   H24       1.0  0.9525683910096491  0.4372427089334466  0.9569955899330367  1.0000
  H   H25       1.0  0.512277951238417  0.14633378370580633  0.39678184785743303  1.0000
  H   H26       1.0  0.48773403341580496  0.6463295222154957  0.6032197908965529  1.0000
  H   H27       1.0  0.48772813811823573  0.14633216613436423  0.8967785135453995  1.0000
  H   H28       1.0  0.5122728590326986  0.6463328211872437  0.1032196688129048  1.0000
  H   H29       1.0  0.5807341246171164  0.10392613937830933  0.5096243268762564  1.0000
  H   H30       1.0  0.4192788257123895  0.6039280056136889  0.49037924230086827  1.0000
  H   H31       1.0  0.41927077360097803  0.10393049675489151  0.0096218337436653  1.0000
  H   H32       1.0  0.580732562845782  0.6039337369100225  0.9903789702591155  1.0000
  H   H33       1.0  0.2944864387115729  0.1750101698135396  0.5654236945350064  1.0000
  H   H34       1.0  0.7055281242072127  0.6750184507384347  0.4345782649115293  1.0000
  H   H35       1.0  0.7055248991021161  0.17501735119771672  0.0654221162121331  1.0000
  H   H36       1.0  0.2944855436261804  0.6750188359097467  0.9345750042647794  1.0000
  H   H37       1.0  0.20711193913665946  0.1908507141635881  0.4507937237659831  1.0000
  H   H38       1.0  0.7929032890264552  0.6908522901697368  0.5492080310622853  1.0000
  H   H39       1.0  0.7928967043975279  0.1908547405156753  0.9507913647002368  1.0000
  H   H40       1.0  0.20711028323881922  0.6908558303671841  0.04920278605801799  1.0000
  C   C1        1.0  0.27704963698909774  0.9428695124709989  0.4656375311523959  1.0000
  C   C2        1.0  0.7229473350543786  0.4428702516822797  0.5343658064387071  1.0000
  C   C3        1.0  0.722942712902004  0.9428724379067718  0.965634948554154  1.0000
  C   C4        1.0  0.2770487654984067  0.4428757335643566  0.0343587111455363  1.0000
  C   C5        1.0  0.5910621752988237  0.9104608789712858  0.40333722247623877  1.0000
  C   C6        1.0  0.4089334353335801  0.41045884567846974  0.5966630774886283  1.0000
  C   C7        1.0  0.4089266507099368  0.9104613840899421  0.9033391665243825  1.0000
  C   C8        1.0  0.5910607193203957  0.41046086270196  0.0966583683172217  1.0000
  C   C9        1.0  0.9973806503757744  0.024836928185919812  0.5380036613089914  1.0000
  C   C10       1.0  0.0026276044026048006  0.5248428687560108  0.4619947082198763  1.0000
  C   C11       1.0  0.0026212852053789  0.0248431349047706  0.0380074406089648  1.0000
  C   C12       1.0  0.9973718619140969  0.5248450691866822  0.961990928841459  1.0000
  C   C13       1.0  0.4703077564298539  0.09800032246945993  0.45793490764121  1.0000
  C   C14       1.0  0.5297035714989562  0.5980004147762372  0.5420673555604836  1.0000
  C   C15       1.0  0.5296970772900381  0.09800104690744149  0.9579344725382057  1.0000
  C   C16       1.0  0.4703032631442384  0.5980013717253243  0.0420657168147116  1.0000
  C   C17       1.0  0.28355394961916164  0.13439185771112963  0.4974752155503666  1.0000
  C   C18       1.0  0.7164602804030408  0.6343931244651415  0.5025258861898365  1.0000
  C   C19       1.0  0.7164529135970881  0.13439468085966413  0.997475377282683  1.0000
  C   C20       1.0  0.28354758212655895  0.6343961863361259  0.0025215767568483  1.0000
  C   C21       1.0  0.9483265357781363  0.5629804625318046  0.2167307698939283  1.0000
  C   C22       1.0  0.051679200358023515  0.0629625070368363  0.783259502956092  1.0000
  C   C23       1.0  0.051668678762276  0.5629610521233986  0.7167357199421147  1.0000
  C   C24       1.0  0.9483260698565845  0.06297855434549861  0.28326561328730543  1.0000
  C   C25       1.0  0.3832012910157091  0.0365937418896323  0.1994465921571233  1.0000
  C   C26       1.0  0.6167950952975119  0.536526359765496  0.8005806594112954  1.0000
  C   C27       1.0  0.6167894472728508  0.03653110139904211  0.6994326103550605  1.0000
  C   C28       1.0  0.3832206728905021  0.5365721861185477  0.3005642253120655  1.0000
  Se  Se1       1.0  0.8654616887170831  0.706187544899187  0.2161379822753275  1.0000
  Se  Se2       1.0  0.1345390754984166  0.20617424511088703  0.7838594268306522  1.0000
  Se  Se3       1.0  0.1345354136068124  0.706177005349197  0.716138358182441  1.0000
  Se  Se4       1.0  0.8654516162875084  0.20618646594690662  0.2838652723517896  1.0000
  Se  Se5       1.0  0.4315819970061129  0.8930521223276884  0.16626484991312648  1.0000
  Se  Se6       1.0  0.5684183750857984  0.3929984565172548  0.833742588051642  1.0000
  Se  Se7       1.0  0.5684072142665713  0.8930013310715665  0.6662679952486883  1.0000
  Se  Se8       1.0  0.43158629031422896  0.3930357961361964  0.3337346038778435  1.0000
  S   S1        1.0  0.1986686775596738  0.807628798589562  0.45900551080379864  1.0000
  S   S2        1.0  0.8013184932837021  0.30762980377819094  0.54098782245525  1.0000
  S   S3        1.0  0.8013151606905213  0.8076304353267008  0.959017004166661  1.0000
  S   S4        1.0  0.19866239622967902  0.30763237050032183  0.0409866981516487  1.0000
  N   N1        1.0  0.4396338674830248  0.9799614506392089  0.4329914713168037  1.0000
  N   N2        1.0  0.5603742766382069  0.47996068727461966  0.5670079307001785  1.0000
  N   N3        1.0  0.5603651207375222  0.9799626577847748  0.932995281872593  1.0000
  N   N4        1.0  0.43963066249350663  0.479962002192444  0.0670061939287052  1.0000
  N   N5        1.0  0.1849401716017809  0.027530412631484997  0.5062224312866661  1.0000
  N   N6        1.0  0.8150668228064006  0.5275325582572492  0.4937772860113157  1.0000
  N   N7        1.0  0.815062847985864  0.027535114485544906  0.006225350705634001  1.0000
  N   N8        1.0  0.18494277314164265  0.5275354229339655  0.9937743665412668  1.0000
  N   N9        1.0  0.9973343727722652  0.468614303581532  0.21683238374355798  1.0000
  N   N10       1.0  0.002671920783853901  0.9685947580905464  0.7831526482564755  1.0000
  N   N11       1.0  0.0026623729725728006  0.468595803250949  0.716839942258197  1.0000
  N   N12       1.0  0.9973343067130501  0.9686183025542974  0.2831609889832762  1.0000
  N   N13       1.0  0.3566012542376029  0.1307261461307689  0.2211726661279201  1.0000
  N   N14       1.0  0.6433977127691933  0.63065959865051  0.7788637383336549  1.0000
  N   N15       1.0  0.6433937133331186  0.1306681280597886  0.721150474032271  1.0000
  N   N16       1.0  0.35662310790517177  0.6307083693035693  0.2788403064697746  1.0000
