data_image0
_chemical_formula_structural       Mn2H36C42N4O8
_chemical_formula_sum              "Mn2 H36 C42 N4 O8"
_cell_length_a       9.499815249412887
_cell_length_b       10.206132445030057
_cell_length_c       11.07907567614664
_cell_angle_alpha    77.80797383449676
_cell_angle_beta     83.43097042192721
_cell_angle_gamma    65.47832463768118

_space_group_name_H-M_alt    "P 1"
_space_group_IT_number       1

loop_
  _space_group_symop_operation_xyz
  'x, y, z'

loop_
  _atom_site_type_symbol
  _atom_site_label
  _atom_site_symmetry_multiplicity
  _atom_site_fract_x
  _atom_site_fract_y
  _atom_site_fract_z
  _atom_site_occupancy
  Mn  Mn1       1.0  0.4674519714886569  0.8606029753690481  0.38262289161948376  1.0000
  Mn  Mn2       1.0  0.5325508230254172  0.1393975425200225  0.6173770548495342  1.0000
  H   H1        1.0  0.4115921110117712  0.4258513527068716  0.41656099558757387  1.0000
  H   H2        1.0  0.5884095226424791  0.5741469665983774  0.5834449122140128  1.0000
  H   H3        1.0  0.3108188516893904  0.25844173593792874  0.12728255767069646  1.0000
  H   H4        1.0  0.6891758461792038  0.7415632711942024  0.8727219214397338  1.0000
  H   H5        1.0  0.3355295172770028  0.6802894643701195  0.0489987702041716  1.0000
  H   H6        1.0  0.6644759604221946  0.3197098403641903  0.9510065337931766  1.0000
  H   H7        1.0  0.3380688275119823  0.3851176772726035  0.9056461127021012  1.0000
  H   H8        1.0  0.6619311733145068  0.6148872252636438  0.09435510468061639  1.0000
  H   H9        1.0  0.3072789206808935  0.5725996598761895  0.8785835366178675  1.0000
  H   H10       1.0  0.6927226413589197  0.4274040887534696  0.1214204402147203  1.0000
  H   H11       1.0  0.15264488572307766  0.5184996247296567  0.9333485340083316  1.0000
  H   H12       1.0  0.8473551662535925  0.481505245865776  0.06665539206105815  1.0000
  H   H13       1.0  0.20433323517017496  0.07582117480504992  0.5339349474551512  1.0000
  H   H14       1.0  0.7956675588890578  0.9241815916490379  0.4660620781925929  1.0000
  H   H15       1.0  0.0004896296059513009  0.0760962250562187  0.6973861252113738  1.0000
  H   H16       1.0  0.9995152554011709  0.9239042701589779  0.30261089135455427  1.0000
  H   H17       1.0  0.13610311238385006  0.6183222233231619  0.6895814302118952  1.0000
  H   H18       1.0  0.8638939617687742  0.38168176229913797  0.3104121543068318  1.0000
  H   H19       1.0  0.3314522807205265  0.636772665641452  0.5265252095923003  1.0000
  H   H20       1.0  0.6685465640340454  0.3632323174368325  0.47347160392083515  1.0000
  H   H21       1.0  0.8232659240581198  0.9211668595050997  0.7886985453753539  1.0000
  H   H22       1.0  0.17673336335217021  0.07883164217810193  0.21129674889594702  1.0000
  H   H23       1.0  0.9316353445499812  0.7301729155209388  0.829153785405147  1.0000
  H   H24       1.0  0.06836499663186398  0.26982556950186176  0.17084049536239834  1.0000
  H   H25       1.0  0.9911831840926127  0.9690276574365627  0.9141224924470991  1.0000
  H   H26       1.0  0.008809307346709297  0.030972060161353506  0.08587691568427401  1.0000
  H   H27       1.0  0.1004711507509485  0.7794840210441405  0.9604348892448658  1.0000
  H   H28       1.0  0.8995272922764173  0.22051664866204126  0.03956188807474347  1.0000
  H   H29       1.0  0.497288001353411  0.04793450422852171  0.1303531996536975  1.0000
  H   H30       1.0  0.5027092330781501  0.952058612098014  0.8696451496985633  1.0000
  H   H31       1.0  0.6842806600991836  0.056563782448236614  0.9528323541445259  1.0000
  H   H32       1.0  0.3157161691909778  0.9434304072428503  0.047167639627446106  1.0000
  H   H33       1.0  0.023506694163479773  0.6630055414410735  0.1560201058127504  1.0000
  H   H34       1.0  0.9764924861585486  0.3369907449979124  0.8439801362873568  1.0000
  H   H35       1.0  0.820935302809069  0.671993795937034  0.32415696357676893  1.0000
  H   H36       1.0  0.17906389456302207  0.32800247985500874  0.6758441814188958  1.0000
  C   C1        1.0  0.37760541557585026  0.5641438579833178  0.2362942663361025  1.0000
  C   C2        1.0  0.6223953395953572  0.4358566506387903  0.7637113187226703  1.0000
  C   C3        1.0  0.3850449217144886  0.43866028482595004  0.32059878956926724  1.0000
  C   C4        1.0  0.6149546944348643  0.5613402936912593  0.6794032945154812  1.0000
  C   C5        1.0  0.3592427029005022  0.3290238509756024  0.28144451861110303  1.0000
  C   C6        1.0  0.6407534879811649  0.6709800448376982  0.7185591083669609  1.0000
  C   C7        1.0  0.3280105395974501  0.3456650204082835  0.15721786110281502  1.0000
  C   C8        1.0  0.6719903908622625  0.6543376608702829  0.8427863877093887  1.0000
  C   C9        1.0  0.31706422605297047  0.47177592468268875  0.07188295519267737  1.0000
  C   C10       1.0  0.6829349679049199  0.5282257378460075  0.9281198704162251  1.0000
  C   C11       1.0  0.3412190328984862  0.5812294190142142  0.11322544162394618  1.0000
  C   C12       1.0  0.6587823197526886  0.4187721782528584  0.886778065664096  1.0000
  C   C13       1.0  0.4110041367474012  0.6780605699508371  0.2783715423716728  1.0000
  C   C14       1.0  0.5889988330551859  0.32194212059468447  0.7216270678507686  1.0000
  C   C15       1.0  0.3667799327112745  0.19447084098293746  0.37125503127492016  1.0000
  C   C16       1.0  0.6332230746056315  0.8055264415320523  0.6287437041253982  1.0000
  C   C17       1.0  0.27743024246807835  0.48821921811208585  0.9404631959206926  1.0000
  C   C18       1.0  0.7225702317000539  0.5117845684718533  0.0595399886245431  1.0000
  C   C19       1.0  0.1839141826995957  0.9770569362367638  0.5702543962831683  1.0000
  C   C20       1.0  0.8160902460159464  0.02294466428380559  0.4297415560157988  1.0000
  C   C21       1.0  0.07217095851871853  0.9757122697617433  0.6625850658920314  1.0000
  C   C22       1.0  0.9278309404622578  0.02429044809112208  0.3374136549386223  1.0000
  C   C23       1.0  0.05211222521923275  0.8455879035411514  0.7097149103674241  1.0000
  C   C24       1.0  0.9478924333491959  0.15441045095840883  0.29028073375840796  1.0000
  C   C25       1.0  0.14557818552090393  0.7230249656686923  0.6574056523613336  1.0000
  C   C26       1.0  0.8544169563771223  0.2769812259308679  0.342588622918342  1.0000
  C   C27       1.0  0.25492843612365595  0.7327153163961952  0.5652253589112561  1.0000
  C   C28       1.0  0.7450736245099635  0.2672841980234111  0.4347694421640186  1.0000
  C   C29       1.0  0.9388117211892962  0.837192244304852  0.8140199932638623  1.0000
  C   C30       1.0  0.061189251572642406  0.16280730806903426  0.1859740155240672  1.0000
  C   C31       1.0  0.9846026518981648  0.8615176968586837  0.9339605845511374  1.0000
  C   C32       1.0  0.01539347419745949  0.13848085480572084  0.0660377502314589  1.0000
  C   C33       1.0  0.6150339375630696  0.9644372122151098  0.1312950211395573  1.0000
  C   C34       1.0  0.3849609765225566  0.0355591728063018  0.8687065662889353  1.0000
  C   C35       1.0  0.7192600843654374  0.9686404042707297  0.03344647965102597  1.0000
  C   C36       1.0  0.28073841322631676  0.03135484675798488  0.9665513257420176  1.0000
  C   C37       1.0  0.8700968022286307  0.8591192635574244  0.03914546878829134  1.0000
  C   C38       1.0  0.12990260453208444  0.140879163597198  0.960856145751919  1.0000
  C   C39       1.0  0.9075069088484115  0.7501833431139246  0.14555022913671678  1.0000
  C   C40       1.0  0.09249227147360979  0.2498129433250611  0.8544500129633906  1.0000
  C   C41       1.0  0.7957143108062964  0.7545288922470166  0.23969814271964643  1.0000
  C   C42       1.0  0.20428335945258885  0.24546851615773588  0.7603020486172628  1.0000
  N   N1        1.0  0.2756976523610746  0.8573766083191076  0.5219858901990833  1.0000
  N   N2        1.0  0.7243027195066959  0.14262724214646738  0.4780118769728149  1.0000
  N   N3        1.0  0.6512142589410956  0.8595359689882683  0.23333291956853225  1.0000
  N   N4        1.0  0.3487844821394077  0.14046141210914706  0.7666671611601645  1.0000
  O   O1        1.0  0.34216361034214765  0.8125713209616379  0.23033840554866458  1.0000
  O   O2        1.0  0.6578395333752454  0.1874258763778371  0.7696675530161132  1.0000
  O   O3        1.0  0.5082618340779631  0.6357488757769971  0.36445191105369906  1.0000
  O   O4        1.0  0.4917491764320162  0.36424707834041936  0.6355498230428084  1.0000
  O   O5        1.0  0.3700019265310531  0.19309332468406376  0.48643889728511897  1.0000
  O   O6        1.0  0.6300005003559405  0.8069028585390186  0.5135628187814804  1.0000
  O   O7        1.0  0.3664427729080231  0.08831531978576383  0.3279014277602173  1.0000
  O   O8        1.0  0.6335581098157093  0.9116820066969707  0.672098431752069  1.0000
