data_image0
_chemical_formula_structural       Li2H8C14O6F6
_chemical_formula_sum              "Li2 H8 C14 O6 F6"
_cell_length_a       4.927940436211051
_cell_length_b       5.2254943357898735
_cell_length_c       14.967657229777952
_cell_angle_alpha    92.17005354908171
_cell_angle_beta     89.99965916979382
_cell_angle_gamma    89.99907953314977

_space_group_name_H-M_alt    "P 1"
_space_group_IT_number       1

loop_
  _space_group_symop_operation_xyz
  'x, y, z'

loop_
  _atom_site_type_symbol
  _atom_site_label
  _atom_site_symmetry_multiplicity
  _atom_site_fract_x
  _atom_site_fract_y
  _atom_site_fract_z
  _atom_site_occupancy
  Li  Li1       1.0  0.7410397522085502  0.9143449691379647  0.5531297548303087  1.0000
  Li  Li2       1.0  0.24104930561033203  0.0856631829700021  0.4468681399710732  1.0000
  H   H1        1.0  0.4958373831766353  0.5220585376723009  0.5054697214206813  1.0000
  H   H2        1.0  0.9958377851842856  0.47795317820758504  0.49453035476507523  1.0000
  H   H3        1.0  0.6375721053666156  0.4185502608459118  0.5887642083255429  1.0000
  H   H4        1.0  0.1375806038216183  0.5814577821565834  0.4112359007771361  1.0000
  H   H5        1.0  0.15691744715655886  0.48207105833301994  0.9243434523487224  1.0000
  H   H6        1.0  0.6569228239858661  0.5179118333862717  0.0756577625780182  1.0000
  H   H7        1.0  0.6781048179991559  0.7999914548223402  0.8657489852591739  1.0000
  H   H8        1.0  0.1780898611715926  0.19998929475843144  0.1342548430644683  1.0000
  C   C1        1.0  0.1388436543115006  0.10030473467472942  0.7318566417871042  1.0000
  C   C2        1.0  0.6388638748037323  0.8996955045663811  0.2681407326164305  1.0000
  C   C3        1.0  0.0975413502857734  0.3247928035266058  0.8788860520000058  1.0000
  C   C4        1.0  0.5975393684230853  0.6752045059680398  0.12111606155777113  1.0000
  C   C5        1.0  0.9063956749652321  0.14437985957323465  0.9023377950747644  1.0000
  C   C6        1.0  0.40640354906526704  0.855608444555344  0.09766228513323941  1.0000
  C   C7        1.0  0.9465110194294581  0.9261018418593499  0.7620248185963379  1.0000
  C   C8        1.0  0.44652050545581556  0.0738953721285966  0.23797524771155312  1.0000
  C   C9        1.0  0.20932738212501079  0.2966158008102937  0.7939039976617579  1.0000
  C   C10       1.0  0.7093437014454195  0.7033814799120464  0.2060958836017974  1.0000
  C   C11       1.0  0.26332871701350774  0.07836769291961332  0.6399848224302859  1.0000
  C   C12       1.0  0.7633530064423084  0.9216399666766223  0.36001035048047214  1.0000
  C   C13       1.0  0.8267745174211143  0.9409585907593158  0.846099110197251  1.0000
  C   C14       1.0  0.326769534855842  0.059040698432028214  0.1539032201365274  1.0000
  O   O1        1.0  0.11140830465971872  0.019648295245879407  0.5735410855238713  1.0000
  O   O2        1.0  0.6114223436024346  0.980354374803568  0.42645769958136276  1.0000
  O   O3        1.0  0.5159958575884431  0.12055799924104353  0.6343570354560484  1.0000
  O   O4        1.0  0.016006591319474198  0.8794479496556705  0.36563729137800755  1.0000
  O   O5        1.0  0.6634951511477496  0.5445328321504307  0.541898603117396  1.0000
  O   O6        1.0  0.1634986878656051  0.45547672731444794  0.45810213296108765  1.0000
  F   F1        1.0  0.8770946546065732  0.7240213849860879  0.7071534370119965  1.0000
  F   F2        1.0  0.3770938771346978  0.27598077728277565  0.2928461399860254  1.0000
  F   F3        1.0  0.39218553683684837  0.47639485723770053  0.7703735936051502  1.0000
  F   F4        1.0  0.8921920773541032  0.523603256290606  0.2296265900919394  1.0000
  F   F5        1.0  0.7924647796865187  0.1685157022614803  0.9854435792283811  1.0000
  F   F6        1.0  0.2924664303571872  0.8314727585522946  0.014560743180076902  1.0000
