data_image0
_chemical_formula_structural       Zn12H20C88N4O56
_chemical_formula_sum              "Zn12 H20 C88 N4 O56"
_cell_length_a       18.527191397751977
_cell_length_b       18.539462814136087
_cell_length_c       32.12838358771975
_cell_angle_alpha    89.9992558094426
_cell_angle_beta     90.00041595235881
_cell_angle_gamma    90.00094607430985

_space_group_name_H-M_alt    "P 1"
_space_group_IT_number       1

loop_
  _space_group_symop_operation_xyz
  'x, y, z'

loop_
  _atom_site_type_symbol
  _atom_site_label
  _atom_site_symmetry_multiplicity
  _atom_site_fract_x
  _atom_site_fract_y
  _atom_site_fract_z
  _atom_site_occupancy
  Zn  Zn1       1.0  0.5700160592297153  0.5000013847835304  2.8122002999999925e-09  1.0000
  Zn  Zn2       1.0  0.0700153768268876  5.575325445999996e-07  0.5000010245432449  1.0000
  Zn  Zn3       1.0  0.42972334326832856  0.4999996893645715  3.315438945999994e-07  1.0000
  Zn  Zn4       1.0  0.9297233010063837  0.9999993990334627  0.5000007544265728  1.0000
  Zn  Zn5       1.0  0.4999238132560393  0.4298951966257789  0.5000057006273408  1.0000
  Zn  Zn6       1.0  0.49992443325897534  0.5701053002451745  0.4999948335645641  1.0000
  Zn  Zn7       1.0  0.9999243106688454  0.9298949064113701  0.9999946072143757  1.0000
  Zn  Zn8       1.0  0.9999249399321927  0.07010520033095702  5.5310074316e-06  1.0000
  Zn  Zn9       1.0  0.5002025285272254  0.999999799048048  0.0405435004573391  1.0000
  Zn  Zn10      1.0  0.5002016576196412  7.024069219999968e-07  0.9594567236474418  1.0000
  Zn  Zn11      1.0  0.00020184612745310004  0.5000000505860741  0.5405435884300118  1.0000
  Zn  Zn12      1.0  0.0002018756741791  0.5000003016150458  0.4594567203970215  1.0000
  H   H1        1.0  0.4432968547042223  0.38819501996363204  0.2245714232395244  1.0000
  H   H2        1.0  0.4263512631558015  0.3984443928607462  0.775391149752977  1.0000
  H   H3        1.0  0.4260396611432356  0.6013526177478069  0.22460596400995317  1.0000
  H   H4        1.0  0.4429794002750498  0.6116454210256705  0.7754291850598777  1.0000
  H   H5        1.0  0.9268427006517399  0.8980940175083917  0.7246100535086981  1.0000
  H   H6        1.0  0.9429447714254594  0.8883706308821784  0.27543004573803387  1.0000
  H   H7        1.0  0.9424440629001722  0.11136531033291416  0.7245767014497985  1.0000
  H   H8        1.0  0.9263820566620782  0.10157531376545138  0.27539071283541006  1.0000
  H   H9        1.0  0.5685115861726757  0.396902925317498  0.2757071185963155  1.0000
  H   H10       1.0  0.5514658744241034  0.3873512094102551  0.7243474966018865  1.0000
  H   H11       1.0  0.5511297331039274  0.6128038603016109  0.27564733831589905  1.0000
  H   H12       1.0  0.5682181756025599  0.6033090615925049  0.7242893438140996  1.0000
  H   H13       1.0  0.05201146953496761  0.88759140088608  0.7756559635047537  1.0000
  H   H14       1.0  0.0681886175092572  0.896672144772708  0.22429021852882158  1.0000
  H   H15       1.0  0.0677369971502984  0.1036383945923447  0.7757094390141573  1.0000
  H   H16       1.0  0.05149854581906511  0.11263472650867355  0.2243467390300964  1.0000
  H   H17       1.0  0.6231060117754055  0.509919013350732  0.2246823992453599  1.0000
  H   H18       1.0  0.6231465578855265  0.490448680940524  0.7753155368532206  1.0000
  H   H19       1.0  0.12319602646700642  0.9910307564710263  0.7246839210506195  1.0000
  H   H20       1.0  0.1231472976507675  0.009519642497380697  0.2753156554405791  1.0000
  C   C1        1.0  0.4999517521823194  0.36036187912068834  0.9999997152944502  1.0000
  C   C2        1.0  0.49995154854494234  0.6396386182099859  1.9651020719999977e-07  1.0000
  C   C3        1.0  0.9999535140784843  0.8603616275885243  0.4999999385753071  1.0000
  C   C4        1.0  0.9999518702331543  0.13963847961635167  0.5000001997640453  1.0000
  C   C5        1.0  0.49988235122197716  0.49994176862296763  0.0804424341186021  1.0000
  C   C6        1.0  0.4998800754489211  0.5000554912162726  0.9195565436510265  1.0000
  C   C7        1.0  0.9998799750865999  5.0047363657799997e-05  0.580444926916222  1.0000
  C   C8        1.0  0.9998802171926757  0.9999446647240475  0.41955738990086644  1.0000
  C   C9        1.0  0.537887714696936  0.4429084362535817  0.2638793109550122  1.0000
  C   C10       1.0  0.5284321120858877  0.43761935162624616  0.736122181338331  1.0000
  C   C11       1.0  0.5282434208615783  0.5624684553796512  0.2638691339430679  1.0000
  C   C12       1.0  0.5377367240951614  0.5572097326725755  0.7361179576510821  1.0000
  C   C13       1.0  0.028747625800598097  0.9377535109873348  0.7638763975595495  1.0000
  C   C14       1.0  0.0377187236555017  0.9427777529269435  0.2361171955932591  1.0000
  C   C15       1.0  0.0374750727336419  0.0573931233585441  0.7638860703836983  1.0000
  C   C16       1.0  0.0284504581882956  0.0623692113546852  0.2361218509181242  1.0000
  C   C17       1.0  0.46902222550640005  0.4373831694299213  0.2359820506895787  1.0000
  C   C18       1.0  0.45954763307363333  0.44297681188958654  0.7640185313608328  1.0000
  C   C19       1.0  0.4593638980232342  0.5569113643663003  0.23597872131128378  1.0000
  C   C20       1.0  0.4688614205720826  0.562538065911511  0.7640186653342624  1.0000
  C   C21       1.0  0.9598243955707276  0.9427793997773363  0.7359849213912923  1.0000
  C   C22       1.0  0.9688421772438786  0.9374683867198641  0.2640184862548479  1.0000
  C   C23       1.0  0.9685631768784404  0.062384491333411105  0.7359896143656357  1.0000
  C   C24       1.0  0.9595652755737376  0.0570339544102154  0.2640178504001511  1.0000
  C   C25       1.0  0.4994967126995676  0.4998442390773548  0.1251885379328996  1.0000
  C   C26       1.0  0.4994954946590581  0.5001492386885644  0.8748101269886704  1.0000
  C   C27       1.0  0.9994970368424276  0.0001375285764382  0.6251928974576231  1.0000
  C   C28       1.0  0.9994956348328048  0.9998490863284173  0.3748103515404466  1.0000
  C   C29       1.0  0.5012438285921874  0.49999824099545975  0.3750464268236016  1.0000
  C   C30       1.0  0.501243242094077  0.500006592754417  0.6249525566193483  1.0000
  C   C31       1.0  0.0012453052635592998  8.2015674181e-06  0.8750468260108022  1.0000
  C   C32       1.0  0.0012429202943167001  0.9999932465991818  0.12495255342280838  1.0000
  C   C33       1.0  0.5678165015951039  0.5054673993987252  0.2362191417320787  1.0000
  C   C34       1.0  0.5678413221542372  0.4947354090127972  0.7637810534878255  1.0000
  C   C35       1.0  0.0678758208533239  0.995058891717207  0.7362228062002673  1.0000
  C   C36       1.0  0.06784253084028792  0.0052446338341596  0.26378058595366133  1.0000
  C   C37       1.0  0.4989132226901916  0.4999647984106944  0.2071145376383612  1.0000
  C   C38       1.0  0.49892878343958097  0.5000394576735302  0.792884436080115  1.0000
  C   C39       1.0  0.9989378335902899  3.20837159933e-05  0.7071192094255281  1.0000
  C   C40       1.0  0.9989283856845648  0.999959376413358  0.29288434844438876  1.0000
  C   C41       1.0  0.4991248057326914  0.4999909304917409  0.2932016575576669  1.0000
  C   C42       1.0  0.4991360442546693  0.5000165653986883  0.7067957607677968  1.0000
  C   C43       1.0  0.9991504957326285  1.0749492979299999e-05  0.7932060182975178  1.0000
  C   C44       1.0  0.9991351071322472  0.9999828716762168  0.2067950504313103  1.0000
  C   C45       1.0  0.43080499307521347  0.4944505772968811  0.264068108478611  1.0000
  C   C46       1.0  0.43080481389750963  0.5053664666466559  0.7359349382778859  1.0000
  C   C47       1.0  0.9307956866972019  0.0050133120878542  0.7640693118342199  1.0000
  C   C48       1.0  0.9308037884438534  0.9946539306011316  0.2359348958196321  1.0000
  C   C49       1.0  0.4985610291634259  0.499798553095303  0.1630961388549395  1.0000
  C   C50       1.0  0.49857012980640286  0.5001976062943072  0.836901588404345  1.0000
  C   C51       1.0  0.9985732285211102  0.000187314735399  0.6630983192400065  1.0000
  C   C52       1.0  0.9985697294297965  0.9998003637379185  0.33690181336753966  1.0000
  C   C53       1.0  0.49945756607424846  0.49990528085081826  0.3371879984905419  1.0000
  C   C54       1.0  0.49945583828239404  0.500099523457834  0.6628103549666163  1.0000
  C   C55       1.0  0.9994605880519102  8.961360135369999e-05  0.8371923584838896  1.0000
  C   C56       1.0  0.9994548997991114  0.9999013157992707  0.162809645329169  1.0000
  C   C57       1.0  0.5000171435224914  0.28266117734629864  1.5723837519999907e-07  1.0000
  C   C58       1.0  0.5000173157587612  0.7173371635083399  0.9999994435988383  1.0000
  C   C59       1.0  1.93356664155e-05  0.7826639741415063  0.4999987973276205  1.0000
  C   C60       1.0  1.8977267146199996e-05  0.21733637505165146  0.5000011994829876  1.0000
  C   C61       1.0  0.4999852958093384  0.21709347362280337  4.3577803409999983e-07  1.0000
  C   C62       1.0  0.49998277460042573  0.7829097212004471  0.9999985423970017  1.0000
  C   C63       1.0  0.999985253509962  0.7170910257622084  0.49999774615724135  1.0000
  C   C64       1.0  0.9999843607205394  0.28290908197192993  0.5000023923166097  1.0000
  C   C65       1.0  0.6398052819463304  0.49999924350884584  0.5000004043908108  1.0000
  C   C66       1.0  0.13980550000533043  0.9999993821069282  4.011381022999986e-07  1.0000
  C   C67       1.0  0.5007837055392557  0.5000188378429017  0.41973027972720445  1.0000
  C   C68       1.0  0.5007841756354098  0.49998544893675506  0.5802693242957844  1.0000
  C   C69       1.0  0.0007848179208167001  0.9999871136448204  0.9197317212222486  1.0000
  C   C70       1.0  0.0007842181402609  1.4866322374e-05  0.0802692125406068  1.0000
  C   C71       1.0  0.36031715614363696  0.4999996374485677  0.5000004416333965  1.0000
  C   C72       1.0  0.8603174778368583  5.776409110999972e-07  0.9999998223801186  1.0000
  C   C73       1.0  0.3608440389495726  7.770512980000003e-07  0.9999997102175797  1.0000
  C   C74       1.0  0.8608441816035466  0.49999998610977053  0.5000005559998615  1.0000
  C   C75       1.0  0.49995010961127667  0.13943372583872096  4.500706666e-06  1.0000
  C   C76       1.0  0.4999488731407524  0.8605673108493547  0.9999950998354025  1.0000
  C   C77       1.0  0.9999500672866548  0.6394334356046939  0.4999949635488931  1.0000
  C   C78       1.0  0.9999493798075462  0.36056667154822003  0.5000054860292948  1.0000
  C   C79       1.0  0.6393170851613731  9.529152151999972e-07  9.374404899999968e-08  1.0000
  C   C80       1.0  0.1393165785458166  0.49999997394636597  0.49999997884874153  1.0000
  C   C81       1.0  0.7175758392426843  0.4999998843473463  0.5000002559911891  1.0000
  C   C82       1.0  0.21757588151105273  7.140653793000001e-07  1.4435748600000012e-07  1.0000
  C   C83       1.0  0.28318646459888447  0.9999978278525177  0.9999999672412869  1.0000
  C   C84       1.0  0.7831864314683158  0.4999998856089719  0.4999988371258226  1.0000
  C   C85       1.0  0.28255901303327857  0.4999989967123567  0.5000005900590095  1.0000
  C   C86       1.0  0.7825596954400214  0.9999998239572746  1.9083049100000024e-07  1.0000
  C   C87       1.0  0.7169555801731633  0.9999998227611685  3.647043626999994e-07  1.0000
  C   C88       1.0  0.2169548977625055  0.4999989955223115  0.5000001414303553  1.0000
  N   N1        1.0  0.35486528994764643  0.48828243880159056  0.2771999777445586  1.0000
  N   N2        1.0  0.35484669420898035  0.5113014158389575  0.7227999506618659  1.0000
  N   N3        1.0  0.8548091227725223  0.010597940933934099  0.7771998860578222  1.0000
  N   N4        1.0  0.8548417925382027  0.9887427975779486  0.2228005810336882  1.0000
  O   O1        1.0  0.5617357885835474  0.3908201207996029  0.9999975364922877  1.0000
  O   O2        1.0  0.5617345413439522  0.6091824735129451  2.634057309999998e-06  1.0000
  O   O3        1.0  0.06173708616189801  0.8908197199711128  0.5000022020130857  1.0000
  O   O4        1.0  0.0617354781450317  0.10918110693693  0.49999836452254703  1.0000
  O   O5        1.0  0.4381338597564336  0.3906950813378884  3.9261190423e-06  1.0000
  O   O6        1.0  0.438133324150492  0.6093054759923292  0.9999966605406456  1.0000
  O   O7        1.0  0.9381359764318873  0.8906942517074296  0.4999968789782017  1.0000
  O   O8        1.0  0.9381338307962964  0.1093053761205951  0.50000300046581  1.0000
  O   O9        1.0  0.5616903124596321  0.49996240890241955  0.0626386799100302  1.0000
  O   O10       1.0  0.561688800155494  0.5000369483278677  0.9373605567085121  1.0000
  O   O11       1.0  0.06168801141446071  3.33204929248e-05  0.5626406350866517  1.0000
  O   O12       1.0  0.06168901761410692  0.9999642692790685  0.4373608650164797  1.0000
  O   O13       1.0  0.4382263742548035  0.5000083202114141  0.062460385454002704  1.0000
  O   O14       1.0  0.43822594294123  0.49999169925739295  0.9375398903443823  1.0000
  O   O15       1.0  0.9382252523634732  0.9999907693807301  0.5624620534128155  1.0000
  O   O16       1.0  0.9382264496836824  7.781141938799997e-06  0.43754031642677665  1.0000
  O   O17       1.0  0.609470437742104  0.43823129216603723  0.5000158546411554  1.0000
  O   O18       1.0  0.6094709196760775  0.5617656161527548  0.49998482710365977  1.0000
  O   O19       1.0  0.10947101044691013  0.9382324710632233  0.9999852371150696  1.0000
  O   O20       1.0  0.10947096213440939  0.06176644557648811  1.4906842558599998e-05  1.0000
  O   O21       1.0  0.5005749652866457  0.43832269943173696  0.4376137940669125  1.0000
  O   O22       1.0  0.5005158380887096  0.43826862229207114  0.5624046971805967  1.0000
  O   O23       1.0  0.5005139151058486  0.561735120663421  0.4375949057178445  1.0000
  O   O24       1.0  0.5005740720429372  0.5616810445066633  0.5623858090813059  1.0000
  O   O25       1.0  0.000518864169706  0.9382699387390686  0.9375962492044395  1.0000
  O   O26       1.0  0.0005754286460302  0.9383200036101159  0.0623857075073815  1.0000
  O   O27       1.0  0.0005726045925201  0.06168305167092571  0.9376149141180505  1.0000
  O   O28       1.0  0.0005158221378707001  0.06173149744115852  0.062404060939257995  1.0000
  O   O29       1.0  0.39070981116516634  0.43824189555460447  0.5000129064933034  1.0000
  O   O30       1.0  0.3907102929865971  0.5617578802221956  0.49998810405901395  1.0000
  O   O31       1.0  0.8907103084968141  0.9382426842596702  0.9999874955176152  1.0000
  O   O32       1.0  0.8907107997554605  0.06175939835041792  1.18740480843e-05  1.0000
  O   O33       1.0  0.3914108727363229  2.8779433094000006e-06  0.0356306855540325  1.0000
  O   O34       1.0  0.39141041519905434  0.9999985275583257  0.9643693941716904  1.0000
  O   O35       1.0  0.8914108304272473  0.49999665431965906  0.5356314197131836  1.0000
  O   O36       1.0  0.891410921843338  0.5000027428638701  0.46436982030451185  1.0000
  O   O37       1.0  0.49992579278305976  0.10892224616458891  0.035634807492265  1.0000
  O   O38       1.0  0.4999176029997727  0.10891642924106995  0.9643771427374332  1.0000
  O   O39       1.0  0.49991714983730884  0.8910846069116827  0.0356230801726625  1.0000
  O   O40       1.0  0.4999246127252803  0.8910787901141078  0.964365726701871  1.0000
  O   O41       1.0  0.9999171144382188  0.6089160225941727  0.5356227803315079  1.0000
  O   O42       1.0  0.9999253020924925  0.6089226505556126  0.4643652272039205  1.0000
  O   O43       1.0  0.9999239485060444  0.391076916793736  0.5356352222714449  1.0000
  O   O44       1.0  0.999917023245196  0.3910846234135761  0.4643773578563639  1.0000
  O   O45       1.0  0.608720658984609  2.08503370587e-05  0.035626471763279696  1.0000
  O   O46       1.0  0.6087202012166202  0.9999819789100427  0.9643738955630141  1.0000
  O   O47       1.0  0.10872015203049298  0.4999794171276972  0.5356257345373407  1.0000
  O   O48       1.0  0.1087202438017769  0.5000211053148432  0.4643737837665824  1.0000
  O   O49       1.0  0.31028789558683917  0.48459939723329626  0.2484384157514299  1.0000
  O   O50       1.0  0.3411564786946926  0.4872441725459212  0.3148517075978461  1.0000
  O   O51       1.0  0.3102551484292491  0.5148510327346187  0.751559770242622  1.0000
  O   O52       1.0  0.34112663097777585  0.5122909109735687  0.6851490973325485  1.0000
  O   O53       1.0  0.8101972422680961  0.0138859748302806  0.7484404731302519  1.0000
  O   O54       1.0  0.8410992488852643  0.011596950514963598  0.8148528522572747  1.0000
  O   O55       1.0  0.8102485689861042  0.9852161576425686  0.2515610531814616  1.0000
  O   O56       1.0  0.8411222526327508  0.9877473376878854  0.1851494248885501  1.0000
