data_image0
_chemical_formula_structural       Al2H16C30Cl2O12
_chemical_formula_sum              "Al2 H16 C30 Cl2 O12"
_cell_length_a       6.649785577642107
_cell_length_b       15.330687401605859
_cell_length_c       17.807865144589957
_cell_angle_alpha    86.78915475022693
_cell_angle_beta     79.10041557221909
_cell_angle_gamma    77.58758239289804

_space_group_name_H-M_alt    "P 1"
_space_group_IT_number       1

loop_
  _space_group_symop_operation_xyz
  'x, y, z'

loop_
  _atom_site_type_symbol
  _atom_site_label
  _atom_site_symmetry_multiplicity
  _atom_site_fract_x
  _atom_site_fract_y
  _atom_site_fract_z
  _atom_site_occupancy
  Al  Al1       1.0  0.5007485719042108  0.5001389397418095  0.4998107455679559  1.0000
  Al  Al2       1.0  0.0005465094965942379  0.5002436015610598  0.5001462755732433  1.0000
  H   H1        1.0  0.23434398966221456  0.44107754868854687  0.5870275045698037  1.0000
  H   H2        1.0  0.7687815124699144  0.5580242845785505  0.41253124669918145  1.0000
  H   H3        1.0  0.6412135760529696  0.5418741784712111  0.2683797486521157  1.0000
  H   H4        1.0  0.7104370351677363  0.5501090696921834  0.12612150374396694  1.0000
  H   H5        1.0  0.1856949628915956  0.4260587876690566  0.1249227825814359  1.0000
  H   H6        1.0  0.8085287433089763  0.573732273351723  0.8761053925563828  1.0000
  H   H7        1.0  0.3582826171912145  0.457624633971733  0.7305408128382497  1.0000
  H   H8        1.0  0.2862422928194164  0.44888726469638135  0.8727630398872607  1.0000
  H   H9        1.0  0.6996304232092004  0.93729293375646  0.5351305119342769  1.0000
  H   H10       1.0  0.30258506199022867  0.0630707683752973  0.4650108707987926  1.0000
  H   H11       1.0  0.5658467010822507  0.22903935832921013  0.5223315077249282  1.0000
  H   H12       1.0  0.6380250057780971  0.0659723129490786  0.52865366743891  1.0000
  H   H13       1.0  0.4362421601451202  0.77114293642979  0.4774338711790023  1.0000
  H   H14       1.0  0.36418636617207056  0.9342508012654208  0.4711143685590713  1.0000
  H   H15       1.0  0.7966126021492601  0.7045462447230904  0.5366140640372521  1.0000
  H   H16       1.0  0.2054124753240743  0.2958612142029295  0.4636909087831072  1.0000
  C   C1        1.0  0.8389808623007015  0.3374983199396056  0.495172611230295  1.0000
  C   C2        1.0  0.6690567407770802  0.5103100508031276  0.6376025963139256  1.0000
  C   C3        1.0  0.16276783579000664  0.6628127810383404  0.5048599255805826  1.0000
  C   C4        1.0  0.3313091809728237  0.48991066457358556  0.36233908888332417  1.0000
  C   C5        1.0  0.3709473653312187  0.4842966454923071  0.277284897854706  1.0000
  C   C6        1.0  0.5407554145982374  0.5179978229445013  0.2360803493016732  1.0000
  C   C7        1.0  0.5800863460216591  0.522273098346055  0.1568785375481809  1.0000
  C   C8        1.0  0.4494078944515677  0.49070807774759834  0.11559832239328931  1.0000
  C   C9        1.0  0.2837752347749857  0.45327117404334427  0.1560295273799497  1.0000
  C   C10       1.0  0.244499399396453  0.4504222863131774  0.2357018374745437  1.0000
  C   C11       1.0  0.48300919736798426  0.4964928694673675  0.03483205904240091  1.0000
  C   C12       1.0  0.5111198738829614  0.5027295885356224  0.9651522620552555  1.0000
  C   C13       1.0  0.5459680707248538  0.5086211519165786  0.8843751152148797  1.0000
  C   C14       1.0  0.7117157026562495  0.5464036752459976  0.8445258538176078  1.0000
  C   C15       1.0  0.752632928559649  0.5495145952401758  0.7648706337568996  1.0000
  C   C16       1.0  0.6278021917762333  0.51549916396268  0.7226972248725687  1.0000
  C   C17       1.0  0.45775734013591296  0.4814663110140814  0.7633070614091507  1.0000
  C   C18       1.0  0.41673948352243423  0.4769657490806268  0.8424988013754557  1.0000
  C   C19       1.0  0.11325266929426894  0.7607576191021865  0.5062483028781344  1.0000
  C   C20       1.0  0.8887872969041196  0.23953583712202686  0.49388895927876325  1.0000
  C   C21       1.0  0.9035447204888597  0.8098870729187624  0.523075431493325  1.0000
  C   C22       1.0  0.8631632054039146  0.9033816383570753  0.5210998886278233  1.0000
  C   C23       1.0  0.09855764940560624  0.1904647701424125  0.4771526944571747  1.0000
  C   C24       1.0  0.1390338769241808  0.09696077964372313  0.47908319247773085  1.0000
  C   C25       1.0  0.727024193204308  0.19168961773895893  0.5113258639580637  1.0000
  C   C26       1.0  0.7691732569120688  0.0994070340355009  0.5140241444031304  1.0000
  C   C27       1.0  0.27512398224693874  0.8085399507734933  0.48862830885996533  1.0000
  C   C28       1.0  0.2330581146525289  0.9008185839643872  0.48593831692161876  1.0000
  C   C29       1.0  0.02464811020905  0.9505762976372195  0.5018083465234682  1.0000
  C   C30       1.0  0.9776583260983713  0.049701121953354695  0.4982809062707929  1.0000
  Cl  Cl1       1.0  0.04253763903468415  0.4002767258795785  0.2798483061436983  1.0000
  Cl  Cl2       1.0  0.9544434184391477  0.6001510356808454  0.7214610168807383  1.0000
  O   O1        1.0  0.6483877017119611  0.3785172243351126  0.5081214737984396  1.0000
  O   O2        1.0  0.8593252895811292  0.4939517348156599  0.6036320704975681  1.0000
  O   O3        1.0  0.005816594497602434  0.6229390417114404  0.5158901090556044  1.0000
  O   O4        1.0  0.4903636295003082  0.48111942805346075  0.3944455140030669  1.0000
  O   O5        1.0  0.3532792459135764  0.6217300123200716  0.4915062665071943  1.0000
  O   O6        1.0  0.1413822375975329  0.5066360480283905  0.3966125857003391  1.0000
  O   O7        1.0  0.9957877749630841  0.3774268787265457  0.484445360467376  1.0000
  O   O8        1.0  0.5106712964708111  0.5191414801519088  0.6051526093514497  1.0000
  O   O9        1.0  0.2528735407688459  0.46036306868368365  0.5338512220884652  1.0000
  O   O10       1.0  0.7487080133096813  0.5398706378550243  0.4659905203645352  1.0000
  O   O11       1.0  0.7374957560775287  0.7702119357818233  0.5410951139718491  1.0000
  O   O12       1.0  0.2645724977888335  0.23019824392587654  0.4592212343051544  1.0000
