data_image0
_chemical_formula_structural       Zn6P4H20C8N20O16
_chemical_formula_sum              "Zn6 P4 H20 C8 N20 O16"
_cell_length_a       5.206159474586214
_cell_length_b       9.881157500134728
_cell_length_c       15.31958402663794
_cell_angle_alpha    76.66984959622802
_cell_angle_beta     80.21916377205233
_cell_angle_gamma    74.72455730335524

_space_group_name_H-M_alt    "P 1"
_space_group_IT_number       1

loop_
  _space_group_symop_operation_xyz
  'x, y, z'

loop_
  _atom_site_type_symbol
  _atom_site_label
  _atom_site_symmetry_multiplicity
  _atom_site_fract_x
  _atom_site_fract_y
  _atom_site_fract_z
  _atom_site_occupancy
  Zn  Zn1       1.0  0.8832157006781575  0.8296698087245391  0.5340623738087444  1.0000
  Zn  Zn2       1.0  0.24677151869211414  0.6704077410762397  0.965885913171604  1.0000
  Zn  Zn3       1.0  0.11678852188828168  0.17033061607475736  0.4659364237788778  1.0000
  Zn  Zn4       1.0  0.7532268954948124  0.32959160464253767  0.03411540238715819  1.0000
  Zn  Zn5       1.0  0.27363433946236176  0.2500206911874869  0.7499670164082131  1.0000
  Zn  Zn6       1.0  0.7263639024198126  0.7499808046856843  0.25003131353099656  1.0000
  P   P1        1.0  0.42363887460020055  0.8759178751976439  0.4165188889577748  1.0000
  P   P2        1.0  0.7159950664440872  0.6240977027858676  0.08354535595147176  1.0000
  P   P3        1.0  0.5763630178329038  0.12407827721172285  0.5834787867596134  1.0000
  P   P4        1.0  0.28399978982835744  0.3759016519859131  0.9164536630485498  1.0000
  H   H1        1.0  0.6504964288105419  0.4108403369108729  0.7808309336530355  1.0000
  H   H2        1.0  0.8418493363351159  0.08941642465883602  0.7191273752226548  1.0000
  H   H3        1.0  0.34949587419701106  0.5891579516109289  0.21916733780668093  1.0000
  H   H4        1.0  0.1581545470254112  0.9105871981305217  0.2808738684190428  1.0000
  H   H5        1.0  0.300475389409073  0.6587321144572871  0.7548991678177753  1.0000
  H   H6        1.0  0.7137786912470293  0.8414531306805559  0.7450009657424344  1.0000
  H   H7        1.0  0.6995249778466293  0.34126723895980865  0.24510018843411518  1.0000
  H   H8        1.0  0.2862294518777091  0.15854942963635218  0.25499856140623917  1.0000
  H   H9        1.0  0.3549564429032588  0.7729469222521461  0.650387009278681  1.0000
  H   H10       1.0  0.7781367592576702  0.7271800008907052  0.8495089971072927  1.0000
  H   H11       1.0  0.6450427383809444  0.2270524341826174  0.34961158145362947  1.0000
  H   H12       1.0  0.22186587288381082  0.27282256078088823  0.15049019278951895  1.0000
  H   H13       1.0  0.4529434029337268  0.4245086439556618  0.592845092762289  1.0000
  H   H14       1.0  0.47029908838361256  0.07547194366451043  0.9071109106662473  1.0000
  H   H15       1.0  0.5470515185862651  0.5754917749515445  0.4071552144630458  1.0000
  H   H16       1.0  0.529698805275494  0.9245295277590133  0.09289363444542424  1.0000
  H   H17       1.0  0.352765669093259  0.6056567372930745  0.5426006834661334  1.0000
  H   H18       1.0  0.5008502243379102  0.894325925585477  0.9573620366534781  1.0000
  H   H19       1.0  0.6472336192481482  0.39433940485186275  0.45739960466041646  1.0000
  H   H20       1.0  0.4991491944986067  0.10567234483032452  0.04264082792369809  1.0000
  C   C1        1.0  0.6673976484786126  0.6081159932099569  0.6851276926286187  1.0000
  C   C2        1.0  0.9602670621954496  0.8920777763941101  0.8148063589318965  1.0000
  C   C3        1.0  0.3325953707994175  0.3918833620133811  0.31487121395411305  1.0000
  C   C4        1.0  0.03973473760120072  0.1079237104260571  0.18519426756603957  1.0000
  C   C5        1.0  0.06957562115479018  0.522032351513147  0.6271683753373053  1.0000
  C   C6        1.0  0.21868154629298445  0.9780314323816555  0.8727412453154172  1.0000
  C   C7        1.0  0.9304220857788087  0.477969149943803  0.3728285359800337  1.0000
  C   C8        1.0  0.7813104827562043  0.021971118265632607  0.12726076042368817  1.0000
  N   N1        1.0  0.8617105742940302  0.6405642222364137  0.6180131772508444  1.0000
  N   N2        1.0  0.12007456993636373  0.8595431100512914  0.8818933708902178  1.0000
  N   N3        1.0  0.13828564927181475  0.3594362018030068  0.3819858237699164  1.0000
  N   N4        1.0  0.8799181844004527  0.1404637297372489  0.11810550085351677  1.0000
  N   N5        1.0  0.7549812796641008  0.4759342103687559  0.7321313805818332  1.0000
  N   N6        1.0  0.962694658811664  0.024265789806605705  0.7678327276959036  1.0000
  N   N7        1.0  0.24501700402772297  0.5240630070791569  0.2678673585262955  1.0000
  N   N8        1.0  0.03730673653152645  0.9757378308682051  0.232169056630802  1.0000
  N   N9        1.0  0.012830752078777425  0.4198349275939465  0.6959278637298281  1.0000
  N   N10       1.0  0.12842109008051505  0.08028114610869612  0.8040236146662137  1.0000
  N   N11       1.0  0.987164573894688  0.5801633574586307  0.304071285666751  1.0000
  N   N12       1.0  0.8715766222566897  0.91971925302952  0.19598171394429892  1.0000
  N   N13       1.0  0.4301972058575882  0.6979074582504909  0.7034391526099667  1.0000
  N   N14       1.0  0.83115953070444  0.8023096002870179  0.7964817705082721  1.0000
  N   N15       1.0  0.5697971807138419  0.302092966240494  0.2965597359935045  1.0000
  N   N16       1.0  0.1688449384314624  0.19769296093301142  0.20351753180582924  1.0000
  N   N17       1.0  0.30259695886207555  0.5104751928921374  0.5725478508893003  1.0000
  N   N18       1.0  0.38555259492315486  0.9895341192033345  0.9273764350615818  1.0000
  N   N19       1.0  0.6974079799748412  0.48952629860868785  0.4274515818213515  1.0000
  N   N20       1.0  0.6144296633785802  0.010469495271081502  0.07262694991868557  1.0000
  O   O1        1.0  0.2780321307732479  0.8092420870658188  0.5078111596689395  1.0000
  O   O2        1.0  0.5947332048785513  0.6907805754904148  0.9922870886251827  1.0000
  O   O3        1.0  0.7219763007305956  0.19075833124657754  0.4921892813751255  1.0000
  O   O4        1.0  0.4052676320781643  0.3092177082074841  0.007712398023258485  1.0000
  O   O5        1.0  0.40996280682771397  0.7939107227274678  0.34132795106063424  1.0000
  O   O6        1.0  0.5450915611069644  0.7060190445897591  0.15877161845124727  1.0000
  O   O7        1.0  0.5900427740149756  0.20608754889975245  0.6586745976661132  1.0000
  O   O8        1.0  0.45490170474052166  0.2939824470543187  0.841227792857964  1.0000
  O   O9        1.0  0.721271660816129  0.8593948276078794  0.4249958391446213  1.0000
  O   O10       1.0  0.005495722417748412  0.6407642770096731  0.07499139440794514  1.0000
  O   O11       1.0  0.2787342174228229  0.14060452445453825  0.5750038543591244  1.0000
  O   O12       1.0  0.9944957716828787  0.3592382792213941  0.9250091927092965  1.0000
  O   O13       1.0  0.2782822303090314  0.0344680499862946  0.3855308572925152  1.0000
  O   O14       1.0  0.6985502715689548  0.4654814879724046  0.11450613829354234  1.0000
  O   O15       1.0  0.7217218109355062  0.9655313025276873  0.6144687237939477  1.0000
  O   O16       1.0  0.30144418025002323  0.5345200006540055  0.8854940385352419  1.0000
