data_image0
_chemical_formula_structural       CoH8C12N10
_chemical_formula_sum              "Co1 H8 C12 N10"
_cell_length_a       6.20227542469834
_cell_length_b       7.3030987878259594
_cell_length_c       9.087784108873246
_cell_angle_alpha    115.10903971325054
_cell_angle_beta     103.69498629956573
_cell_angle_gamma    95.98635038132325

_space_group_name_H-M_alt    "P 1"
_space_group_IT_number       1

loop_
  _space_group_symop_operation_xyz
  'x, y, z'

loop_
  _atom_site_type_symbol
  _atom_site_label
  _atom_site_symmetry_multiplicity
  _atom_site_fract_x
  _atom_site_fract_y
  _atom_site_fract_z
  _atom_site_occupancy
  Co  Co1       1.0  0.4999956230366537  0.9999912854304965  0.9999945356617558  1.0000
  H   H1        1.0  0.22454891722619408  0.7080262235256068  0.3782434257866567  1.0000
  H   H2        1.0  0.775448565756271  0.29194706138621734  0.6217369251581955  1.0000
  H   H3        1.0  0.6033876076078357  0.6672071641578937  0.3262485205852527  1.0000
  H   H4        1.0  0.3966142549432092  0.3328047401089903  0.67374408471521  1.0000
  H   H5        1.0  0.9519500369056503  0.7820331661565516  0.591830024532001  1.0000
  H   H6        1.0  0.04804826844791421  0.21796936534954628  0.4081600011763768  1.0000
  H   H7        1.0  0.8822197149274729  0.9168243372799549  0.872756606553615  1.0000
  H   H8        1.0  0.11776549311608868  0.08313943540604637  0.12723169316559077  1.0000
  C   C1        1.0  0.38039915903663524  0.7494109701065809  0.4831249681910491  1.0000
  C   C2        1.0  0.6195966683711517  0.2505715887827051  0.5168636171197959  1.0000
  C   C3        1.0  0.5905024113015215  0.7283536919884666  0.4549594071848303  1.0000
  C   C4        1.0  0.40950061986472974  0.27164753690085763  0.545031026080366  1.0000
  C   C5        1.0  0.7787187936771288  0.789503580438989  0.5971447381409118  1.0000
  C   C6        1.0  0.22127654115598722  0.21049270836655148  0.40284493197646737  1.0000
  C   C7        1.0  0.7429271793388565  0.8668388234493917  0.7561883029991631  1.0000
  C   C8        1.0  0.2570619062209332  0.1331434275118468  0.24380009580730894  1.0000
  C   C9        1.0  0.1601883018606216  0.5683815718342586  0.8816337650532089  1.0000
  C   C10       1.0  0.7754183861603038  0.7283060407483787  0.10339734365679476  1.0000
  C   C11       1.0  0.8398235100272514  0.4316684373141796  0.11840272953315878  1.0000
  C   C12       1.0  0.22459632719464653  0.2717163904522407  0.8966284739322317  1.0000
  N   N1        1.0  0.5352111395109419  0.8827092449520605  0.7735347091881406  1.0000
  N   N2        1.0  0.46477640488667754  0.1172652437932058  0.22645088897380108  1.0000
  N   N3        1.0  0.3527732803628608  0.8240092254540554  0.6379402210571142  1.0000
  N   N4        1.0  0.6472139855901703  0.17596368567416926  0.36204371323264434  1.0000
  N   N5        1.0  0.19427418966218818  0.7454944690008104  0.9142002216924251  1.0000
  N   N6        1.0  0.6811299659590659  0.8348712992400066  0.057070442631697825  1.0000
  N   N7        1.0  0.8057396482170914  0.25452145034083873  0.08581011046172896  1.0000
  N   N8        1.0  0.3188805828132857  0.1651350207761979  0.9429273762409379  1.0000
  N   N9        1.0  0.10436726058806305  0.37000063099276304  0.8320679525025054  1.0000
  N   N10       1.0  0.8956383123805266  0.6300371444930659  0.16797886833456485  1.0000
