data_image0
_chemical_formula_structural       H12Pb2C12N8O6
_chemical_formula_sum              "H12 Pb2 C12 N8 O6"
_cell_length_a       7.019034455606158
_cell_length_b       8.026644620982566
_cell_length_c       8.656730029885736
_cell_angle_alpha    87.18630746711769
_cell_angle_beta     70.2212428691558
_cell_angle_gamma    68.74652127519656

_space_group_name_H-M_alt    "P 1"
_space_group_IT_number       1

loop_
  _space_group_symop_operation_xyz
  'x, y, z'

loop_
  _atom_site_type_symbol
  _atom_site_label
  _atom_site_symmetry_multiplicity
  _atom_site_fract_x
  _atom_site_fract_y
  _atom_site_fract_z
  _atom_site_occupancy
  H   H1        1.0  0.9393228289446116  0.050098633931845896  0.2352372800648722  1.0000
  H   H2        1.0  0.06065336550732067  0.9498857601782118  0.7647565623942825  1.0000
  H   H3        1.0  0.5848857426619534  0.9388421856918111  0.7165558514281257  1.0000
  H   H4        1.0  0.4151709814869307  0.0611387333475193  0.2834630935432472  1.0000
  H   H5        1.0  0.5088268857082667  0.2526156099205679  0.8180338398805704  1.0000
  H   H6        1.0  0.491214338758425  0.7473733979834876  0.181966980508122  1.0000
  H   H7        1.0  0.6553310937895205  0.4506004567512533  0.615973180132798  1.0000
  H   H8        1.0  0.3446504875560238  0.5494006478312199  0.3840054166441649  1.0000
  H   H9        1.0  0.29708736818823694  0.9679039533372557  0.9935474501160969  1.0000
  H   H10       1.0  0.7028815949064081  0.0321181548856515  0.00647149750481191  1.0000
  H   H11       1.0  0.17385324996952534  0.13848807998254387  0.9174786322656203  1.0000
  H   H12       1.0  0.8261740661728685  0.8615395102543885  0.08251213245201669  1.0000
  Pb  Pb1       1.0  0.06613673237230706  0.40514012161554536  0.21987176094193472  1.0000
  Pb  Pb2       1.0  0.9338594050141823  0.5948474744139246  0.7801163160808073  1.0000
  C   C1        1.0  0.8404247992777557  0.09101382142846859  0.364703469739176  1.0000
  C   C2        1.0  0.15956518151261187  0.9089741406758446  0.6352932355005765  1.0000
  C   C3        1.0  0.7663644570283241  0.9713498574033463  0.46761760194426216  1.0000
  C   C4        1.0  0.23364812661755252  0.028634870999958695  0.5323868572998762  1.0000
  C   C5        1.0  0.6467056858729092  0.028866643463132415  0.6337870004019168  1.0000
  C   C6        1.0  0.35332843574668277  0.9711174872272463  0.3662230364874901  1.0000
  C   C7        1.0  0.6042596328943476  0.20248325617996704  0.6901429509704827  1.0000
  C   C8        1.0  0.3957672124989603  0.7975075075120795  0.3098559983693789  1.0000
  C   C9        1.0  0.6841940154456764  0.3131444946482843  0.5789224464045263  1.0000
  C   C10       1.0  0.31580253509846296  0.6868497067636881  0.421066262310113  1.0000
  C   C11       1.0  0.8265146242071211  0.7842703746729213  0.3998091282898813  1.0000
  C   C12       1.0  0.1734897340255444  0.21571594189325077  0.6001952183865811  1.0000
  N   N1        1.0  0.8021351709457535  0.25766295097075437  0.41925413181114396  1.0000
  N   N2        1.0  0.19784913191966075  0.7423276240032022  0.5807312881849996  1.0000
  N   N3        1.0  0.7900362931722144  0.45494483032462796  0.07966475244637647  1.0000
  N   N4        1.0  0.20993806539055282  0.5450593645206537  0.9203249124987922  1.0000
  N   N5        1.0  0.6827122248128745  0.36622830886567925  0.08791606836024357  1.0000
  N   N6        1.0  0.31722892573355205  0.6338025983216865  0.912100857034439  1.0000
  N   N7        1.0  0.5733294727884302  0.2824216425547447  0.09511573018933461  1.0000
  N   N8        1.0  0.42657811655183764  0.7176253878539426  0.9049268981292329  1.0000
  O   O1        1.0  0.8046802942182933  0.6642694030310423  0.4976365347034246  1.0000
  O   O2        1.0  0.19532098865226294  0.3357168981228256  0.5023617393833746  1.0000
  O   O3        1.0  0.9060190548816465  0.7514917617268964  0.24272178801358996  1.0000
  O   O4        1.0  0.09397595341440736  0.24850274067850353  0.7572800414922582  1.0000
  O   O5        1.0  0.2154141121185092  0.09847191254991827  0.015723110690814168  1.0000
  O   O6        1.0  0.7846565813487133  0.9015685038709265  0.9842524407373718  1.0000
