data_image0
_chemical_formula_structural       H24Pb4C8N32O12
_chemical_formula_sum              "H24 Pb4 C8 N32 O12"
_cell_length_a       6.715647480334575
_cell_length_b       9.351259108083907
_cell_length_c       14.095983280309758
_cell_angle_alpha    89.99969241473367
_cell_angle_beta     90.00076864693975
_cell_angle_gamma    104.64009035346797

_space_group_name_H-M_alt    "P 1"
_space_group_IT_number       1

loop_
  _space_group_symop_operation_xyz
  'x, y, z'

loop_
  _atom_site_type_symbol
  _atom_site_label
  _atom_site_symmetry_multiplicity
  _atom_site_fract_x
  _atom_site_fract_y
  _atom_site_fract_z
  _atom_site_occupancy
  H   H1        1.0  0.28445159208317955  0.023266264080923797  0.3548445222142647  1.0000
  H   H2        1.0  0.2155618146762066  0.4767398150822471  0.8548404833466704  1.0000
  H   H3        1.0  0.7155402649140044  0.9767445995171895  0.6451502240433555  1.0000
  H   H4        1.0  0.7844268415465052  0.5232622066871144  0.14515284407337958  1.0000
  H   H5        1.0  0.24706925421022422  0.9100629538839157  0.2686557543838717  1.0000
  H   H6        1.0  0.2529365176011709  0.589934220880444  0.7686512984761436  1.0000
  H   H7        1.0  0.7529428940463062  0.08994225974162619  0.7313418296384455  1.0000
  H   H8        1.0  0.7470635704087624  0.41005001817374154  0.23133777248318665  1.0000
  H   H9        1.0  0.22237470316287752  0.9809820442913731  0.05258618542640649  1.0000
  H   H10       1.0  0.27762085754302024  0.5190157454018659  0.5525807407403107  1.0000
  H   H11       1.0  0.7776186974170612  0.0190166287522331  0.9474213304545386  1.0000
  H   H12       1.0  0.7223896904584918  0.4809850472957392  0.4474260657705713  1.0000
  H   H13       1.0  0.04253336675169095  0.8319047516223179  0.05813994627978759  1.0000
  H   H14       1.0  0.45746971504618006  0.668105163912905  0.5581315617321394  1.0000
  H   H15       1.0  0.9574516313967151  0.16809950536186585  0.9418590564997231  1.0000
  H   H16       1.0  0.5425355743710085  0.3318934430977478  0.44187098823402227  1.0000
  H   H17       1.0  0.5079681672220743  0.1350380301850009  0.233868022647016  1.0000
  H   H18       1.0  0.9920529968240572  0.36497409366771183  0.7338690485939309  1.0000
  H   H19       1.0  0.4920498682901808  0.8649793326921156  0.7661373650129447  1.0000
  H   H20       1.0  0.007953664450631927  0.6350200759166925  0.26613421080707406  1.0000
  H   H21       1.0  0.5872514303911913  0.2140064443794643  0.13549329845113078  1.0000
  H   H22       1.0  0.9127521390192044  0.28600160155497895  0.6354898503703197  1.0000
  H   H23       1.0  0.4127581458755998  0.7859998909703164  0.8645149268899812  1.0000
  H   H24       1.0  0.0872369174018388  0.7140015254325647  0.3645112806904294  1.0000
  Pb  Pb1       1.0  0.9348172013782515  0.0680206737779727  0.2048130372213564  1.0000
  Pb  Pb2       1.0  0.5651847842401168  0.43196948265997287  0.7048010933194176  1.0000
  Pb  Pb3       1.0  0.06518551587922163  0.9319790549743558  0.7951873844684272  1.0000
  Pb  Pb4       1.0  0.43481541807246765  0.5680191855606579  0.29519081531969954  1.0000
  C   C1        1.0  0.78362356058242  0.029161399330625698  0.44501225018075263  1.0000
  C   C2        1.0  0.7163570985780368  0.470833792267868  0.9450103672580779  1.0000
  C   C3        1.0  0.21635755086748532  0.9708362345374437  0.5549853337547431  1.0000
  C   C4        1.0  0.2836284715643274  0.5291350230988598  0.05498863559052579  1.0000
  C   C5        1.0  0.9184385474297939  0.1765097814851657  0.44307639775349367  1.0000
  C   C6        1.0  0.5815581786855617  0.3235052599779137  0.9430834171613327  1.0000
  C   C7        1.0  0.08156394084979714  0.8235098826726668  0.5569155108342797  1.0000
  C   C8        1.0  0.4184639723897376  0.6764987906214301  0.056923389381204  1.0000
  N   N1        1.0  0.7320294721284456  0.9479205446557799  0.36553734475081967  1.0000
  N   N2        1.0  0.7679894571831768  0.5520809745281738  0.8655331305845733  1.0000
  N   N3        1.0  0.2679731877536327  0.05209136638639219  0.6344574015400326  1.0000
  N   N4        1.0  0.23203355117308888  0.4479131042680604  0.1344580686966879  1.0000
  N   N5        1.0  0.6114054736260357  0.8190198515710775  0.39516549442572557  1.0000
  N   N6        1.0  0.8886349359076249  0.6809770419408566  0.895166543903734  1.0000
  N   N7        1.0  0.3886112472719033  0.18098976645600826  0.604834927290959  1.0000
  N   N8        1.0  0.111370696601206  0.31900605885009975  0.1048331684051433  1.0000
  N   N9        1.0  0.5910299601101912  0.8216855871051789  0.48824938691748787  1.0000
  N   N10       1.0  0.9089674869595824  0.6783212716251867  0.9882576734469665  1.0000
  N   N11       1.0  0.40895458058726303  0.17832974693807555  0.5117453593077954  1.0000
  N   N12       1.0  0.09101825423324783  0.321668584382664  0.011727850345160098  1.0000
  N   N13       1.0  0.6983335511212232  0.9523556976643376  0.5219200737067027  1.0000
  N   N14       1.0  0.8016424491732508  0.5476480551391204  0.021926260565947996  1.0000
  N   N15       1.0  0.301647503094955  0.047654118479052  0.47808247615917304  1.0000
  N   N16       1.0  0.19834306330614024  0.45236173624711257  0.9780706139388755  1.0000
  N   N17       1.0  0.9792247765387144  0.2676286811911409  0.5172358470607604  1.0000
  N   N18       1.0  0.5207466654660564  0.2323654518325284  0.0172458860818949  1.0000
  N   N19       1.0  0.020748618498124875  0.7323723178951765  0.4827603179992791  1.0000
  N   N20       1.0  0.4792359895949331  0.7676199914781348  0.9827665957427882  1.0000
  N   N21       1.0  0.11194369698826279  0.3862922364010827  0.480552131883634  1.0000
  N   N22       1.0  0.3880393335186838  0.1137026122166205  0.980551304623688  1.0000
  N   N23       1.0  0.8880402152077735  0.6137131340601201  0.5194518368438992  1.0000
  N   N24       1.0  0.611952752531927  0.8862883159682299  0.0194576301115674  1.0000
  N   N25       1.0  0.12991121515149465  0.3681222683891149  0.3884479726686933  1.0000
  N   N26       1.0  0.3700899971663176  0.1318804693373039  0.8884490876109081  1.0000
  N   N27       1.0  0.8701157943097965  0.6318828626790064  0.6115552867778644  1.0000
  N   N28       1.0  0.6299110056090386  0.8681104093128977  0.11156339426328539  1.0000
  N   N29       1.0  0.009950905264496204  0.23732200396471365  0.3624716353679175  1.0000
  N   N30       1.0  0.4900491581113826  0.2626918817593591  0.8624772928938426  1.0000
  N   N31       1.0  0.9900886789580737  0.7626808423578167  0.6375266581703087  1.0000
  N   N32       1.0  0.5099426993339333  0.7372901880926219  0.1375259664818458  1.0000
  O   O1        1.0  0.2769831155121452  0.0168048878264386  0.2835511508657973  1.0000
  O   O2        1.0  0.2230289647438326  0.4831947381821919  0.7835464267758567  1.0000
  O   O3        1.0  0.7230193159251853  0.9831981648663943  0.7164499802386999  1.0000
  O   O4        1.0  0.7769668935893036  0.5167983839639589  0.21645257606018478  1.0000
  O   O5        1.0  0.1212561722978904  0.9169626544059852  0.09656375348885858  1.0000
  O   O6        1.0  0.3787507905880503  0.5830427104885771  0.5965636913371526  1.0000
  O   O7        1.0  0.8787287115573078  0.0830371734107871  0.9034331210328189  1.0000
  O   O8        1.0  0.621271531966954  0.4169535870076969  0.403436730423067  1.0000
  O   O9        1.0  0.6299674672601158  0.20183518620045499  0.20290344430116383  1.0000
  O   O10       1.0  0.8700384686355702  0.2981660277236884  0.7029046374490804  1.0000
  O   O11       1.0  0.37003627871598593  0.7981756113501671  0.7970969773709766  1.0000
  O   O12       1.0  0.12997207927150364  0.7018347649836089  0.29709507484226083  1.0000
