data_image0
_chemical_formula_structural       Zn2H34C40N2O10
_chemical_formula_sum              "Zn2 H34 C40 N2 O10"
_cell_length_a       13.904756175525446
_cell_length_b       14.735386444898397
_cell_length_c       16.142796510004914
_cell_angle_alpha    89.87914216974498
_cell_angle_beta     90.3362771151298
_cell_angle_gamma    98.12903096446742

_space_group_name_H-M_alt    "P 1"
_space_group_IT_number       1

loop_
  _space_group_symop_operation_xyz
  'x, y, z'

loop_
  _atom_site_type_symbol
  _atom_site_label
  _atom_site_symmetry_multiplicity
  _atom_site_fract_x
  _atom_site_fract_y
  _atom_site_fract_z
  _atom_site_occupancy
  Zn  Zn1       1.0  0.5008785739087287  0.4043580637925216  0.5003827474217531  1.0000
  Zn  Zn2       1.0  0.49913436151994967  0.5956498063775939  0.49961135667723505  1.0000
  H   H1        1.0  0.9668985800379988  0.3958049067462711  0.5063810897374594  1.0000
  H   H2        1.0  0.5620042848278572  0.7727253385867529  0.9991837605408946  1.0000
  H   H3        1.0  0.4329566633025123  0.7545099647704203  0.9991022808600291  1.0000
  H   H4        1.0  0.49737667875008634  0.8190421571751046  0.0795763162541974  1.0000
  H   H5        1.0  0.43580450906206647  0.6636287363004955  0.13295804953246199  1.0000
  H   H6        1.0  0.562152098199718  0.6814705826896981  0.1331774870683873  1.0000
  H   H7        1.0  0.23862285314779544  0.9053384800971997  0.553223426676837  1.0000
  H   H8        1.0  0.3129450350625262  0.8165613976272398  0.5656763630457179  1.0000
  H   H9        1.0  0.21936034080867725  0.7233402198709056  0.4556099656339825  1.0000
  H   H10       1.0  0.1395057056712474  0.7523250903111887  0.5341875859959159  1.0000
  H   H11       1.0  0.14650821352313403  0.8124482447539092  0.4380978579230401  1.0000
  H   H12       1.0  0.03310504266720218  0.6041933260694491  0.4936105344969732  1.0000
  H   H13       1.0  0.6870657026930475  0.18345605391379388  0.4343214350505562  1.0000
  H   H14       1.0  0.7613791073257515  0.09467823838028269  0.4467638227255293  1.0000
  H   H15       1.0  0.8534998411816446  0.18755069660146967  0.5618974914191313  1.0000
  H   H16       1.0  0.8604989296279725  0.24768479878138547  0.4658164079171243  1.0000
  H   H17       1.0  0.7806500812557504  0.2766649027253294  0.5443946692848272  1.0000
  H   H18       1.0  0.40360798747229854  0.16190874310910888  0.34073917048674934  1.0000
  H   H19       1.0  0.3451369407867587  0.050284408833462586  0.3138359358102676  1.0000
  H   H20       1.0  0.2752535963111953  0.14071128970279292  0.3315789848678889  1.0000
  H   H21       1.0  0.26368848621804375  0.03683526127901619  0.4540084321848711  1.0000
  H   H22       1.0  0.3248604548365818  0.14658441143969006  0.4812983163533886  1.0000
  H   H23       1.0  0.5011243550790709  0.3558560635419923  0.0790566281749037  1.0000
  H   H24       1.0  0.6548672784250867  0.9497179373902325  0.6861563014228196  1.0000
  H   H25       1.0  0.5963952701584746  0.8380970215281208  0.6592487218845946  1.0000
  H   H26       1.0  0.7247465002162485  0.8592924060371842  0.6684126214152428  1.0000
  H   H27       1.0  0.675145365322244  0.8534241067800963  0.5186914347912364  1.0000
  H   H28       1.0  0.7363170250151541  0.9631759972785475  0.5459850299653581  1.0000
  H   H29       1.0  0.4988299854238393  0.6441145281594133  0.9209398973488091  1.0000
  H   H30       1.0  0.5669088865345557  0.24542320383400099  0.0009046541541551  1.0000
  H   H31       1.0  0.43786054247642886  0.22726330161251698  0.0007964307346313003  1.0000
  H   H32       1.0  0.5024904226506806  0.1809170441917161  0.9204175639858859  1.0000
  H   H33       1.0  0.4378065003309075  0.3185301597829664  0.8667942117417553  1.0000
  H   H34       1.0  0.5641539413732986  0.336319964106906  0.8670589689018371  1.0000
  C   C1        1.0  0.5002006429797987  0.4998039684230092  0.3391431391380024  1.0000
  C   C2        1.0  0.41194233302337585  0.9454873689956004  0.4778527893886135  1.0000
  C   C3        1.0  0.5113262468594684  0.19006377040580702  0.49789417777882516  1.0000
  C   C4        1.0  0.4886837619653265  0.8099386080156991  0.5021061251030687  1.0000
  C   C5        1.0  0.31044061789837224  0.4630039227155152  0.4991342503002513  1.0000
  C   C6        1.0  0.6895648523247218  0.537016927522096  0.5008622910225852  1.0000
  C   C7        1.0  0.7945089709355742  0.5466321917845108  0.5002740985667771  1.0000
  C   C8        1.0  0.20549249303800113  0.45337082881535906  0.4997243261760573  1.0000
  C   C9        1.0  0.9820424510652755  0.5407500909898104  0.4980114132956999  1.0000
  C   C10       1.0  0.017957068621043997  0.4592494937456663  0.5019845358260185  1.0000
  C   C11       1.0  0.11782845471063301  0.4540661437935469  0.5007684322618289  1.0000
  C   C12       1.0  0.49980542374993325  0.5002209952225769  0.6608540151834815  1.0000
  C   C13       1.0  0.8821780615719488  0.5459321049708733  0.49922691505718575  1.0000
  C   C14       1.0  0.5005754527693044  0.4149828780836913  0.9567836996602564  1.0000
  C   C15       1.0  0.49938279105725775  0.5849945871491047  0.0432214939836015  1.0000
  C   C16       1.0  0.4999400481927409  0.49891777787728836  0.9134148260159876  1.0000
  C   C17       1.0  0.5000272207762748  0.5010624709641576  0.08658852348816741  1.0000
  C   C18       1.0  0.49936558978242124  0.5816666149961022  0.9571173797406375  1.0000
  C   C19       1.0  0.500598597425821  0.41831224806254846  0.0428847267579044  1.0000
  C   C20       1.0  0.4998714654517258  0.5003104160744627  0.8257705972036931  1.0000
  C   C21       1.0  0.5001009691939587  0.49966094985834525  0.1742265855110432  1.0000
  C   C22       1.0  0.5011449360644135  0.327142309212391  0.9089576139427749  1.0000
  C   C23       1.0  0.5000644790792492  0.4997596415898755  0.24976756734008632  1.0000
  C   C24       1.0  0.5021281764090091  0.24068876581145557  0.9608993348523001  1.0000
  C   C25       1.0  0.4987939644572775  0.6728309464567986  0.09103825364406498  1.0000
  C   C26       1.0  0.4977407190385037  0.7592779779864429  0.0390908181796732  1.0000
  C   C27       1.0  0.2681837186738179  0.849293438358174  0.5212053536926433  1.0000
  C   C28       1.0  0.18888537561639404  0.7802458890916101  0.48451900647416574  1.0000
  C   C29       1.0  0.7318215752672758  0.15072124515378246  0.4787899599440522  1.0000
  C   C30       1.0  0.8111228360944197  0.21976401497966688  0.515479419880279  1.0000
  C   C31       1.0  0.33054192591723813  0.08489978387137138  0.4443769301106641  1.0000
  C   C32       1.0  0.3394126272712086  0.11086516568904162  0.3520707422203131  1.0000
  C   C33       1.0  0.6694686548323007  0.9151067049537716  0.5556177909733293  1.0000
  C   C34       1.0  0.49993424440520323  0.500244055188773  0.7502407617904153  1.0000
  C   C35       1.0  0.6605944416601589  0.8891419894692518  0.6479208726269335  1.0000
  C   C36       1.0  0.4156830707335359  0.040852821400932285  0.4742002272432018  1.0000
  C   C37       1.0  0.5843195114375916  0.9591529451075829  0.5257988142102689  1.0000
  C   C38       1.0  0.5050073023805268  0.09329210726763648  0.49703924897663393  1.0000
  C   C39       1.0  0.4950011315387781  0.9067143724501106  0.5029585648506512  1.0000
  C   C40       1.0  0.5880686532016668  0.054517064709259  0.5221376001299589  1.0000
  N   N1        1.0  0.48567070506292254  0.730848004560933  0.5010316889645097  1.0000
  N   N2        1.0  0.5143383302794078  0.2691625891656528  0.4989679768207438  1.0000
  O   O1        1.0  0.49901661261223745  0.42219501507988605  0.3745284410773237  1.0000
  O   O2        1.0  0.670150399499427  0.110646622204662  0.5463700909830037  1.0000
  O   O3        1.0  0.5009810355339255  0.5778114127917675  0.6254718273936675  1.0000
  O   O4        1.0  0.5015381269391526  0.5774930029224521  0.3741043489345657  1.0000
  O   O5        1.0  0.498484545964473  0.4225176534915389  0.6258860541374176  1.0000
  O   O6        1.0  0.3503123494702578  0.39039189409903935  0.4992009768669021  1.0000
  O   O7        1.0  0.649699838141238  0.6096104973355027  0.5008042865072184  1.0000
  O   O8        1.0  0.3525838117975226  0.5456783463254951  0.4987088423211077  1.0000
  O   O9        1.0  0.6474226528630709  0.4543198961298102  0.5012734959251403  1.0000
  O   O10       1.0  0.3298572950473043  0.8893598515730902  0.4536227654553784  1.0000
