data_image0
_chemical_formula_structural       K4H12C12N16O24
_chemical_formula_sum              "K4 H12 C12 N16 O24"
_cell_length_a       6.935088473079366
_cell_length_b       9.196393004929403
_cell_length_c       12.380172233130585
_cell_angle_alpha    90.00052125662525
_cell_angle_beta     89.99988824234941
_cell_angle_gamma    95.91856375851806

_space_group_name_H-M_alt    "P 1"
_space_group_IT_number       1

loop_
  _space_group_symop_operation_xyz
  'x, y, z'

loop_
  _atom_site_type_symbol
  _atom_site_label
  _atom_site_symmetry_multiplicity
  _atom_site_fract_x
  _atom_site_fract_y
  _atom_site_fract_z
  _atom_site_occupancy
  K   K1        1.0  0.3844987834780013  0.3992030107608144  0.3646439162272372  1.0000
  K   K2        1.0  0.11550169277739997  0.6007841894246225  0.864640998234222  1.0000
  K   K3        1.0  0.6155226247597909  0.6007940667786684  0.6353523554525751  1.0000
  K   K4        1.0  0.8844966161403461  0.3992019228892828  0.1353504269600734  1.0000
  H   H1        1.0  0.2101882761480312  0.9075433962693396  0.0666918645649091  1.0000
  H   H2        1.0  0.2898197158574689  0.09245880216045779  0.5667047326281249  1.0000
  H   H3        1.0  0.7897960735173654  0.09245690349767699  0.9333052148863032  1.0000
  H   H4        1.0  0.7101757320190173  0.9075382357029151  0.4333020397253406  1.0000
  H   H5        1.0  0.4083949990369787  0.4731522204091404  0.1188446667716647  1.0000
  H   H6        1.0  0.0916156088360935  0.5268495180516055  0.6188428866104871  1.0000
  H   H7        1.0  0.5916021842318244  0.5268470060244395  0.8811532204131325  1.0000
  H   H8        1.0  0.9083843123448361  0.47314861959432597  0.3811558083125561  1.0000
  H   H9        1.0  0.4403392927525829  0.30773753691996564  0.1077545861769593  1.0000
  H   H10       1.0  0.05965892372712029  0.6922574908728832  0.6077491078015882  1.0000
  H   H11       1.0  0.5596518284056842  0.692259494286084  0.8922465319760633  1.0000
  H   H12       1.0  0.9403434422284603  0.30773737155474373  0.39224797162282954  1.0000
  C   C1        1.0  0.24481088415762994  0.7889425092148128  0.3173478956463924  1.0000
  C   C2        1.0  0.2551851298369741  0.21106378738883788  0.8173543282726995  1.0000
  C   C3        1.0  0.7551894767347065  0.21105890805029756  0.6826499915443236  1.0000
  C   C4        1.0  0.7448136422369769  0.7889365344946028  0.182649213117493  1.0000
  C   C5        1.0  0.2046212078900922  0.9066878234279018  0.2498024024227519  1.0000
  C   C6        1.0  0.2953883840737319  0.0933209581611223  0.7498128478663233  1.0000
  C   C7        1.0  0.7953808883822758  0.09331578247073218  0.7501971002609693  1.0000
  C   C8        1.0  0.7046223656435799  0.9066826610083393  0.2501906935294329  1.0000
  C   C9        1.0  0.21873012880739398  0.8542630574364265  0.1443505354262982  1.0000
  C   C10       1.0  0.28127235218777713  0.14574334825194057  0.6443597330162021  1.0000
  C   C11       1.0  0.7812618717746388  0.14574053300312065  0.8556481595188785  1.0000
  C   C12       1.0  0.7187238285423163  0.8542591556369102  0.3556446161257867  1.0000
  N   N1        1.0  0.260643989282535  0.7131651586909412  0.1539985314365495  1.0000
  N   N2        1.0  0.23935673375427774  0.2868391746958068  0.6540038757119646  1.0000
  N   N3        1.0  0.7393539268360954  0.2868395337875995  0.8460001635095863  1.0000
  N   N4        1.0  0.760634533974148  0.7131589497182631  0.3459972424446889  1.0000
  N   N5        1.0  0.27920519627105017  0.6719898094381448  0.2581924105783884  1.0000
  N   N6        1.0  0.22079890023655216  0.3280212508773772  0.7581972428626572  1.0000
  N   N7        1.0  0.7207999310556373  0.32801489407912493  0.7418062843644293  1.0000
  N   N8        1.0  0.7791998718383509  0.6719790710011891  0.241805490784337  1.0000
  N   N9        1.0  0.24351651274542963  0.7724929067559783  0.4317355868953427  1.0000
  N   N10       1.0  0.25647001725835844  0.22752131303616346  0.9317405140815254  1.0000
  N   N11       1.0  0.7564848506780563  0.2275052330928204  0.568262300283827  1.0000
  N   N12       1.0  0.7435242815215517  0.7724779090111513  0.0682622195638345  1.0000
  N   N13       1.0  0.1731205067648531  0.05330916103799409  0.2745786703879816  1.0000
  N   N14       1.0  0.3268854098925615  0.94669444879073  0.774575470658199  1.0000
  N   N15       1.0  0.826885623090149  0.94669226507758  0.7254224477728995  1.0000
  N   N16       1.0  0.6731249001161785  0.053305890744937294  0.22542645524026028  1.0000
  O   O1        1.0  0.2786383564186679  0.6218789169065532  0.07641932602729899  1.0000
  O   O2        1.0  0.2213593705740848  0.3781222900841783  0.5764188423723269  1.0000
  O   O3        1.0  0.7213549398329275  0.3781235825424573  0.9235809843999903  1.0000
  O   O4        1.0  0.7786225108586251  0.6218703550189701  0.4235782370541584  1.0000
  O   O5        1.0  0.34333005237973413  0.6790165811326857  0.4705270917210314  1.0000
  O   O6        1.0  0.1566746962666983  0.3209948555086086  0.9705295131213773  1.0000
  O   O7        1.0  0.656676077477158  0.32098484497314667  0.5294724109534386  1.0000
  O   O8        1.0  0.843319895658247  0.6790065529303888  0.0294691818152089  1.0000
  O   O9        1.0  0.14043379051354068  0.8472441704738571  0.48686436147185214  1.0000
  O   O10       1.0  0.3595569137157213  0.1527597909278882  0.9868791876353242  1.0000
  O   O11       1.0  0.8595599219942611  0.1527506786975508  0.5131311024701546  1.0000
  O   O12       1.0  0.6404398532912055  0.8472470858125121  0.013128392493996402  1.0000
  O   O13       1.0  0.20963412554529978  0.10157275088671008  0.3672301931181039  1.0000
  O   O14       1.0  0.2903520922564766  0.898426481564151  0.867239625024652  1.0000
  O   O15       1.0  0.7903743025123119  0.898424306812288  0.6327709250269393  1.0000
  O   O16       1.0  0.7096550401287302  0.1015716671399858  0.1327623008678813  1.0000
  O   O17       1.0  0.11318037229715117  0.12729173325733  0.1993013204723511  1.0000
  O   O18       1.0  0.3868216869436409  0.872713148682159  0.6993129116897948  1.0000
  O   O19       1.0  0.8868244618835632  0.8727107838731314  0.8007022209224387  1.0000
  O   O20       1.0  0.6131918006886321  0.1272893816850313  0.3006890142145835  1.0000
  O   O21       1.0  0.4806569145564125  0.3953966841499578  0.1500830308922829  1.0000
  O   O22       1.0  0.019349856298070674  0.6045988673597618  0.6500826516471889  1.0000
  O   O23       1.0  0.5193417109558921  0.6046025444816364  0.8499132408054351  1.0000
  O   O24       1.0  0.9806512139841601  0.39539708607787816  0.3499160432679389  1.0000
