data_image0
_chemical_formula_structural       Zn2H36C29N2O11
_chemical_formula_sum              "Zn2 H36 C29 N2 O11"
_cell_length_a       9.79374707624691
_cell_length_b       10.91302451471417
_cell_length_c       10.973826642626937
_cell_angle_alpha    80.39977950318796
_cell_angle_beta     86.8128157954694
_cell_angle_gamma    81.45085102277697

_space_group_name_H-M_alt    "P 1"
_space_group_IT_number       1

loop_
  _space_group_symop_operation_xyz
  'x, y, z'

loop_
  _atom_site_type_symbol
  _atom_site_label
  _atom_site_symmetry_multiplicity
  _atom_site_fract_x
  _atom_site_fract_y
  _atom_site_fract_z
  _atom_site_occupancy
  Zn  Zn1       1.0  0.644754712661218  0.48421270401102123  0.4994275074153122  1.0000
  Zn  Zn2       1.0  0.35617706734284843  0.5273791548782044  0.5009255223554092  1.0000
  H   H1        1.0  0.8282570208335686  0.6437556579707363  0.5467891086974817  1.0000
  H   H2        1.0  0.8616313728211226  0.9459278896266883  0.23457973272567756  1.0000
  H   H3        1.0  0.6433116467471294  0.8069650008698659  0.07084469489781497  1.0000
  H   H4        1.0  0.736444681898604  0.7128400764853141  0.19505318356431894  1.0000
  H   H5        1.0  0.8161923322670717  0.7387970179591647  0.04450541192728249  1.0000
  H   H6        1.0  0.7449881737754609  0.5231229782849027  0.09023586501823636  1.0000
  H   H7        1.0  0.6600259182770997  0.6166162923325589  0.9623365856093286  1.0000
  H   H8        1.0  0.804972238717724  0.24277741910002956  0.6319709923661562  1.0000
  H   H9        1.0  0.9711628337868277  0.15658383290326583  0.6059485480235195  1.0000
  H   H10       1.0  0.9538029704276454  0.2768065813292466  0.6997514318922667  1.0000
  H   H11       1.0  0.9057777240806502  0.3129560210472421  0.4205340874829345  1.0000
  H   H12       1.0  0.11574975844062861  0.537950772630353  0.40206375741731654  1.0000
  H   H13       1.0  0.051780330865497624  0.35110119458201433  0.48943995859773537  1.0000
  H   H14       1.0  0.8945992033605206  0.7149547979667263  0.738702621957728  1.0000
  H   H15       1.0  0.8782872978232632  0.5540551812690852  0.7867170696640713  1.0000
  H   H16       1.0  0.9840562170435803  0.6283129286565909  0.8686776535888611  1.0000
  H   H17       1.0  0.1392853456773082  0.49864184356390256  0.7392748064384803  1.0000
  H   H18       1.0  0.15063866133672124  0.6554092943104024  0.6844247779483296  1.0000
  H   H19       1.0  0.6471219121871883  0.04116551006516999  0.8023834217162856  1.0000
  H   H20       1.0  0.466046140727464  0.059003902170516674  0.8329657021056462  1.0000
  H   H21       1.0  0.5775842063200899  0.9474861524031298  0.9320710131308442  1.0000
  H   H22       1.0  0.46254814368384695  0.836756544730605  0.7913031853020697  1.0000
  H   H23       1.0  0.7174924106152432  0.05317035110545023  0.5655141513189433  1.0000
  H   H24       1.0  0.6417660200267364  0.8216733827773413  0.7580108174257276  1.0000
  H   H25       1.0  0.3262244479904767  0.9941925223079975  0.22019573964929856  1.0000
  H   H26       1.0  0.5062023979001324  0.9678827322334841  0.1783530264965165  1.0000
  H   H27       1.0  0.39593406002762077  0.09825156255613621  0.09579626868935519  1.0000
  H   H28       1.0  0.7555070831742015  0.27680676656484593  0.8526535363647836  1.0000
  H   H29       1.0  0.5864797009089315  0.2338090107944879  0.8860534013732106  1.0000
  H   H30       1.0  0.7017519013186942  0.2220968442494495  0.00979901813458639  1.0000
  H   H31       1.0  0.311584600593477  0.09100216094962833  0.6404296638547889  1.0000
  H   H32       1.0  0.27312906040742047  0.9570008024971983  0.4472893342200805  1.0000
  H   H33       1.0  0.3294371168035893  0.5941285594937897  0.8761034428475298  1.0000
  H   H34       1.0  0.3214279723100121  0.5648663227931648  0.11322246401616097  1.0000
  H   H35       1.0  0.8318293474249074  0.042803286948341734  0.35357682205371077  1.0000
  H   H36       1.0  0.7170765381725063  0.06947629760783511  0.22749172210198046  1.0000
  C   C1        1.0  0.5152324584932656  0.5662506391886312  0.2602479570940091  1.0000
  C   C2        1.0  0.04943831490009388  0.5650145530357592  0.5672588690893932  1.0000
  C   C3        1.0  0.4935803204357685  0.26984057388542476  0.48851247499511175  1.0000
  C   C4        1.0  0.5025707335885841  0.45950736773779977  0.7434603374149731  1.0000
  C   C5        1.0  0.4956030652979422  0.7422101538703388  0.5213181810011349  1.0000
  C   C6        1.0  0.6194854217082195  0.03059526163390559  0.5382720360564122  1.0000
  C   C7        1.0  0.5990061629782986  0.9587745044309061  0.4293826676040807  1.0000
  C   C8        1.0  0.49712154321663604  0.879478016190177  0.5123127844789508  1.0000
  C   C9        1.0  0.5202754586739644  0.9502556588024476  0.6234538152123648  1.0000
  C   C10       1.0  0.3934058105799423  0.05177587118713944  0.5800419189185104  1.0000
  C   C11       1.0  0.7822846072063996  0.9967256773878931  0.2891449021570551  1.0000
  C   C12       1.0  0.3714723374041639  0.9808815609301791  0.47194056677433577  1.0000
  C   C13       1.0  0.6678088340820311  0.6061276732874746  0.0630606218148557  1.0000
  C   C14       1.0  0.7190167434315242  0.7226559226695884  0.09591120931501958  1.0000
  C   C15       1.0  0.9410393678781405  0.3440524096701055  0.5022665007785604  1.0000
  C   C16       1.0  0.9155282186405673  0.2492324188594068  0.617457819884784  1.0000
  C   C17       1.0  0.07795476967955041  0.5861338422543413  0.6949234101472326  1.0000
  C   C18       1.0  0.9512889447093758  0.6228798538132027  0.7759099225136553  1.0000
  C   C19       1.0  0.5469377204561638  0.8906158897892524  0.7548140458067961  1.0000
  C   C20       1.0  0.560179054371666  0.9897939957728141  0.8353484777417323  1.0000
  C   C21       1.0  0.41679566855275146  0.040746651535798206  0.18638696710932828  1.0000
  C   C22       1.0  0.6686295322086123  0.27634426444775073  0.9202581589983225  1.0000
  C   C23       1.0  0.47009072929905227  0.06186905220518919  0.38594291581333806  1.0000
  C   C24       1.0  0.49385296225595  0.1319954443335547  0.4966426396157145  1.0000
  C   C25       1.0  0.4168017162881625  0.5488415839190993  0.9325274980806739  1.0000
  C   C26       1.0  0.509842922350316  0.4671210577585184  0.8786526082479182  1.0000
  C   C27       1.0  0.41902477323075965  0.5677907634048296  0.05971500942024476  1.0000
  C   C28       1.0  0.5297767902801382  0.58233790430468  0.12224563490244118  1.0000
  C   C29       1.0  0.9040601720326721  0.560194129515054  0.538912999131334  1.0000
  N   N1        1.0  0.8568666049350214  0.46554932532097837  0.5105598754618157  1.0000
  N   N2        1.0  0.1473956485632613  0.5517302158623779  0.4855985044248995  1.0000
  O   O1        1.0  0.6288629822216052  0.5479919634820974  0.31724777464453513  1.0000
  O   O2        1.0  0.4439223721433764  0.12457097161855302  0.2673533330130197  1.0000
  O   O3        1.0  0.6194535724088227  0.401383407738365  0.943118323333742  1.0000
  O   O4        1.0  0.3956521840376013  0.5657461179838351  0.31252270570288226  1.0000
  O   O5        1.0  0.6110283659859732  0.3084280432823191  0.4749037109585074  1.0000
  O   O6        1.0  0.376783352158057  0.3373636580759579  0.4977429072756578  1.0000
  O   O7        1.0  0.6181767142658359  0.43081400027802624  0.6886348986823307  1.0000
  O   O8        1.0  0.3853522655235864  0.4864895412357415  0.6940692670926224  1.0000
  O   O9        1.0  0.6103170398371348  0.6697792473536169  0.5355413213242741  1.0000
  O   O10       1.0  0.3779977006500417  0.7078149318104678  0.5140503797620397  1.0000
  O   O11       1.0  0.7024738737833758  0.9051560708578349  0.3552723960579911  1.0000
