data_image0
_chemical_formula_structural       Cd4H20C20N8O20
_chemical_formula_sum              "Cd4 H20 C20 N8 O20"
_cell_length_a       6.968652554070732
_cell_length_b       9.911178112198003
_cell_length_c       11.117982392599707
_cell_angle_alpha    96.47423042170348
_cell_angle_beta     89.99949258034381
_cell_angle_gamma    89.9999864000884

_space_group_name_H-M_alt    "P 1"
_space_group_IT_number       1

loop_
  _space_group_symop_operation_xyz
  'x, y, z'

loop_
  _atom_site_type_symbol
  _atom_site_label
  _atom_site_symmetry_multiplicity
  _atom_site_fract_x
  _atom_site_fract_y
  _atom_site_fract_z
  _atom_site_occupancy
  Cd  Cd1       1.0  0.1723523262557265  0.5327975012959029  0.32338733064486286  1.0000
  Cd  Cd2       1.0  0.672340888217846  0.9671947901738209  0.1766151859202623  1.0000
  Cd  Cd3       1.0  0.8276530186301725  0.4672033222829696  0.6766197577675257  1.0000
  Cd  Cd4       1.0  0.32764723677446744  0.0327970374836681  0.8233810021123135  1.0000
  H   H1        1.0  0.8742754444785277  0.33953935836581917  0.3630191123411564  1.0000
  H   H2        1.0  0.3742650492734966  0.16046789165105932  0.13697950724205296  1.0000
  H   H3        1.0  0.12573133546624146  0.6604697303220775  0.6369790054221481  1.0000
  H   H4        1.0  0.6257316856632825  0.8395340248874491  0.8630223062868367  1.0000
  H   H5        1.0  0.9655220604321285  0.25458474356589283  0.24327346355083526  1.0000
  H   H6        1.0  0.46553004375245166  0.2454133158552949  0.256721819637157  1.0000
  H   H7        1.0  0.03447610952215291  0.7454161964171818  0.7567255422449575  1.0000
  H   H8        1.0  0.5344709961633639  0.7545834851049876  0.7432821205083755  1.0000
  H   H9        1.0  0.7135938901365648  0.10343554448903096  0.6548460949599004  1.0000
  H   H10       1.0  0.2135847897331331  0.39656289532521793  0.8451541880191229  1.0000
  H   H11       1.0  0.2864014098690788  0.8965756654483955  0.345145963373973  1.0000
  H   H12       1.0  0.7864062051852797  0.6034287900629992  0.1548518787838304  1.0000
  H   H13       1.0  0.8536109839756633  0.8529342069298382  0.623952154363586  1.0000
  H   H14       1.0  0.35360298406150287  0.6470622582886989  0.8760461696496975  1.0000
  H   H15       1.0  0.14639292597413342  0.14708098682395132  0.37604574643724215  1.0000
  H   H16       1.0  0.6463894458942859  0.35292747398924734  0.123954281691141  1.0000
  H   H17       1.0  0.6288586365021446  0.1831879399528873  0.45888241940479435  1.0000
  H   H18       1.0  0.1288566979545891  0.3168063467920917  0.0411143229907225  1.0000
  H   H19       1.0  0.37114383853443655  0.8168182708062091  0.5411036829005837  1.0000
  H   H20       1.0  0.8711457769542574  0.683182305459056  0.9588905051587631  1.0000
  C   C1        1.0  0.8576423816491496  0.7542769392248873  0.3520803995024337  1.0000
  C   C2        1.0  0.3576361045187895  0.7457192676823399  0.1479206200473087  1.0000
  C   C3        1.0  0.14236009327820653  0.24572497731116272  0.6479214140101489  1.0000
  C   C4        1.0  0.6423577604475452  0.25427659552656934  0.8520778181772639  1.0000
  C   C5        1.0  0.7959527054121409  0.8773318971753667  0.4289014329065708  1.0000
  C   C6        1.0  0.29594755328155026  0.6226613165741028  0.0710995966701091  1.0000
  C   C7        1.0  0.20405407453792176  0.12267821980119459  0.5710959003026446  1.0000
  C   C8        1.0  0.7040491816430077  0.37732734861296546  0.92890433342491  1.0000
  C   C9        1.0  0.8043164304044836  0.9108511600471872  0.5530266896368445  1.0000
  C   C10       1.0  0.30430889445857895  0.5891443191601058  0.9469726990683751  1.0000
  C   C11       1.0  0.19568747956517288  0.08916305715177231  0.4469684034349654  1.0000
  C   C12       1.0  0.69568497046739  0.4108412870291362  0.05303178855550072  1.0000
  C   C13       1.0  0.6859557223741317  0.08310446513058882  0.4667518901012002  1.0000
  C   C14       1.0  0.18595098462628806  0.4168907621343936  0.03324643747983911  1.0000
  C   C15       1.0  0.3140496226421732  0.9169047658259618  0.533236348887648  1.0000
  C   C16       1.0  0.8140514902825586  0.5830978901167543  0.9667583906696463  1.0000
  C   C17       1.0  0.5444434488931762  0.443208854570571  0.45387389700761094  1.0000
  C   C18       1.0  0.04442719268246981  0.05679662175284511  0.0461281661237507  1.0000
  C   C19       1.0  0.45557050599447285  0.5567950538705803  0.5461308377180599  1.0000
  C   C20       1.0  0.9555594972694835  0.9432002050805083  0.953873977921006  1.0000
  N   N1        1.0  0.7216904842120401  0.9867108413221146  0.3770252443306958  1.0000
  N   N2        1.0  0.22169325828097186  0.5132824619820725  0.12297441111143569  1.0000
  N   N3        1.0  0.2783148607685177  0.013296281323285105  0.6229681560494241  1.0000
  N   N4        1.0  0.7783120866304498  0.48670518784609834  0.8770294054424282  1.0000
  N   N5        1.0  0.7347793383515293  0.0404229169370751  0.5741245080273458  1.0000
  N   N6        1.0  0.23477195195912506  0.4595744764180196  0.9258764391047619  1.0000
  N   N7        1.0  0.2652245716128334  0.9595902719732335  0.42587136959854627  1.0000
  N   N8        1.0  0.7652247829717211  0.5404142017025039  0.07412659291948391  1.0000
  O   O1        1.0  0.9281477682749539  0.6578711897731255  0.4051245532152095  1.0000
  O   O2        1.0  0.42813789145153436  0.8421249954668752  0.09487337145286288  1.0000
  O   O3        1.0  0.0718633166283098  0.34214088031124135  0.5948783954398066  1.0000
  O   O4        1.0  0.5718559735333457  0.1578648014777499  0.9051225895300163  1.0000
  O   O5        1.0  0.9786762532193902  0.33627467899861346  0.30243568171284346  1.0000
  O   O6        1.0  0.4786693127715936  0.1637253351903567  0.1975642441500085  1.0000
  O   O7        1.0  0.0213305267197654  0.6637272763359692  0.6975634375751767  1.0000
  O   O8        1.0  0.5213331621809232  0.836276633079521  0.8024339770794667  1.0000
  O   O9        1.0  0.8381358246279405  0.7535717239541243  0.2377818753146528  1.0000
  O   O10       1.0  0.33812794559970877  0.7464255538392167  0.2622166743990633  1.0000
  O   O11       1.0  0.1618537353401592  0.24642311096797442  0.7622173474762377  1.0000
  O   O12       1.0  0.661857309345322  0.25357430612689313  0.7377867082706188  1.0000
  O   O13       1.0  0.44985338374240763  0.40455006289379725  0.3586811294332719  1.0000
  O   O14       1.0  0.9498339768903179  0.09545302208613292  0.1413193008144091  1.0000
  O   O15       1.0  0.5501533961189651  0.5954476628850216  0.641329210708072  1.0000
  O   O16       1.0  0.050154148057288184  0.9045458354570076  0.8586830702596586  1.0000
  O   O17       1.0  0.7056666905600864  0.3957305340045637  0.48071320000192935  1.0000
  O   O18       1.0  0.2056450517279771  0.10427580646933882  0.019288958506329796  1.0000
  O   O19       1.0  0.2943530043353347  0.6042815490095637  0.5192888505578493  1.0000
  O   O20       1.0  0.7943445082139674  0.8957199920741276  0.9807139700843592  1.0000
