data_image0
_chemical_formula_structural       Cu6H30C48N6O42
_chemical_formula_sum              "Cu6 H30 C48 N6 O42"
_cell_length_a       5.902011742556113
_cell_length_b       18.889964513310176
_cell_length_c       18.885692224605055
_cell_angle_alpha    119.96719041801896
_cell_angle_beta     89.96601167752748
_cell_angle_gamma    90.02101840863547

_space_group_name_H-M_alt    "P 1"
_space_group_IT_number       1

loop_
  _space_group_symop_operation_xyz
  'x, y, z'

loop_
  _atom_site_type_symbol
  _atom_site_label
  _atom_site_symmetry_multiplicity
  _atom_site_fract_x
  _atom_site_fract_y
  _atom_site_fract_z
  _atom_site_occupancy
  Cu  Cu1       1.0  0.8213562444077029  0.5213935948542526  0.4781537810740844  1.0000
  Cu  Cu2       1.0  0.8212365119871948  0.9568166436968255  0.4786846782331226  1.0000
  Cu  Cu3       1.0  0.8214005508018758  0.5217883804962682  0.0432202794288089  1.0000
  Cu  Cu4       1.0  0.17873529572297295  0.47867976101981907  0.9567158881019041  1.0000
  Cu  Cu5       1.0  0.1785453612466839  0.4781186077445482  0.5213139793822849  1.0000
  Cu  Cu6       1.0  0.17856940040165634  0.043169269475299483  0.5217829885429666  1.0000
  H   H1        1.0  0.6746085230713206  0.6333802256703576  0.44738268903930845  1.0000
  H   H2        1.0  0.6752470441237222  0.8141938234227267  0.3666569350110082  1.0000
  H   H3        1.0  0.674552219442262  0.5525167183954806  0.18594896684285103  1.0000
  H   H4        1.0  0.3239578092361413  0.3668061757240649  0.8142923313636459  1.0000
  H   H5        1.0  0.32227348599958827  0.44751451829556976  0.6332842500397433  1.0000
  H   H6        1.0  0.3230759035096114  0.18587849917660992  0.5525427625662331  1.0000
  H   H7        1.0  0.3510706253845228  0.36521607993083177  0.5539653073164034  1.0000
  H   H8        1.0  0.34982476602035467  0.18838491162315307  0.6347160031612233  1.0000
  H   H9        1.0  0.3518897697855366  0.44625703255270815  0.8114246085412092  1.0000
  H   H10       1.0  0.6507438279616835  0.6345735640537241  0.18805228218194264  1.0000
  H   H11       1.0  0.6517463994746678  0.5534199119785794  0.3653393718962334  1.0000
  H   H12       1.0  0.6512313143898326  0.8117691713692139  0.44645959488104153  1.0000
  H   H13       1.0  0.4485313351671607  0.29573507740978044  0.3635769221613573  1.0000
  H   H14       1.0  0.4486226477215709  0.06788768143000821  0.7044820246981658  1.0000
  H   H15       1.0  0.4484229590210306  0.6365424028809626  0.9322363724129019  1.0000
  H   H16       1.0  0.5513392337746693  0.7044016656177446  0.06777791767991206  1.0000
  H   H17       1.0  0.5513520920236914  0.36336683988638896  0.29554434179824096  1.0000
  H   H18       1.0  0.5511885381409343  0.9321865004455601  0.6365686975304286  1.0000
  H   H19       1.0  0.5509749421773266  0.7041388490138232  0.6366008003260292  1.0000
  H   H20       1.0  0.5507876225574933  0.9324719106259635  0.29566587686581175  1.0000
  H   H21       1.0  0.5510839543899237  0.36321800535624493  0.06736899946152877  1.0000
  H   H22       1.0  0.4493090034637177  0.2957074243374365  0.932611048153433  1.0000
  H   H23       1.0  0.4492038107336215  0.6368390678224926  0.7042811338229457  1.0000
  H   H24       1.0  0.449175343264308  0.06751596744927466  0.3632652242177272  1.0000
  H   H25       1.0  0.986149734543993  0.24191680423163572  0.48388336164578755  1.0000
  H   H26       1.0  0.9865937098618502  0.24192776753430664  0.7581573348578204  1.0000
  H   H27       1.0  0.9863276077460911  0.5163054786537911  0.7581135308102631  1.0000
  H   H28       1.0  0.013399181776641502  0.7581506393332516  0.24193301881921073  1.0000
  H   H29       1.0  0.013795968745355902  0.4837261391746494  0.24177202145811094  1.0000
  H   H30       1.0  0.013807517003627399  0.7579928328840422  0.516112584441288  1.0000
  C   C1        1.0  0.8391451320516339  0.35815985915585447  0.45229060859321635  1.0000
  C   C2        1.0  0.8393892699457057  0.09411181804114929  0.6419569249990431  1.0000
  C   C3        1.0  0.8392039976102766  0.5478614001746747  0.9059500602760764  1.0000
  C   C4        1.0  0.1605624990365371  0.6419374018713808  0.0940708296840144  1.0000
  C   C5        1.0  0.160777206297837  0.4521125038334474  0.35802676257215893  1.0000
  C   C6        1.0  0.16066849231768293  0.905910625352554  0.5478242959798224  1.0000
  C   C7        1.0  0.16124928863422383  0.6415502558009151  0.5475185764412559  1.0000
  C   C8        1.0  0.1609524388314654  0.9060047392574686  0.35832776394269683  1.0000
  C   C9        1.0  0.1612620420629725  0.45230577060493715  0.0938911340939868  1.0000
  C   C10       1.0  0.8390815462182459  0.3583375081292175  0.9060402461878924  1.0000
  C   C11       1.0  0.8388499904797586  0.5477179308185426  0.6416472100505218  1.0000
  C   C12       1.0  0.8387954412862229  0.09398733703854845  0.45236213135427766  1.0000
  C   C13       1.0  0.5307293038057566  0.25485362436228337  0.38055086165399393  1.0000
  C   C14       1.0  0.5309340073340323  0.12570897807079712  0.7453369235861729  1.0000
  C   C15       1.0  0.5307362791818308  0.6196042294660555  0.874390763436111  1.0000
  C   C16       1.0  0.4690520389448096  0.7452584959746814  0.1256272921119859  1.0000
  C   C17       1.0  0.4691699258177168  0.3803507504242631  0.25466702439192096  1.0000
  C   C18       1.0  0.46906065388120066  0.8743079828396457  0.619541373611348  1.0000
  C   C19       1.0  0.46891426199088215  0.7450059934536808  0.6195796158464263  1.0000
  C   C20       1.0  0.4687066218980789  0.8745999639930061  0.25482274149509726  1.0000
  C   C21       1.0  0.4689485480094789  0.3802182169629233  0.12525936619613992  1.0000
  C   C22       1.0  0.5313946448954213  0.25486542329149825  0.8747190749270715  1.0000
  C   C23       1.0  0.5312351459480026  0.6198204868920667  0.7451562466745615  1.0000
  C   C24       1.0  0.5311744409944836  0.1254252826672654  0.38033059048581214  1.0000
  C   C25       1.0  0.436947459390872  0.1787575048392611  0.3576987220358562  1.0000
  C   C26       1.0  0.4370722503635705  0.1789320979623668  0.8214227807061719  1.0000
  C   C27       1.0  0.4369368510260331  0.642440763510116  0.8211314340697343  1.0000
  C   C28       1.0  0.5629815634616406  0.8213045382350755  0.17885343581806992  1.0000
  C   C29       1.0  0.5631004993395123  0.35755491257353356  0.17858517617519712  1.0000
  C   C30       1.0  0.5629977739104177  0.8210181737838409  0.6423059124758552  1.0000
  C   C31       1.0  0.7308705755251523  0.27726420941492336  0.42627553046314404  1.0000
  C   C32       1.0  0.7312226730890928  0.14897983717943222  0.7228830416624846  1.0000
  C   C33       1.0  0.7309761468651457  0.573918328871045  0.851093647067323  1.0000
  C   C34       1.0  0.26876994466864806  0.7228374794701223  0.14893531290842094  1.0000
  C   C35       1.0  0.2689905434134445  0.4260662744936353  0.27709734691003973  1.0000
  C   C36       1.0  0.2689268899452912  0.8510113653556954  0.5738136502631762  1.0000
  C   C37       1.0  0.269003495130498  0.7225414617616933  0.5737541295944341  1.0000
  C   C38       1.0  0.2686719696882491  0.8512524333199565  0.27731678000811416  1.0000
  C   C39       1.0  0.2689781325632766  0.4260342440743443  0.14862394801284048  1.0000
  C   C40       1.0  0.7314007211629772  0.2773349776175704  0.8513312438352046  1.0000
  C   C41       1.0  0.7311874355704688  0.574001950548066  0.7226799987303993  1.0000
  C   C42       1.0  0.7310776964925411  0.14877379546525293  0.42616013868903485  1.0000
  C   C43       1.0  0.8305253831018221  0.22409766969954595  0.4483940251436422  1.0000
  C   C44       1.0  0.8309274719169367  0.2242434331430943  0.776009517256803  1.0000
  C   C45       1.0  0.8306722573646965  0.5518001013481991  0.7757904224311647  1.0000
  C   C46       1.0  0.16908739172786372  0.7759681707229475  0.22423136002131377  1.0000
  C   C47       1.0  0.16941761539803218  0.4482220015250887  0.22394948422582667  1.0000
  C   C48       1.0  0.1694232471412747  0.7756808259685853  0.5516067018751941  1.0000
  N   N1        1.0  0.22725622679654126  0.15383429315740924  0.3078631636589506  1.0000
  N   N2        1.0  0.22724614664056736  0.15404019073915975  0.8463796038391749  1.0000
  N   N3        1.0  0.2271466823304351  0.6922319292159287  0.8460179362585125  1.0000
  N   N4        1.0  0.7728466013199122  0.8462102399258739  0.15393478939027025  1.0000
  N   N5        1.0  0.772858501622743  0.3077425127290353  0.15366162661591432  1.0000
  N   N6        1.0  0.7726821974322534  0.8459173201224741  0.6921455609698343  1.0000
  O   O1        1.0  0.7238914412846854  0.40890412790435693  0.4415491686454304  1.0000
  O   O2        1.0  0.7239746248102249  0.03267968169581792  0.5912389428956075  1.0000
  O   O3        1.0  0.7239105823302197  0.5585472337803734  0.9674435397272988  1.0000
  O   O4        1.0  0.2758630391507424  0.5912382757443311  0.03257140972851161  1.0000
  O   O5        1.0  0.2759774087418947  0.4413545256939669  0.40876763976976355  1.0000
  O   O6        1.0  0.27597705509106873  0.9673840105662844  0.5585269700331851  1.0000
  O   O7        1.0  0.27434150391596296  0.5912458866717998  0.5595218162726354  1.0000
  O   O8        1.0  0.2741490276638459  0.9682835364725477  0.4085932200757585  1.0000
  O   O9        1.0  0.27436607072922925  0.44033201149365897  0.03156592873046555  1.0000
  O   O10       1.0  0.7260074497578729  0.4085888748429055  0.9683838515967979  1.0000
  O   O11       1.0  0.7257905230654913  0.5597457743675848  0.59135858922069  1.0000
  O   O12       1.0  0.7256327106321339  0.03168678474313676  0.4403760091559761  1.0000
  O   O13       1.0  0.03707776729998361  0.36958942903237346  0.48349963419819636  1.0000
  O   O14       1.0  0.037404648664811205  0.11382781081286455  0.630434413946965  1.0000
  O   O15       1.0  0.0371357864858908  0.5166450151953157  0.8861279695420168  1.0000
  O   O16       1.0  0.9626332069584294  0.6304326391862388  0.11386849951522052  1.0000
  O   O17       1.0  0.9628921259126388  0.48339135384581766  0.3695211684170801  1.0000
  O   O18       1.0  0.9626792984635061  0.8861712923185433  0.5166446500687984  1.0000
  O   O19       1.0  0.9650088504231962  0.6294832230822036  0.514845275014146  1.0000
  O   O20       1.0  0.9646550398819117  0.8854439259125612  0.3704902733974649  1.0000
  O   O21       1.0  0.9650352704665367  0.4850182187995315  0.11455713103150347  1.0000
  O   O22       1.0  0.035247208165095904  0.37049701780829014  0.8853733598738955  1.0000
  O   O23       1.0  0.0350264187292595  0.5149451490425321  0.6294960290652654  1.0000
  O   O24       1.0  0.0350909247591815  0.11454531702590022  0.48501881205734787  1.0000
  O   O25       1.0  0.5719393765796924  0.5875092191914459  0.4166003591700262  1.0000
  O   O26       1.0  0.5718106656140236  0.8289276100403881  0.41229549543518124  1.0000
  O   O27       1.0  0.5715799340288683  0.5831866453307271  0.17081454608285182  1.0000
  O   O28       1.0  0.4285535139988568  0.4121703895476258  0.8292748289369102  1.0000
  O   O29       1.0  0.4279740245252412  0.4170224812583711  0.5883213820032935  1.0000
  O   O30       1.0  0.4279801537440804  0.17132512090403648  0.5831707624576694  1.0000
  O   O31       1.0  0.14571996016596242  0.2026153535167197  0.2890471089602827  1.0000
  O   O32       1.0  0.1455666476621431  0.08649231108226015  0.7976190617135543  1.0000
  O   O33       1.0  0.14550189144001993  0.7110484636788215  0.9136166658053783  1.0000
  O   O34       1.0  0.8543841709196086  0.7974778285263682  0.086327283169169  1.0000
  O   O35       1.0  0.8543572020258737  0.2889179563654025  0.2024435291758309  1.0000
  O   O36       1.0  0.8541930663388443  0.9135224949455604  0.7110033375132192  1.0000
  O   O37       1.0  0.8541625586535205  0.7970993916832608  0.7109254655231894  1.0000
  O   O38       1.0  0.8544735295788968  0.9137582648250555  0.20273028160042372  1.0000
  O   O39       1.0  0.854411835179782  0.2889486922901908  0.08605380018449447  1.0000
  O   O40       1.0  0.1458170173880546  0.20279577945967725  0.9140041109812814  1.0000
  O   O41       1.0  0.1456937365289832  0.7110171908071263  0.797198070025715  1.0000
  O   O42       1.0  0.1457893615825299  0.08623099784522034  0.2890438941607131  1.0000
