data_image0
_chemical_formula_structural       Mn2Cu2H32C14N4O22
_chemical_formula_sum              "Mn2 Cu2 H32 C14 N4 O22"
_cell_length_a       7.460599632375243
_cell_length_b       8.594084793691831
_cell_length_c       12.934048296440878
_cell_angle_alpha    70.20672228989712
_cell_angle_beta     85.76641828968116
_cell_angle_gamma    69.02634435752742

_space_group_name_H-M_alt    "P 1"
_space_group_IT_number       1

loop_
  _space_group_symop_operation_xyz
  'x, y, z'

loop_
  _atom_site_type_symbol
  _atom_site_label
  _atom_site_symmetry_multiplicity
  _atom_site_fract_x
  _atom_site_fract_y
  _atom_site_fract_z
  _atom_site_occupancy
  Mn  Mn1       1.0  0.3595731596281836  0.24779592041285536  0.620112814507948  1.0000
  Mn  Mn2       1.0  0.640530324717723  0.7522718398952364  0.37995767703571204  1.0000
  Cu  Cu1       1.0  0.8775708238969171  0.22220143589592573  0.1212580113174795  1.0000
  Cu  Cu2       1.0  0.12252697051441429  0.7778119507687791  0.8786413987619142  1.0000
  H   H1        1.0  0.5823794692366204  0.18760574447072997  0.2508773272030567  1.0000
  H   H2        1.0  0.4175920789956748  0.8125291797822031  0.7489687915924251  1.0000
  H   H3        1.0  0.49164198363484957  0.3923136493702445  0.18568835702078695  1.0000
  H   H4        1.0  0.5082970743159194  0.6078380951079224  0.8142489376562168  1.0000
  H   H5        1.0  0.9805286847269983  0.9249303201238561  0.2765335517519177  1.0000
  H   H6        1.0  0.019405054118088592  0.075266293338565  0.7232945610618344  1.0000
  H   H7        1.0  0.16412982323204509  0.982969975590315  0.2283716718614458  1.0000
  H   H8        1.0  0.835883948432581  0.017255368928182694  0.7715727647595118  1.0000
  H   H9        1.0  0.8202121660844739  0.5329648748057494  0.10776134325669062  1.0000
  H   H10       1.0  0.1797246687766147  0.4668846910372437  0.8923354276697567  1.0000
  H   H11       1.0  0.05379552902984841  0.4383810133269677  0.1085664995283935  1.0000
  H   H12       1.0  0.9461421682436111  0.5615220817747542  0.8914435211823247  1.0000
  H   H13       1.0  0.13544891000111656  0.9577065106848578  0.4161719149884604  1.0000
  H   H14       1.0  0.8641524365377008  0.0421945467434881  0.5836928906921557  1.0000
  H   H15       1.0  0.8923881181471953  0.1037642980728677  0.38622753029048335  1.0000
  H   H16       1.0  0.10723287501920704  0.8963352785214269  0.6135854235212507  1.0000
  H   H17       1.0  0.23656357616054172  0.21025679256017338  0.288082223733511  1.0000
  H   H18       1.0  0.7633666332869069  0.7895379320914274  0.7120392447641565  1.0000
  H   H19       1.0  0.13024928996820506  0.2414026037249783  0.40893741250641114  1.0000
  H   H20       1.0  0.8695011805663313  0.7584682565242106  0.5911608916225362  1.0000
  H   H21       1.0  0.8090499034464498  0.4215551957674536  0.2975493016289903  1.0000
  H   H22       1.0  0.19095120221782483  0.5785204688836103  0.7024607865420265  1.0000
  H   H23       1.0  0.9894323332846748  0.5180825974653871  0.265730157274028  1.0000
  H   H24       1.0  0.010842926043878267  0.4817614564700747  0.7341701790567754  1.0000
  H   H25       1.0  0.6628602246581605  0.36099856817136106  0.591835543864846  1.0000
  H   H26       1.0  0.337188392710665  0.6390485657735141  0.40822611474764875  1.0000
  H   H27       1.0  0.6123677031679334  0.3302265424729285  0.718641967650818  1.0000
  H   H28       1.0  0.38750295844683075  0.669767153277249  0.28136247358005306  1.0000
  H   H29       1.0  0.47038419591178376  0.1356211779041558  0.841443078138731  1.0000
  H   H30       1.0  0.5295894948960437  0.8642556104439976  0.15853889736715845  1.0000
  H   H31       1.0  0.27300332385376436  0.1055939378235138  0.846103585491811  1.0000
  H   H32       1.0  0.7269180067758395  0.8943040671406024  0.15402206028137047  1.0000
  C   C1        1.0  0.7461568589169971  0.1154156861426614  0.9700426374727018  1.0000
  C   C2        1.0  0.25404081788211363  0.8845859534004249  0.030004791128028774  1.0000
  C   C3        1.0  0.7297289407805606  0.311006164568397  0.9120068532438809  1.0000
  C   C4        1.0  0.2701462744390424  0.6890825706200802  0.08804325868752734  1.0000
  C   C5        1.0  0.03650528810951671  0.0744862461938993  0.3537480827539525  1.0000
  C   C6        1.0  0.9632155500586775  0.9255807344483459  0.6461752247261147  1.0000
  C   C7        1.0  0.10011673478214081  0.2321390093802052  0.3298519703314896  1.0000
  C   C8        1.0  0.8997852101061453  0.7677453294119585  0.6702197869589173  1.0000
  C   C9        1.0  0.9508118850458582  0.4074194512386385  0.2630046167935163  1.0000
  C   C10       1.0  0.04921692447790345  0.5924876196996537  0.7369993929572728  1.0000
  C   C11       1.0  0.5300674419910861  0.0684792277878756  0.4530466913078541  1.0000
  C   C12       1.0  0.46990652300404884  0.9317305989863132  0.5467764377151312  1.0000
  C   C13       1.0  0.9513886667914941  0.4327329630162779  0.5309007528793046  1.0000
  C   C14       1.0  0.04873080870923733  0.5671623044360601  0.46926332295662126  1.0000
  N   N1        1.0  0.027656245791483496  0.0299032664358307  0.2541282036153092  1.0000
  N   N2        1.0  0.9722937492483154  0.9702786958298049  0.7457535886731891  1.0000
  N   N3        1.0  0.9332784564463026  0.42046065464951  0.14695886951390946  1.0000
  N   N4        1.0  0.06670010586456952  0.5793929533014291  0.8530700339265921  1.0000
  O   O1        1.0  0.8252097842770283  0.044332037172814906  0.06835073123015431  1.0000
  O   O2        1.0  0.17503439705937757  0.955876554093031  0.9316941880530151  1.0000
  O   O3        1.0  0.6854576491872347  0.0394702147705743  0.9214231210309621  1.0000
  O   O4        1.0  0.3150843187037251  0.9602249200240822  0.07871195236758406  1.0000
  O   O5        1.0  0.7996901411205144  0.3780802240121446  0.966097825655453  1.0000
  O   O6        1.0  0.20036220682496267  0.6219185942818584  0.03396100277746682  1.0000
  O   O7        1.0  0.6487191247707286  0.3947872733221375  0.8173714742328428  1.0000
  O   O8        1.0  0.35090020155198687  0.6054254580060386  0.18275230325539846  1.0000
  O   O9        1.0  0.5755528134250836  0.2784267866398978  0.1779456699733757  1.0000
  O   O10       1.0  0.42456621475008655  0.7218134944498259  0.8219810256124448  1.0000
  O   O11       1.0  0.505685388836234  0.21472907137412986  0.4634426578950582  1.0000
  O   O12       1.0  0.49434002904360586  0.7854522263987038  0.5364256689072988  1.0000
  O   O13       1.0  0.6002858788891032  0.019599027678644604  0.37108926749291266  1.0000
  O   O14       1.0  0.3996907837606328  0.980626906017342  0.6287284322611627  1.0000
  O   O15       1.0  0.051503177742418395  0.29518533119465923  0.606495441318259  1.0000
  O   O16       1.0  0.9487197527585916  0.7047035104009823  0.3936613717485428  1.0000
  O   O17       1.0  0.7785566821330999  0.4721892701283679  0.5000202524648856  1.0000
  O   O18       1.0  0.221573059283152  0.52768526864714  0.5001690474238671  1.0000
  O   O19       1.0  0.6004387077664433  0.2954874898024897  0.6536326472467948  1.0000
  O   O20       1.0  0.3998906430224878  0.7042124113714932  0.346451836212701  1.0000
  O   O21       1.0  0.3445938119833655  0.18036001771073984  0.7999019589929619  1.0000
  O   O22       1.0  0.655439996195298  0.8194003336994201  0.20008034845400857  1.0000
