data_image0
_chemical_formula_structural       CuH10C10N6O6
_chemical_formula_sum              "Cu1 H10 C10 N6 O6"
_cell_length_a       5.843552855552073
_cell_length_b       7.567197427932361
_cell_length_c       8.868494788515616
_cell_angle_alpha    82.65501329695816
_cell_angle_beta     80.83957983034723
_cell_angle_gamma    69.07874557339275

_space_group_name_H-M_alt    "P 1"
_space_group_IT_number       1

loop_
  _space_group_symop_operation_xyz
  'x, y, z'

loop_
  _atom_site_type_symbol
  _atom_site_label
  _atom_site_symmetry_multiplicity
  _atom_site_fract_x
  _atom_site_fract_y
  _atom_site_fract_z
  _atom_site_occupancy
  Cu  Cu1       1.0  0.49999556125021644  0.5000017211263668  0.4999982165680735  1.0000
  H   H1        1.0  0.17046722932012415  0.5157162686149661  0.2956747384725418  1.0000
  H   H2        1.0  0.8295206099897217  0.48430988812710746  0.7043196439656398  1.0000
  H   H3        1.0  0.41032697970180726  0.40115025448098157  0.15480543097682187  1.0000
  H   H4        1.0  0.5896491673987044  0.598863114815522  0.8451934836354055  1.0000
  H   H5        1.0  0.14459509069373414  0.5883625757969783  0.09642099016021181  1.0000
  H   H6        1.0  0.8553894088538174  0.4116635645267976  0.9035714140121557  1.0000
  H   H7        1.0  0.7347785569396876  0.025035703123499804  0.187354394339053  1.0000
  H   H8        1.0  0.2652442737744422  0.9749507666066465  0.812644533401972  1.0000
  H   H9        1.0  0.7170476695290452  0.7884640726149498  0.41167741556030524  1.0000
  H   H10       1.0  0.28295824454819746  0.2115294589249501  0.5883199343878971  1.0000
  C   C1        1.0  0.39451858744019574  0.679617249545302  0.1873693302813351  1.0000
  C   C2        1.0  0.6054814302189016  0.32040467778444537  0.8126267326869366  1.0000
  C   C3        1.0  0.27102785758018655  0.5388173778030775  0.1839277167761608  1.0000
  C   C4        1.0  0.7289565483520661  0.46118042920183205  0.8160811311808587  1.0000
  C   C5        1.0  0.5075941314475189  0.9296334076543785  0.06703043028201715  1.0000
  C   C6        1.0  0.4924146672130832  0.07035729960990268  0.9329692260841539  1.0000
  C   C7        1.0  0.6362290961623175  0.9274938740088958  0.18743354311525448  1.0000
  C   C8        1.0  0.36377985333287916  0.07250818782191  0.8125638115094062  1.0000
  C   C9        1.0  0.6274130948977188  0.7966663279092359  0.3107548519111559  1.0000
  C   C10       1.0  0.3725945843373425  0.2033200788258611  0.689237439159136  1.0000
  N   N1        1.0  0.5079026738036634  0.6737456171200193  0.3114082417483246  1.0000
  N   N2        1.0  0.49209017883853085  0.3262535845710346  0.6885918664594755  1.0000
  N   N3        1.0  0.3909845473921933  0.8051749102470326  0.06695775744181282  1.0000
  N   N4        1.0  0.6090299884603639  0.19482576269066237  0.9330437896054563  1.0000
  N   N5        1.0  0.09940274016958038  0.7811950142879949  0.6167146108658272  1.0000
  N   N6        1.0  0.9005852836109869  0.2187914164631337  0.38329058775950386  1.0000
  O   O1        1.0  0.3381609547124357  0.7306556994702689  0.6214569669510652  1.0000
  O   O2        1.0  0.6618399749659077  0.26933644291448633  0.3785488354867397  1.0000
  O   O3        1.0  0.026504872813021125  0.6791606157393985  0.5481751081559523  1.0000
  O   O4        1.0  0.9734956259171598  0.3208230780965664  0.45184626102378894  1.0000
  O   O5        1.0  0.038938315878056115  0.0754802961961971  0.3197816162693882  1.0000
  O   O6        1.0  0.9610609459466773  0.9245203246337537  0.680215559632579  1.0000
