data_image0
_chemical_formula_structural       Zn8H104C136O56
_chemical_formula_sum              "Zn8 H104 C136 O56"
_cell_length_a       10.129418864211004
_cell_length_b       18.461957259263166
_cell_length_c       27.24124757996011
_cell_angle_alpha    90.00021811181261
_cell_angle_beta     101.37223570872625
_cell_angle_gamma    89.99939383996222

_space_group_name_H-M_alt    "P 1"
_space_group_IT_number       1

loop_
  _space_group_symop_operation_xyz
  'x, y, z'

loop_
  _atom_site_type_symbol
  _atom_site_label
  _atom_site_symmetry_multiplicity
  _atom_site_fract_x
  _atom_site_fract_y
  _atom_site_fract_z
  _atom_site_occupancy
  Zn  Zn1       1.0  0.4653724713985099  0.8024371692918422  0.30605717254422865  1.0000
  Zn  Zn2       1.0  0.5346299733154396  0.3024349550159471  0.1939382231592504  1.0000
  Zn  Zn3       1.0  0.5346259421998099  0.19755960544095072  0.6939461122152719  1.0000
  Zn  Zn4       1.0  0.4653721614332085  0.6975558614910896  0.8060590686240516  1.0000
  Zn  Zn5       1.0  0.6190605315416136  0.7287048550574013  0.2176265160051614  1.0000
  Zn  Zn6       1.0  0.3809493926893098  0.22870782266416967  0.2823706655281768  1.0000
  Zn  Zn7       1.0  0.38093655092874457  0.27129679454998984  0.7823700711589295  1.0000
  Zn  Zn8       1.0  0.6190499376623321  0.7712900353697592  0.717630844724546  1.0000
  H   H1        1.0  0.8005075280700209  0.8933477208920456  0.39843006368802486  1.0000
  H   H2        1.0  0.1994946528132218  0.39335615361242315  0.10157398372103188  1.0000
  H   H3        1.0  0.1994859593974141  0.10665447040414482  0.6015750949159224  1.0000
  H   H4        1.0  0.8005057923541654  0.6066525375121973  0.8984298039076535  1.0000
  H   H5        1.0  0.011880175425126501  0.7851093191025174  0.2973963403794286  1.0000
  H   H6        1.0  0.9881209714786434  0.28506930052455465  0.20258644265131653  1.0000
  H   H7        1.0  0.9881049510333638  0.21490478859541182  0.7026020182030166  1.0000
  H   H8        1.0  0.011871093388577898  0.7148792669109697  0.7973896160775737  1.0000
  H   H9        1.0  0.49304588900407237  0.3913904331491623  0.3878298954343151  1.0000
  H   H10       1.0  0.506965910122176  0.8913972801389322  0.11216487658649038  1.0000
  H   H11       1.0  0.5069542500677642  0.6086030916362476  0.6121676301936958  1.0000
  H   H12       1.0  0.49303025557478003  0.10860545278484322  0.8878334850857144  1.0000
  H   H13       1.0  0.5190952998285708  0.6241511599979008  0.3876981456184936  1.0000
  H   H14       1.0  0.48088137703857825  0.12415367806604394  0.1122976578602177  1.0000
  H   H15       1.0  0.4808836957443603  0.37584344815398657  0.6122979676615898  1.0000
  H   H16       1.0  0.5191151129083593  0.8758490548753031  0.8877073341557206  1.0000
  H   H17       1.0  0.23292820258483715  0.9134664711100627  0.41679889471340903  1.0000
  H   H18       1.0  0.7670713217322387  0.4134557827046805  0.08319951774880249  1.0000
  H   H19       1.0  0.7670681973277949  0.08653247024574995  0.5832042555380424  1.0000
  H   H20       1.0  0.23292585093304294  0.5865323255481061  0.9167989111690601  1.0000
  H   H21       1.0  0.5528515101212578  0.5031786866763073  0.2555219319520745  1.0000
  H   H22       1.0  0.44717584483991146  0.0031810564124868006  0.24447916038045037  1.0000
  H   H23       1.0  0.44716081903758453  0.4968137547732142  0.7444786108461868  1.0000
  H   H24       1.0  0.5528133812211776  0.9968097601400462  0.7555209406161083  1.0000
  H   H25       1.0  0.1671944558036742  0.8381075552865201  0.48231493120749747  1.0000
  H   H26       1.0  0.832816713535955  0.33810803393279804  0.01768774421162791  1.0000
  H   H27       1.0  0.8328069962416861  0.16189626094593731  0.5176889236728641  1.0000
  H   H28       1.0  0.16719471679811446  0.6618925323410212  0.9823149414515341  1.0000
  H   H29       1.0  0.7410945717520293  0.46324623014930943  0.4267868612364438  1.0000
  H   H30       1.0  0.2589090099941487  0.9632467232373262  0.07321084396185999  1.0000
  H   H31       1.0  0.2589076530008114  0.536751627869535  0.5732122723133557  1.0000
  H   H32       1.0  0.7410901401834877  0.036754926367493106  0.9267869827689095  1.0000
  H   H33       1.0  0.2810137832260152  0.5694144456924307  0.3935405191583286  1.0000
  H   H34       1.0  0.7189821031543102  0.06941608406575743  0.10645790067575688  1.0000
  H   H35       1.0  0.7189803508416404  0.43058287069207074  0.6064573396487132  1.0000
  H   H36       1.0  0.2810190606788935  0.9305866488423292  0.8935400605650725  1.0000
  H   H37       1.0  0.1152597397950359  0.9853601120030435  0.6299623440342328  1.0000
  H   H38       1.0  0.8847519615587559  0.48535846407186517  0.8700404184047841  1.0000
  H   H39       1.0  0.8847597992130146  0.014643704177984803  0.37004198472578753  1.0000
  H   H40       1.0  0.11524943644996449  0.5146448105032848  0.129962331417957  1.0000
  H   H41       1.0  0.8984270478259117  0.38500266140068373  0.40834218763696833  1.0000
  H   H42       1.0  0.10157214116831169  0.8850063418255804  0.0916590692260542  1.0000
  H   H43       1.0  0.10157422412072489  0.6149968215869779  0.5916579837164304  1.0000
  H   H44       1.0  0.898426056203121  0.1149969327480562  0.9083397953083079  1.0000
  H   H45       1.0  0.07521918361621259  0.3972736021956111  0.43280734661010456  1.0000
  H   H46       1.0  0.9247827803953328  0.8972820941837797  0.06719375883078271  1.0000
  H   H47       1.0  0.9247821063643894  0.6027237141755182  0.5671931930943825  1.0000
  H   H48       1.0  0.0752185275288895  0.10272280534962873  0.9328071492308183  1.0000
  H   H49       1.0  0.964052372193656  0.4740163739625773  0.4256084850047088  1.0000
  H   H50       1.0  0.035955163331017594  0.9740214240120225  0.07439208099088289  1.0000
  H   H51       1.0  0.0359538438575981  0.5259820256977081  0.5743901808593392  1.0000
  H   H52       1.0  0.9640481582839083  0.025980767243993307  0.9256089615784332  1.0000
  H   H53       1.0  0.364115350755476  0.7762614816569384  0.5023829833815369  1.0000
  H   H54       1.0  0.6359003519600108  0.2762652477039966  0.9976220991440528  1.0000
  H   H55       1.0  0.6359002329267155  0.22374775108279027  0.49762254977276393  1.0000
  H   H56       1.0  0.3641111683682111  0.7237434433903972  0.002382428286274791  1.0000
  H   H57       1.0  0.2177326997683195  0.7258447414467856  0.5104434872848458  1.0000
  H   H58       1.0  0.7822880367273016  0.22584869196028026  0.9895632753692424  1.0000
  H   H59       1.0  0.7822878280636586  0.2741585330761468  0.48956054037710567  1.0000
  H   H60       1.0  0.2177236637598767  0.774157832526349  0.0104449355840401  1.0000
  H   H61       1.0  0.3805487848871961  0.700198651780248  0.5444852981121429  1.0000
  H   H62       1.0  0.6194703952619989  0.20020011190905515  0.9555209299876353  1.0000
  H   H63       1.0  0.6194737745841224  0.2998089559731982  0.4555192324143036  1.0000
  H   H64       1.0  0.3805362890901093  0.7998047876291566  0.044487313043596495  1.0000
  H   H65       1.0  0.4782667180873332  0.6996734074354124  0.12208410380770117  1.0000
  H   H66       1.0  0.521738962168719  0.1996825873197707  0.3779178625157654  1.0000
  H   H67       1.0  0.5217267154689439  0.30031470084399103  0.8779199497302557  1.0000
  H   H68       1.0  0.4782805228378208  0.8003168956233041  0.6220853611842898  1.0000
  H   H69       1.0  0.4800628517671938  0.6356932848588457  0.1571580693455701  1.0000
  H   H70       1.0  0.519935132940425  0.13569848777793683  0.3428468961470513  1.0000
  H   H71       1.0  0.5199557346053112  0.36429374004210774  0.842847297206667  1.0000
  H   H72       1.0  0.48005139685215414  0.8642944954179301  0.6571596334304886  1.0000
  H   H73       1.0  0.8309197963909725  0.6652406766127756  0.187697979023902  1.0000
  H   H74       1.0  0.169102739484444  0.16524396377283784  0.3123072309369944  1.0000
  H   H75       1.0  0.1690976388318362  0.33476855611266393  0.8123043734679242  1.0000
  H   H76       1.0  0.8308865945093942  0.8347631024169292  0.6876950801841772  1.0000
  H   H77       1.0  0.8650893899334305  0.7255154521978185  0.229796011206048  1.0000
  H   H78       1.0  0.13491557737075507  0.22550624551678317  0.2702011984575634  1.0000
  H   H79       1.0  0.134913733383172  0.27450244702446014  0.7702009794962521  1.0000
  H   H80       1.0  0.8650895957747479  0.7744970290337041  0.729796663449946  1.0000
  H   H81       1.0  0.0642061013911501  0.5807653240182306  0.3500372178751689  1.0000
  H   H82       1.0  0.9357883336296524  0.08076431580447974  0.14995636014731417  1.0000
  H   H83       1.0  0.9358011394967602  0.4192341589490384  0.6499618835966742  1.0000
  H   H84       1.0  0.06421610102675859  0.9192302922359236  0.8500263993052357  1.0000
  H   H85       1.0  0.1436936736302314  0.666856227016986  0.36654977859809884  1.0000
  H   H86       1.0  0.8563054409747223  0.16685884013746496  0.1334490979191543  1.0000
  H   H87       1.0  0.8563177207061798  0.33314108932860625  0.633452170358197  1.0000
  H   H88       1.0  0.14369619122959418  0.8331428094872423  0.8665584404841694  1.0000
  H   H89       1.0  0.9635197569776252  0.6597034243716281  0.3549964262445896  1.0000
  H   H90       1.0  0.0364793281087188  0.15970167572658772  0.1449991262593642  1.0000
  H   H91       1.0  0.03649133109257719  0.34029714188363874  0.6449992607224146  1.0000
  H   H92       1.0  0.9635236872751349  0.840299973858457  0.8549956543183156  1.0000
  H   H93       1.0  0.12548076447707499  0.8992014560968832  0.6906243023720291  1.0000
  H   H94       1.0  0.8745295852266891  0.3992022372579812  0.8093796252476153  1.0000
  H   H95       1.0  0.8745469011736589  0.10081048488175533  0.30938203784028667  1.0000
  H   H96       1.0  0.1254708059442038  0.6008015789742988  0.19062305732076368  1.0000
  H   H97       1.0  0.27471973439264724  0.9542352959380269  0.6990475784245759  1.0000
  H   H98       1.0  0.7252937847738392  0.4542390671464533  0.8009600013930366  1.0000
  H   H99       1.0  0.7253096567115235  0.04577556171074092  0.300953002657586  1.0000
  H   H100      1.0  0.27471081382699225  0.5457690823196304  0.19904663372109607  1.0000
  H   H101      1.0  0.2822218874696603  0.864380843325151  0.725043801107226  1.0000
  H   H102      1.0  0.7177860510014112  0.3643872213753313  0.7749591450190036  1.0000
  H   H103      1.0  0.7178096613911362  0.13563218094344628  0.2749598613050992  1.0000
  H   H104      1.0  0.28220837117802233  0.6356220114211412  0.2250446074342705  1.0000
  C   C1        1.0  0.8950159038800862  0.8810708163585372  0.3868261673502289  1.0000
  C   C2        1.0  0.10498323196825511  0.3810657821117546  0.11317250618180447  1.0000
  C   C3        1.0  0.1049775835672762  0.11893354155516533  0.6131789912550616  1.0000
  C   C4        1.0  0.8950149654834902  0.6189288259918159  0.8868263583471998  1.0000
  C   C5        1.0  0.8915510512686068  0.8372487028533585  0.34467614902982996  1.0000
  C   C6        1.0  0.10844355647213177  0.3372308840988155  0.15531587207842526  1.0000
  C   C7        1.0  0.10843837280972927  0.1627567383781497  0.6553280038524889  1.0000
  C   C8        1.0  0.891547178991189  0.6627463910614041  0.8446740495511378  1.0000
  C   C9        1.0  0.0113200581293498  0.8192829277908232  0.3298432216006759  1.0000
  C   C10       1.0  0.9886766081493332  0.3192513912193251  0.17014301816925576  1.0000
  C   C11       1.0  0.9886661832954644  0.18072576336641794  0.6701574143476987  1.0000
  C   C12       1.0  0.011316895743455303  0.6807123425594955  0.8298419482820023  1.0000
  C   C13       1.0  0.5231197470041875  0.4402197547474459  0.3193135279110706  1.0000
  C   C14       1.0  0.4768982851265093  0.9402179516857602  0.18068361698794178  1.0000
  C   C15       1.0  0.47688747589493374  0.5597770199469495  0.6806852052066716  1.0000
  C   C16       1.0  0.5230917495594056  0.059778823051452434  0.8193124993902714  1.0000
  C   C17       1.0  0.7591133217101599  0.8114705926529596  0.3155922449957913  1.0000
  C   C18       1.0  0.2408860972699642  0.31146191364177167  0.1844062752740996  1.0000
  C   C19       1.0  0.24087610234808918  0.18853701519606872  0.6844119078878704  1.0000
  C   C20       1.0  0.7591118661116666  0.6885207780527624  0.815587800665959  1.0000
  C   C21       1.0  0.5042476433837706  0.5062375485082456  0.44869970015346883  1.0000
  C   C22       1.0  0.4957452964461382  0.006242889153561701  0.05129653083410089  1.0000
  C   C23       1.0  0.4957474975518251  0.4937559762928602  0.5512982259059241  1.0000
  C   C24       1.0  0.5042488555701538  0.9937614687388533  0.9487016963297206  1.0000
  C   C25       1.0  0.5375458374281905  0.6410125407509428  0.2923494811401426  1.0000
  C   C26       1.0  0.46246297981425494  0.14101028235085522  0.20765328390310597  1.0000
  C   C27       1.0  0.46245038238070185  0.35898260901445417  0.7076499855846734  1.0000
  C   C28       1.0  0.5375224530760859  0.8589827008428801  0.792351336657596  1.0000
  C   C29       1.0  0.0787849971237549  0.9355845435596992  0.5061936914917027  1.0000
  C   C30       1.0  0.9212166416461685  0.43558337417380255  0.9938101114003002  1.0000
  C   C31       1.0  0.9212144772586796  0.06442198095211181  0.49381076558580617  1.0000
  C   C32       1.0  0.0787837855374462  0.5644220670235712  0.0061933078739499995  1.0000
  C   C33       1.0  0.0125927116490772  0.95656558326526  0.4575934989176957  1.0000
  C   C34       1.0  0.9874062659766237  0.45656692323123593  0.04241012374365741  1.0000
  C   C35       1.0  0.9874097472341103  0.04343769131006781  0.5424104232170279  1.0000
  C   C36       1.0  0.0125941612270708  0.5434363513486177  0.9575932955292501  1.0000
  C   C37       1.0  0.13386274973763077  0.8457765850010618  0.3563191631970638  1.0000
  C   C38       1.0  0.8661355292173879  0.34574940690118444  0.14366908558538677  1.0000
  C   C39       1.0  0.8661254693450927  0.15422993953121283  0.6436808705545047  1.0000
  C   C40       1.0  0.13386322491069788  0.6542246183088168  0.856320637374864  1.0000
  C   C41       1.0  0.0649972897587503  0.979051925386557  0.5489256806217283  1.0000
  C   C42       1.0  0.9350105552113133  0.47905097855336737  0.9510779100611869  1.0000
  C   C43       1.0  0.9350081896077851  0.020952974143668302  0.4510784432780851  1.0000
  C   C44       1.0  0.06499287445682  0.5209544626347764  0.0489253426247132  1.0000
  C   C45       1.0  0.506578187434215  0.4420788994897508  0.36897098880708507  1.0000
  C   C46       1.0  0.4934338412672189  0.9420805142042142  0.13102722827293428  1.0000
  C   C47       1.0  0.4934270398282406  0.5579162502479779  0.6310279781526871  1.0000
  C   C48       1.0  0.5065572542429705  0.057921677076976215  0.8689700604206081  1.0000
  C   C49       1.0  0.016678752808076094  0.9093342699293248  0.41360067865721817  1.0000
  C   C50       1.0  0.9833209741313238  0.40932992122503015  0.08640030716973968  1.0000
  C   C51       1.0  0.9833176650682487  0.09067008797125452  0.5864028399500043  1.0000
  C   C52       1.0  0.01667734939755409  0.5906668535028886  0.9136011358276122  1.0000
  C   C53       1.0  0.5091886583040761  0.5076982255092447  0.3948242224182934  1.0000
  C   C54       1.0  0.4908164625573406  0.0077022708853605034  0.10517539589678648  1.0000
  C   C55       1.0  0.49081157081712223  0.4922974658985597  0.6051751449732095  1.0000
  C   C56       1.0  0.5091797751650519  0.9923037119686031  0.8948244391871468  1.0000
  C   C57       1.0  0.533186102933996  0.570670681248565  0.318759826373025  1.0000
  C   C58       1.0  0.46682901614725847  0.07066554162300062  0.1812424513154127  1.0000
  C   C59       1.0  0.4668191062995177  0.4293260934513228  0.681238772235325  1.0000
  C   C60       1.0  0.5331542949941478  0.9293274415703721  0.8187598246213169  1.0000
  C   C61       1.0  0.5198386349785693  0.5720266214081563  0.3690084429160621  1.0000
  C   C62       1.0  0.4801663004929893  0.0720303314333819  0.1309913221442898  1.0000
  C   C63       1.0  0.4801585196125941  0.4279679866962099  0.630989617653391  1.0000
  C   C64       1.0  0.5198270608722098  0.9279724015103601  0.8690112579929874  1.0000
  C   C65       1.0  0.1364757615326795  0.8915946949248197  0.39759060272943697  1.0000
  C   C66       1.0  0.8635229992299926  0.391579217974396  0.10240440027624231  1.0000
  C   C67       1.0  0.863517581808601  0.10840912132670162  0.6024116090560838  1.0000
  C   C68       1.0  0.1364740293292073  0.6084083486162015  0.8975910818218578  1.0000
  C   C69       1.0  0.6151986440940077  0.47609750188220096  0.48208533094025796  1.0000
  C   C70       1.0  0.3847977056455533  0.9761023683694675  0.017913024415520295  1.0000
  C   C71       1.0  0.38479755770602236  0.5238971062278356  0.5179137674317928  1.0000
  C   C72       1.0  0.6152004916857264  0.023905239439201906  0.9820858401215201  1.0000
  C   C73       1.0  0.5391369612298148  0.504670009078943  0.2941602702543236  1.0000
  C   C74       1.0  0.46088529595819233  0.004666124836035102  0.20583975093883564  1.0000
  C   C75       1.0  0.4608753138472039  0.49532676560268396  0.7058391674893227  1.0000
  C   C76       1.0  0.5390958574115245  0.9953263167006413  0.7941594436687325  1.0000
  C   C77       1.0  0.38961514322441804  0.5312591127539366  0.46572224247757527  1.0000
  C   C78       1.0  0.6103814502577548  0.03126585631654421  0.0342761302110048  1.0000
  C   C79       1.0  0.6103810585956777  0.46873332873858703  0.5342768558931326  1.0000
  C   C80       1.0  0.38961574025577755  0.968740126531735  0.9657226670703309  1.0000
  C   C81       1.0  0.15854900163593297  0.8712406687015177  0.514478728974602  1.0000
  C   C82       1.0  0.8414588998144692  0.37124208488840793  0.9855260673874182  1.0000
  C   C83       1.0  0.841454500102813  0.128763147527394  0.48552599712001404  1.0000
  C   C84       1.0  0.15854452986370396  0.6287622729909826  0.0144771852978138  1.0000
  C   C85       1.0  0.7350046797105705  0.4546362186346756  0.4657255931173907  1.0000
  C   C86       1.0  0.264991024917272  0.9546413336367794  0.034271931759214204  1.0000
  C   C87       1.0  0.2649915220693728  0.545360556092888  0.5342735052559958  1.0000
  C   C88       1.0  0.7350021022422906  0.045364107566165  0.9657258597981552  1.0000
  C   C89       1.0  0.20626502170417638  0.8925992954935894  0.6041690089802927  1.0000
  C   C90       1.0  0.7937444435286594  0.39259994740479  0.8958348432262753  1.0000
  C   C91       1.0  0.793750489942539  0.10740777062471814  0.3958350507629546  1.0000
  C   C92       1.0  0.20625902216223577  0.6074060354396951  0.10416914616482127  1.0000
  C   C93       1.0  0.27688716721127793  0.5630842529016462  0.43289714078478164  1.0000
  C   C94       1.0  0.7231078296386073  0.06308781401441621  0.06710120397355719  1.0000
  C   C95       1.0  0.7231090165698362  0.4369108968617966  0.5671015892351717  1.0000
  C   C96       1.0  0.2768852794970371  0.9369187104963076  0.9328962192320489  1.0000
  C   C97       1.0  0.1286679597648543  0.9541059829355665  0.5975105299152546  1.0000
  C   C98       1.0  0.8713443568504571  0.4541056777669541  0.9024929306086307  1.0000
  C   C99       1.0  0.8713455562602589  0.045897833262934305  0.4024937636690211  1.0000
  C   C100      1.0  0.12866108649333094  0.5458986801069444  0.0975104565859866  1.0000
  C   C101      1.0  0.2238320198695334  0.8506317436761609  0.5614566992633455  1.0000
  C   C102      1.0  0.7761812616650516  0.35063381990317316  0.9385476712011922  1.0000
  C   C103      1.0  0.7761774688394281  0.14937044757019183  0.4385473253011439  1.0000
  C   C104      1.0  0.22382421771654742  0.6493694546639192  0.0614564526976196  1.0000
  C   C105      1.0  0.9739006199710046  0.4159661879426154  0.4348619546709712  1.0000
  C   C106      1.0  0.026100961586820397  0.9159734103872171  0.0651384371627515  1.0000
  C   C107      1.0  0.0261035824196654  0.5840316700687825  0.5651365766833578  1.0000
  C   C108      1.0  0.9738963550189083  0.08403311412227771  0.9348629385859296  1.0000
  C   C109      1.0  0.8425135269629254  0.424769172932095  0.498064754655381  1.0000
  C   C110      1.0  0.1574777330081076  0.9247806926010259  0.0019331337497731995  1.0000
  C   C111      1.0  0.15748468848263286  0.5752276017899619  0.5019344782273976  1.0000
  C   C112      1.0  0.8425123555889654  0.07523016515298052  0.9980640876944233  1.0000
  C   C113      1.0  0.3169947380284199  0.7460341297704645  0.5292343916655255  1.0000
  C   C114      1.0  0.6830235745757777  0.2460401792733579  0.9707715247236947  1.0000
  C   C115      1.0  0.6830248369923453  0.2539713113756577  0.4707706738003522  1.0000
  C   C116      1.0  0.3169850333273203  0.7539695951438933  0.029235011057799895  1.0000
  C   C117      1.0  0.1649671321064829  0.5860003992298245  0.4501221631425948  1.0000
  C   C118      1.0  0.8350263251093963  0.08600429464427611  0.04987393256423191  1.0000
  C   C119      1.0  0.8350289976229346  0.4139958338394508  0.54987546182074  1.0000
  C   C120      1.0  0.1649606348657855  0.9140108963471508  0.9501208770039823  1.0000
  C   C121      1.0  0.2585039936436572  0.8248271462923145  0.33825905071198276  1.0000
  C   C122      1.0  0.7414856300672028  0.32480296270345127  0.16172893524520757  1.0000
  C   C123      1.0  0.7414801080635126  0.17517666997418507  0.6617388722569827  1.0000
  C   C124      1.0  0.2585060942300926  0.6751726874899051  0.8382606852856113  1.0000
  C   C125      1.0  0.05814762532129689  0.6319127382285431  0.3703812843252052  1.0000
  C   C126      1.0  0.9418490083344366  0.13191428932685062  0.1296151371329586  1.0000
  C   C127      1.0  0.9418565590554877  0.3680851197818812  0.6296168786766926  1.0000
  C   C128      1.0  0.058148936812450785  0.8680922351593948  0.8703785704693984  1.0000
  C   C129      1.0  0.5183994911730494  0.36929113725754104  0.29295991873487987  1.0000
  C   C130      1.0  0.48160951700582894  0.8692856622796016  0.20703094068176844  1.0000
  C   C131      1.0  0.4815903452948476  0.6307126789758755  0.7070321457709524  1.0000
  C   C132      1.0  0.5183954580672178  0.13070894579008305  0.7929628693436612  1.0000
  C   C133      1.0  0.23546292221477227  0.898583115939893  0.6935746763675185  1.0000
  C   C134      1.0  0.7645484998025723  0.39858614708466433  0.8064304228014192  1.0000
  C   C135      1.0  0.7645666490132185  0.10142936668177073  0.3064295882399435  1.0000
  C   C136      1.0  0.23545298824546984  0.601420377421647  0.19357416878547437  1.0000
  O   O1        1.0  0.6551801124336265  0.835806382512395  0.3294854292316671  1.0000
  O   O2        1.0  0.3448161772274005  0.33580406122487727  0.1705199180460326  1.0000
  O   O3        1.0  0.3448129447457974  0.16418497573019417  0.6705314493886404  1.0000
  O   O4        1.0  0.6551801327111588  0.6641845886928482  0.8294813904369106  1.0000
  O   O5        1.0  0.5082843085571297  0.6969775022341482  0.3146825801255985  1.0000
  O   O6        1.0  0.4916883944171886  0.19697765680619742  0.1853212153327419  1.0000
  O   O7        1.0  0.49166548888960887  0.30301439772554783  0.6853115827666585  1.0000
  O   O8        1.0  0.5082972726486759  0.803015868054601  0.8146881938098715  1.0000
  O   O9        1.0  0.5680950953324099  0.6395942786830203  0.24872998238092947  1.0000
  O   O10       1.0  0.43192401471233666  0.13958810883683273  0.251277505331025  1.0000
  O   O11       1.0  0.4319325344059948  0.3604052042429445  0.7512756211188291  1.0000
  O   O12       1.0  0.5680594946219913  0.8604005411322363  0.748728822479755  1.0000
  O   O13       1.0  0.7603060519933678  0.7679821402571322  0.2790267085880487  1.0000
  O   O14       1.0  0.23969021772439453  0.2679709641657625  0.2209729623324321  1.0000
  O   O15       1.0  0.23967689855908958  0.23204442548823329  0.720968200320847  1.0000
  O   O16       1.0  0.7603057500406507  0.7320079359545845  0.7790213474483281  1.0000
  O   O17       1.0  0.3048539965418442  0.7905945639081583  0.5714566488918678  1.0000
  O   O18       1.0  0.6951604337215115  0.290595973555135  0.928548384088998  1.0000
  O   O19       1.0  0.695157523831554  0.20940925229682256  0.4285478785354471  1.0000
  O   O20       1.0  0.30485114069355024  0.709407842652766  0.07145724839560327  1.0000
  O   O21       1.0  0.0548263847934223  0.6184034896676781  0.4218136259704082  1.0000
  O   O22       1.0  0.9451644762298269  0.11840744242748968  0.07818274362008278  1.0000
  O   O23       1.0  0.9451697629498809  0.38159274340257104  0.5781843673453579  1.0000
  O   O24       1.0  0.05481122832517829  0.8816207482895212  0.9218076426302275  1.0000
  O   O25       1.0  0.9600591068498687  0.4034362788818912  0.4854711365445255  1.0000
  O   O26       1.0  0.03993961438958139  0.9034420546295792  0.014527564631258398  1.0000
  O   O27       1.0  0.039941194286725996  0.5965637457648544  0.5145297042593667  1.0000
  O   O28       1.0  0.960052451875441  0.09656555319070043  0.9854690546154641  1.0000
  O   O29       1.0  0.372624631633478  0.8521739173623717  0.3588803271051545  1.0000
  O   O30       1.0  0.6273681703252478  0.35214865924764654  0.1411009629664832  1.0000
  O   O31       1.0  0.6273666260820079  0.14781960745753514  0.6411202767548969  1.0000
  O   O32       1.0  0.3726178534748854  0.6478074913656757  0.8588746922389275  1.0000
  O   O33       1.0  0.2492142518811775  0.7803588722988624  0.30190970627183583  1.0000
  O   O34       1.0  0.7507775269753693  0.28034404567693383  0.1980849223399943  1.0000
  O   O35       1.0  0.7507606261355021  0.21965252714489483  0.6980842962377024  1.0000
  O   O36       1.0  0.24922601082126758  0.7196565206276588  0.8019205404574734  1.0000
  O   O37       1.0  0.5409767047179699  0.6714509345263056  0.14706354180963638  1.0000
  O   O38       1.0  0.4590285097561946  0.17146250728919918  0.3529386907384477  1.0000
  O   O39       1.0  0.4590306623625223  0.3285382570145929  0.8529381381228518  1.0000
  O   O40       1.0  0.5409780665276429  0.8285407672800249  0.647067342177209  1.0000
  O   O41       1.0  0.5707549523158022  0.36563850196026243  0.25459739465801323  1.0000
  O   O42       1.0  0.4292451522036275  0.8656254218312045  0.2453946967102567  1.0000
  O   O43       1.0  0.4292208244905139  0.634368564239857  0.745394464988955  1.0000
  O   O44       1.0  0.5707872776085949  0.13436431128950233  0.7546064544753719  1.0000
  O   O45       1.0  0.4600489867093813  0.31771990550405615  0.3120045568847374  1.0000
  O   O46       1.0  0.5399609592264267  0.817716692083778  0.18798587045416326  1.0000
  O   O47       1.0  0.5399318603238613  0.6822833691036155  0.6879883757382288  1.0000
  O   O48       1.0  0.4600335872257729  0.18227954095701193  0.811999899976733  1.0000
  O   O49       1.0  0.8104603477252893  0.7143796467429059  0.19671179134401479  1.0000
  O   O50       1.0  0.18954491592381115  0.21438222260375286  0.30328724632848036  1.0000
  O   O51       1.0  0.18953889246656527  0.2856279610649679  0.8032878771525842  1.0000
  O   O52       1.0  0.8104543603158944  0.7856232185885547  0.6967131588716312  1.0000
  O   O53       1.0  0.26941535598797367  0.8660467996762266  0.6498909489878173  1.0000
  O   O54       1.0  0.7305985386143873  0.3660475645482891  0.8501112976644548  1.0000
  O   O55       1.0  0.7306060885521574  0.13396243303725447  0.35011130417035463  1.0000
  O   O56       1.0  0.26940489104370613  0.6339589599486217  0.1498919550221203  1.0000
