data_image0
_chemical_formula_structural       H28Pb2C26I4N4
_chemical_formula_sum              "H28 Pb2 C26 I4 N4"
_cell_length_a       4.529989449289474
_cell_length_b       11.516139663117738
_cell_length_c       15.27703468939516
_cell_angle_alpha    90.00529214206392
_cell_angle_beta     89.9999208321056
_cell_angle_gamma    96.16353686220035

_space_group_name_H-M_alt    "P 1"
_space_group_IT_number       1

loop_
  _space_group_symop_operation_xyz
  'x, y, z'

loop_
  _atom_site_type_symbol
  _atom_site_label
  _atom_site_symmetry_multiplicity
  _atom_site_fract_x
  _atom_site_fract_y
  _atom_site_fract_z
  _atom_site_occupancy
  H   H1        1.0  0.9285940552965712  0.0636401070148409  0.4319166620571266  1.0000
  H   H2        1.0  0.0708792592569977  0.9364160932717737  0.9320432147246436  1.0000
  H   H3        1.0  0.07130749770147553  0.93632975791715  0.5681695808566118  1.0000
  H   H4        1.0  0.9294182903979475  0.06363085764508009  0.0678859300677104  1.0000
  H   H5        1.0  0.687194844189534  0.099016658255799  0.5751073415546273  1.0000
  H   H6        1.0  0.3125978442680121  0.9010810293593889  0.0751806583842907  1.0000
  H   H7        1.0  0.3135834891505169  0.900954631103204  0.42513206492541405  1.0000
  H   H8        1.0  0.6878052618493982  0.09902187446365933  0.9247327784391074  1.0000
  H   H9        1.0  0.13828126651523576  0.44847120830130643  0.5700520256714654  1.0000
  H   H10       1.0  0.8623165579553953  0.5514964705419273  0.0700455014969563  1.0000
  H   H11       1.0  0.862126964425201  0.5515522361092877  0.42993799267447497  1.0000
  H   H12       1.0  0.13812221196301513  0.44859947287886087  0.9299556480265565  1.0000
  H   H13       1.0  0.36509201691292487  0.39819409387183663  0.4270571000163415  1.0000
  H   H14       1.0  0.6350919616601445  0.6017582523150863  0.9271240352388759  1.0000
  H   H15       1.0  0.6343386218589656  0.6018470742427198  0.5727633921620524  1.0000
  H   H16       1.0  0.36557299066073756  0.3982347871950224  0.07284372373479898  1.0000
  H   H17       1.0  0.5153721955537164  0.2554911910843457  0.6689706064026738  1.0000
  H   H18       1.0  0.4848837775745735  0.7444988001897667  0.16900694959274884  1.0000
  H   H19       1.0  0.4850105300413503  0.7445112808843672  0.33105475828840986  1.0000
  H   H20       1.0  0.5154304134870101  0.2555935736066388  0.831015801881442  1.0000
  H   H21       1.0  0.7028741797363836  0.3991173570869505  0.6685408764188593  1.0000
  H   H22       1.0  0.2973039096420038  0.600895255958342  0.168554311192338  1.0000
  H   H23       1.0  0.2974448025714409  0.6009025411939674  0.3315100182106007  1.0000
  H   H24       1.0  0.7030868468103434  0.3991945435729037  0.8314134549975166  1.0000
  H   H25       1.0  0.9409999813468414  0.18387760437715164  0.7499980425713986  1.0000
  H   H26       1.0  0.059177272296658104  0.8161160082509937  0.2500508882379222  1.0000
  H   H27       1.0  0.12616023199903734  0.3278139718188981  0.7499684439630627  1.0000
  H   H28       1.0  0.8742181694413772  0.6721395955197238  0.2500556091635673  1.0000
  Pb  Pb1       1.0  0.20436957895603314  0.20843264211784873  0.2498856875081472  1.0000
  Pb  Pb2       1.0  0.7927067996469147  0.7912106141752415  0.7501102318563327  1.0000
  C   C1        1.0  0.9733752175933289  0.1474792343782312  0.4653929342650969  1.0000
  C   C2        1.0  0.026246862193183042  0.8525814031495001  0.9655138340658667  1.0000
  C   C3        1.0  0.026558135674491695  0.8525185928183134  0.5346559988669098  1.0000
  C   C4        1.0  0.9740960204699576  0.1474699424777697  0.034422510904114696  1.0000
  C   C5        1.0  0.8375595219896256  0.1678685355742502  0.544727934680438  1.0000
  C   C6        1.0  0.1622914607905769  0.8321962669560391  0.0448120174551576  1.0000
  C   C7        1.0  0.16285271462472647  0.8321287190431903  0.4553949615106561  1.0000
  C   C8        1.0  0.8381123986962322  0.1678848071506636  0.9551276013610135  1.0000
  C   C9        1.0  0.8888425866007805  0.27817658744785934  0.5840318676395384  1.0000
  C   C10       1.0  0.11130146460603638  0.7218669961054758  0.0840881211585511  1.0000
  C   C11       1.0  0.11152548641812386  0.7218616794678211  0.4160164091749152  1.0000
  C   C12       1.0  0.8891077093076163  0.2782420270470567  0.9158979739980211  1.0000
  C   C13       1.0  0.08737935746582075  0.36164545677813437  0.5416617225663458  1.0000
  C   C14       1.0  0.912936417413725  0.6383521548456628  0.0416983579617494  1.0000
  C   C15       1.0  0.9128164940048292  0.638392700550284  0.4583224071590877  1.0000
  C   C16       1.0  0.08754368974519619  0.36173333479651854  0.9582896991348662  1.0000
  C   C17       1.0  0.21457268354005518  0.33409191256798465  0.462489428037692  1.0000
  C   C18       1.0  0.7854897009610581  0.6659006583050909  0.9625654120776375  1.0000
  C   C19       1.0  0.7851297694974378  0.6659503014577693  0.5374246663924396  1.0000
  C   C20       1.0  0.21502976855719413  0.3341342068951149  0.037408896021659595  1.0000
  C   C21       1.0  0.7356225194425364  0.3058101650254486  0.6673544115580086  1.0000
  C   C22       1.0  0.2645898531288111  0.6942076179305089  0.167398698461632  1.0000
  C   C23       1.0  0.2647223927197047  0.6942158616337933  0.332684046185058  1.0000
  C   C24       1.0  0.7357248995263177  0.3058786427929263  0.8326063791148783  1.0000
  C   C25       1.0  0.9065611600256531  0.27696538628967454  0.7499761614068632  1.0000
  C   C26       1.0  0.09374546482477092  0.7230414047985009  0.2500544407775962  1.0000
  I   I1        1.0  0.6353923462710966  0.007001332657303299  0.2497239410180967  1.0000
  I   I2        1.0  0.3622084714451644  0.9926876566036709  0.7502189553334657  1.0000
  I   I3        1.0  0.7400389213959142  0.40843566479419746  0.24990545879168016  1.0000
  I   I4        1.0  0.2574034083040003  0.5911728920690037  0.7501657320564874  1.0000
  N   N1        1.0  0.15718298403654532  0.22909118834265746  0.4239726154484416  1.0000
  N   N2        1.0  0.8425014717177389  0.7709348359413893  0.924092812172752  1.0000
  N   N3        1.0  0.8422994813475596  0.7709456502317523  0.5759630816680852  1.0000
  N   N4        1.0  0.15788387820839486  0.2290938323060203  0.0758605503043199  1.0000
