data_image0
_chemical_formula_structural       Cd2H24C26N12O8
_chemical_formula_sum              "Cd2 H24 C26 N12 O8"
_cell_length_a       7.995219113648093
_cell_length_b       8.330973603689218
_cell_length_c       11.59157424411478
_cell_angle_alpha    90.92649652125598
_cell_angle_beta     103.87991276394882
_cell_angle_gamma    100.43866895062884

_space_group_name_H-M_alt    "P 1"
_space_group_IT_number       1

loop_
  _space_group_symop_operation_xyz
  'x, y, z'

loop_
  _atom_site_type_symbol
  _atom_site_label
  _atom_site_symmetry_multiplicity
  _atom_site_fract_x
  _atom_site_fract_y
  _atom_site_fract_z
  _atom_site_occupancy
  Cd  Cd1       1.0  0.10523765459721092  0.15103905094248665  0.15685269497871698  1.0000
  Cd  Cd2       1.0  0.8947628523890572  0.8489618420018843  0.8431474509713153  1.0000
  H   H1        1.0  0.08219165827311768  0.7699286609627336  0.5297190614095227  1.0000
  H   H2        1.0  0.917807301916703  0.23007101884117273  0.47028081912403497  1.0000
  H   H3        1.0  0.06507075849953026  0.5902388868986036  0.1336699554701397  1.0000
  H   H4        1.0  0.9349305166135693  0.4097595554944816  0.8663311576643121  1.0000
  H   H5        1.0  0.7929478526771446  0.7813166075213899  0.3062143994368681  1.0000
  H   H6        1.0  0.20705291205044324  0.2186855033554735  0.693784937126665  1.0000
  H   H7        1.0  0.9042796867618677  0.8264601873828852  0.19147599002682367  1.0000
  H   H8        1.0  0.09572184336975198  0.17353946799556746  0.8085234505253492  1.0000
  H   H9        1.0  0.3762763278211878  0.9324004578461497  0.7131410036854503  1.0000
  H   H10       1.0  0.6237233950498577  0.0675967615122062  0.2868581176409605  1.0000
  H   H11       1.0  0.6051931363453419  0.18839123463884277  0.7501119089077192  1.0000
  H   H12       1.0  0.39480556882596574  0.8116072321797033  0.24988964420812462  1.0000
  H   H13       1.0  0.6160017401911304  0.38854932831154093  0.5945675888285391  1.0000
  H   H14       1.0  0.38399722816711807  0.611450366333763  0.40543488129237193  1.0000
  H   H15       1.0  0.41157294863185007  0.33092370885812267  0.3922262963734368  1.0000
  H   H16       1.0  0.5884275665228316  0.6690771989276528  0.607776439163942  1.0000
  H   H17       1.0  0.47710907558143123  0.0499376046886582  0.12289373521623045  1.0000
  H   H18       1.0  0.5228906714464115  0.9500657536483956  0.8771080331367282  1.0000
  H   H19       1.0  0.4860275430974568  0.8509516982564521  0.07609195695081893  1.0000
  H   H20       1.0  0.5139734902626998  0.1490516503414412  0.9239100230093411  1.0000
  H   H21       1.0  0.5531223799111301  0.5875995008461743  0.12525937975623688  1.0000
  H   H22       1.0  0.44687528850077735  0.41240017880262775  0.8747385627785603  1.0000
  H   H23       1.0  0.6371517308138267  0.4205757413481308  0.08568807074617983  1.0000
  H   H24       1.0  0.36284645852635583  0.5794263840599285  0.9143099794071715  1.0000
  C   C1        1.0  0.023961024865442878  0.5394851171030125  0.2103041299089979  1.0000
  C   C2        1.0  0.9760392216566843  0.4605145529617332  0.7896959622317536  1.0000
  C   C3        1.0  0.9181587209846284  0.7848570451194162  0.2818597241924578  1.0000
  C   C4        1.0  0.08184280642418432  0.21514260531190393  0.7181388531639283  1.0000
  C   C5        1.0  0.06489159010017431  0.8965941877789093  0.36741330664019484  1.0000
  C   C6        1.0  0.9351104609597202  0.1034079133587937  0.6325862415305322  1.0000
  C   C7        1.0  0.2656436544967704  0.9934949623480662  0.5332355422173902  1.0000
  C   C8        1.0  0.7343591619671485  0.006504683291218801  0.4667641099419695  1.0000
  C   C9        1.0  0.3827011591153849  0.0204233619398835  0.645299704815258  1.0000
  C   C10       1.0  0.6172985664784676  0.9795738623656124  0.35470027970693957  1.0000
  C   C11       1.0  0.5079623161056829  0.16479242066478855  0.6648346506382905  1.0000
  C   C12       1.0  0.49203895900741657  0.8352060217282968  0.3351664624961684  1.0000
  C   C13       1.0  0.5153767725268993  0.2775042086267874  0.5757257161462448  1.0000
  C   C14       1.0  0.4846234767180277  0.7224954663850909  0.42427523919029386  1.0000
  C   C15       1.0  0.40045238497336294  0.24881528014069687  0.46322750363717796  1.0000
  C   C16       1.0  0.5995506974003106  0.7511855982724852  0.5367739287230363  1.0000
  C   C17       1.0  0.2748890057220238  0.1037839711806967  0.4422444903606788  1.0000
  C   C18       1.0  0.725112524409596  0.8962156841977559  0.5577549501914871  1.0000
  C   C19       1.0  0.25112472725452756  0.9310888420254385  0.9942719535960476  1.0000
  C   C20       1.0  0.7488747593091816  0.0689132934319829  0.0057297609476308214  1.0000
  C   C21       1.0  0.4480102447657188  0.966055012057531  0.04390859536970029  1.0000
  C   C22       1.0  0.5519894995393243  0.03394834133239039  0.9560923097874788  1.0000
  C   C23       1.0  0.37095805753150307  0.36314588251674  0.09738570693502167  1.0000
  C   C24       1.0  0.629040897212711  0.6368537873929013  0.9026124472069694  1.0000
  C   C25       1.0  0.5204699237026419  0.47711023981436546  0.0644275062360151  1.0000
  C   C26       1.0  0.47952903376437933  0.5228894350424085  0.9355715111017557  1.0000
  N   N1        1.0  0.03250689116620009  0.3920629598700102  0.2503024341457872  1.0000
  N   N2        1.0  0.9674946389654197  0.6079366955084423  0.7496970064063787  1.0000
  N   N3        1.0  0.9606880120783076  0.38255307293281504  0.3458193548984879  1.0000
  N   N4        1.0  0.03931121129846101  0.617447834697849  0.6541814426401301  1.0000
  N   N5        1.0  0.9098141383372109  0.517619488427272  0.36506996649106327  1.0000
  N   N6        1.0  0.0901861109077231  0.4823801865845993  0.6349309888454753  1.0000
  N   N7        1.0  0.9487435120239456  0.6175904166787589  0.28078761208487174  1.0000
  N   N8        1.0  0.05125673449818181  0.3824092533859869  0.71921248005588  1.0000
  N   N9        1.0  0.12943803094301387  0.8651368338902045  0.48313095337899614  1.0000
  N   N10       1.0  0.8705634964657989  0.1348628165411156  0.5168676239773901  1.0000
  N   N11       1.0  0.1487695148177579  0.03798830352492641  0.3396781068552527  1.0000
  N   N12       1.0  0.8512320180366685  0.9620113568006586  0.6603221968927001  1.0000
  O   O1        1.0  0.152984983560529  0.9064941287170853  0.0672120833448204  1.0000
  O   O2        1.0  0.8470145002803733  0.09350800179320372  0.9327887680030782  1.0000
  O   O3        1.0  0.191015944842448  0.9259749326664136  0.8816636275554827  1.0000
  O   O4        1.0  0.8089832758115137  0.074025970017118  0.11833630678735571  1.0000
  O   O5        1.0  0.2156466599099645  0.34522401268934294  0.029994235581909792  1.0000
  O   O6        1.0  0.7843533234252148  0.6547744295486453  0.9700049395537814  1.0000
  O   O7        1.0  0.4057951483508758  0.2880016583471132  0.19256872739700262  1.0000
  O   O8        1.0  0.5942043273216057  0.7120004573217854  0.8074295343635427  1.0000
