data_image0
_chemical_formula_structural       Na2H42C24S2N4
_chemical_formula_sum              "Na2 H42 C24 S2 N4"
_cell_length_a       5.845693287888097
_cell_length_b       10.946601847460682
_cell_length_c       11.95805148726405
_cell_angle_alpha    62.06710648468138
_cell_angle_beta     86.95095289497016
_cell_angle_gamma    81.25425541412729

_space_group_name_H-M_alt    "P 1"
_space_group_IT_number       1

loop_
  _space_group_symop_operation_xyz
  'x, y, z'

loop_
  _atom_site_type_symbol
  _atom_site_label
  _atom_site_symmetry_multiplicity
  _atom_site_fract_x
  _atom_site_fract_y
  _atom_site_fract_z
  _atom_site_occupancy
  Na  Na1       1.0  0.1841246063366384  0.6551822631383857  0.9058098763381609  1.0000
  Na  Na2       1.0  0.8158415700330012  0.34481101629514654  0.09419096425089891  1.0000
  H   H1        1.0  0.8699322713289351  0.44376416904649585  0.8545996847878925  1.0000
  H   H2        1.0  0.1300719338285248  0.556213463666154  0.14540702128472557  1.0000
  H   H3        1.0  0.786848477766519  0.4375117584325352  0.6578865438277434  1.0000
  H   H4        1.0  0.21317303753033195  0.5624794408729132  0.34211049410967576  1.0000
  H   H5        1.0  0.09992069943569257  0.35776259461152904  0.5475118642688416  1.0000
  H   H6        1.0  0.9001240990498474  0.6422527153937809  0.4524799744375087  1.0000
  H   H7        1.0  0.5024327906797198  0.2817397600797732  0.6401120373393355  1.0000
  H   H8        1.0  0.497612483228103  0.7182807512914878  0.3598750199109729  1.0000
  H   H9        1.0  0.5861839362560203  0.28615792533699397  0.8379673324493951  1.0000
  H   H10       1.0  0.41385038266362534  0.7138438475722568  0.16203650235029704  1.0000
  H   H11       1.0  0.5660245847085791  0.6011787125983403  0.7177716263152975  1.0000
  H   H12       1.0  0.43394195217520354  0.39879812939380344  0.2822656203215744  1.0000
  H   H13       1.0  0.6185217018688361  0.7387250344451958  0.7478645901621518  1.0000
  H   H14       1.0  0.38144622030876013  0.2612674601543432  0.2521633097395153  1.0000
  H   H15       1.0  0.6192198735158456  0.7639025255900408  0.5880973302363869  1.0000
  H   H16       1.0  0.38078392340649003  0.23606907918756553  0.4119370946253511  1.0000
  H   H17       1.0  0.9948167279719802  0.7515256050227633  0.5810681763810096  1.0000
  H   H18       1.0  0.0051777351938966185  0.2484781789597577  0.41893074725097534  1.0000
  H   H19       1.0  0.22585631361053518  0.6117639389662629  0.6163135587892371  1.0000
  H   H20       1.0  0.7741145510578491  0.38823788247393065  0.38370185171550736  1.0000
  H   H21       1.0  0.2480123692665543  0.7807874565257863  0.4865915041931076  1.0000
  H   H22       1.0  0.7519885727577673  0.21919649255819  0.5134175543169733  1.0000
  H   H23       1.0  0.045051760048380685  0.9415119182578309  0.6007128665871238  1.0000
  H   H24       1.0  0.9549806620407185  0.0585053348544307  0.3992642151913302  1.0000
  H   H25       1.0  0.3224637622280824  0.9698946761382388  0.5353146375944534  1.0000
  H   H26       1.0  0.6775691573460207  0.030098719083817102  0.4646912006367714  1.0000
  H   H27       1.0  0.46714422143587353  0.9255906830376904  0.7506612523223951  1.0000
  H   H28       1.0  0.5328419089843095  0.07441207378509772  0.2493408316839094  1.0000
  H   H29       1.0  0.26610220630794157  0.07871192550839373  0.6678659543988985  1.0000
  H   H30       1.0  0.7338868669970752  0.9212928994046978  0.33213264939180226  1.0000
  H   H31       1.0  0.8004773129501076  0.9361155155441666  0.8889114893714732  1.0000
  H   H32       1.0  0.1994886797480362  0.0638859866525223  0.11107156466308511  1.0000
  H   H33       1.0  0.8259905274261926  0.9637859678768737  0.7312651266019685  1.0000
  H   H34       1.0  0.17399919202211586  0.0362238562790722  0.2687078722622331  1.0000
  H   H35       1.0  0.8886256509118272  0.09593904166190013  0.7684970704248143  1.0000
  H   H36       1.0  0.11136127478489763  0.9040677908155599  0.23149235072227034  1.0000
  H   H37       1.0  0.13867210121324536  0.8915283666924414  0.015265002152609865  1.0000
  H   H38       1.0  0.8612916828110854  0.10846795708258133  0.984725374869015  1.0000
  H   H39       1.0  0.24156459803778318  0.047711813748527704  0.8995494285471678  1.0000
  H   H40       1.0  0.7584208877344026  0.9522794308009281  0.10045600284567517  1.0000
  H   H41       1.0  0.4190156143766047  0.8804807480262298  0.9515459946787034  1.0000
  H   H42       1.0  0.5809562652733576  0.11950311410002003  0.048457126468584  1.0000
  C   C1        1.0  0.2351106581566995  0.36225246046837617  0.8646241121541179  1.0000
  C   C2        1.0  0.7648643445840334  0.6377680537672392  0.1353705269654455  1.0000
  C   C3        1.0  0.009312430113894323  0.4044142392101975  0.8100911229745621  1.0000
  C   C4        1.0  0.990712844224902  0.5955758208350942  0.189896282252903  1.0000
  C   C5        1.0  0.9623575049689423  0.4023019250704749  0.6980013739747692  1.0000
  C   C6        1.0  0.03769067846761233  0.5977061773150113  0.30200438611665703  1.0000
  C   C7        1.0  0.13787143203506963  0.3577126594112769  0.635661593905013  1.0000
  C   C8        1.0  0.8621474025289757  0.6423109588038399  0.3643239271700838  1.0000
  C   C9        1.0  0.36231184371288094  0.3164969851909589  0.6873655946768764  1.0000
  C   C10       1.0  0.6377243013846084  0.6835329408665985  0.31261926744434027  1.0000
  C   C11       1.0  0.410175426331584  0.31851110878823624  0.7994167680549255  1.0000
  C   C12       1.0  0.589853950440073  0.6815041975075858  0.20057628802140934  1.0000
  C   C13       1.0  0.5354936937865843  0.7147780690824916  0.6815888700059246  1.0000
  C   C14       1.0  0.4644892501939071  0.28520188017608217  0.3184424408361153  1.0000
  C   C15       1.0  0.18379532415678315  0.7243231046018863  0.5843338990866371  1.0000
  C   C16       1.0  0.8162070035553981  0.27566923833914103  0.4156748218695512  1.0000
  C   C17       1.0  0.23080544494580124  0.9127591083280252  0.6249294228519701  1.0000
  C   C18       1.0  0.7692076070692908  0.08724573493193331  0.37506858293469497  1.0000
  C   C19       1.0  0.2856332361121333  0.9628790772621939  0.7181459351320144  1.0000
  C   C20       1.0  0.7143586313385272  0.037121480579038704  0.2818452555571156  1.0000
  C   C21       1.0  0.9027424105633132  0.9816065206666453  0.8031999729159339  1.0000
  C   C22       1.0  0.097246010870812  0.0183940588083829  0.19679380201880292  1.0000
  C   C23       1.0  0.24094617943254107  0.9355179400779359  0.9292814170835018  1.0000
  C   C24       1.0  0.7590212270569267  0.06447740613540992  0.0707159860045223  1.0000
  S   S1        1.0  0.29690373377705004  0.3654228562975987  0.005221555670097261  1.0000
  S   S2        1.0  0.7031054654816701  0.6345694676306196  0.9947844956113415  1.0000
  N   N1        1.0  0.28590018859347316  0.7613442283421534  0.6713061337859684  1.0000
  N   N2        1.0  0.7140940438871298  0.23865331749729526  0.3286988522258697  1.0000
  N   N3        1.0  0.14273317890801002  0.9130367728049081  0.831384016859005  1.0000
  N   N4        1.0  0.8572356405846762  0.0869669349257833  0.16860971691985335  1.0000
