data_image0
_chemical_formula_structural       Zn2H36C44N4O10
_chemical_formula_sum              "Zn2 H36 C44 N4 O10"
_cell_length_a       8.150515079581066
_cell_length_b       10.35259150713456
_cell_length_c       12.140854013388989
_cell_angle_alpha    78.04715053816365
_cell_angle_beta     71.42549880861849
_cell_angle_gamma    78.92992280135017

_space_group_name_H-M_alt    "P 1"
_space_group_IT_number       1

loop_
  _space_group_symop_operation_xyz
  'x, y, z'

loop_
  _atom_site_type_symbol
  _atom_site_label
  _atom_site_symmetry_multiplicity
  _atom_site_fract_x
  _atom_site_fract_y
  _atom_site_fract_z
  _atom_site_occupancy
  Zn  Zn1       1.0  0.7058294523630833  0.6711684285779923  0.6551697782859808  1.0000
  Zn  Zn2       1.0  0.294171454920189  0.3288309721464556  0.3448306618945411  1.0000
  H   H1        1.0  0.02567447964980833  0.6785893009146802  0.40928034928237633  1.0000
  H   H2        1.0  0.9743269945011832  0.3214140654599689  0.5907167712990219  1.0000
  H   H3        1.0  0.1734466515551603  0.858399603558169  0.2601311803737617  1.0000
  H   H4        1.0  0.8265548225958311  0.1416037628164872  0.7398659402076294  1.0000
  H   H5        1.0  0.040311041779595796  0.0994869629030148  0.2729440628447649  1.0000
  H   H6        1.0  0.9596906170987509  0.9005154218965148  0.7270548450491604  1.0000
  H   H7        1.0  0.7920191315545677  0.259980374011974  0.3736904466319332  1.0000
  H   H8        1.0  0.20797623028581558  0.74002098237753  0.6263075365409565  1.0000
  H   H9        1.0  0.5349459301126772  0.3038367549691472  0.5430651359421149  1.0000
  H   H10       1.0  0.46504943172770646  0.6961646014203495  0.45693284723077465  1.0000
  H   H11       1.0  0.3314997420283561  0.21435891564957635  0.7397090999513696  1.0000
  H   H12       1.0  0.6684969161650899  0.7856424501069055  0.26028942562823704  1.0000
  H   H13       1.0  0.22895758965613308  0.0164468706817829  0.8839553820552202  1.0000
  H   H14       1.0  0.7710394238559102  0.9835524869503587  0.11604178728301677  1.0000
  H   H15       1.0  0.38104273777810244  0.7856917790386007  0.8448530096219146  1.0000
  H   H16       1.0  0.6189596364494675  0.21430660450361216  0.15514482941141958  1.0000
  H   H17       1.0  0.42084481302782706  0.37231302367213465  0.006609217262138096  1.0000
  H   H18       1.0  0.5791588575528123  0.6276853692370565  0.9933891641779131  1.0000
  H   H19       1.0  0.2898215482228466  0.5217798059270677  0.974805342960501  1.0000
  H   H20       1.0  0.7101806530574705  0.4782195966686799  0.0251948178156597  1.0000
  H   H21       1.0  0.2607640214850376  0.19831035630691224  0.0803052047267983  1.0000
  H   H22       1.0  0.7392387174852144  0.8016860490936962  0.9196945653094634  1.0000
  H   H23       1.0  0.019929720938627302  0.0760169812374798  0.09082790413680902  1.0000
  H   H24       1.0  0.9800719087619354  0.9239784407167019  0.9091739326163409  1.0000
  H   H25       1.0  0.8337751585012042  0.1636530377847123  0.955422084919768  1.0000
  H   H26       1.0  0.16622205151829664  0.8363453757507172  0.04458098078635697  1.0000
  H   H27       1.0  0.8927109138885923  0.36735272472274255  0.8113365649195715  1.0000
  H   H28       1.0  0.107287590127946  0.6326456906839866  0.1886662213821993  1.0000
  H   H29       1.0  0.14503457101561423  0.6060105874287913  0.8219405118810318  1.0000
  H   H30       1.0  0.8549587546567351  0.3939878129970609  0.17806257022710545  1.0000
  H   H31       1.0  0.2795035186681503  0.5075389487059498  0.7140778500406102  1.0000
  H   H32       1.0  0.7204935160480729  0.49246047638733603  0.28592671559727745  1.0000
  H   H33       1.0  0.7747015243054847  0.5156216198961302  0.4956655315214251  1.0000
  H   H34       1.0  0.2253014238578643  0.484380751783327  0.5043314533459978  1.0000
  H   H35       1.0  0.6416215019077569  0.46304957135235003  0.625902682969489  1.0000
  H   H36       1.0  0.35837885590548507  0.5369527890888364  0.37409403889557796  1.0000
  C   C1        1.0  0.974418929877849  0.7835034929013815  0.4128365284825649  1.0000
  C   C2        1.0  0.025584949895893806  0.21650086628667253  0.5871590677886546  1.0000
  C   C3        1.0  0.05430202485362667  0.8856999223576947  0.32828624501532755  1.0000
  C   C4        1.0  0.945700565635107  0.1143044499504171  0.6717112742823945  1.0000
  C   C5        1.0  0.9816305146728508  0.016979129573030598  0.3354541272705804  1.0000
  C   C6        1.0  0.018369307806480672  0.9830262355589737  0.6645438071454709  1.0000
  C   C7        1.0  0.8288043033285176  0.04617323098123188  0.42747684371040867  1.0000
  C   C8        1.0  0.17120013298330872  0.9538281909771339  0.5725249363094775  1.0000
  C   C9        1.0  0.7422331286113957  0.17836724664356748  0.44094155699604465  1.0000
  C   C10       1.0  0.2577648212230769  0.8216341134885354  0.5590558673681303  1.0000
  C   C11       1.0  0.6003926173625445  0.20263101456273347  0.5347895317600263  1.0000
  C   C12       1.0  0.3996092144630623  0.797370351183254  0.46520705439107246  1.0000
  C   C13       1.0  0.5343667014557171  0.0952381988124458  0.6232843377073112  1.0000
  C   C14       1.0  0.4656336587135428  0.9047641691244193  0.3767132059688267  1.0000
  C   C15       1.0  0.3932155068018801  0.11389486852528559  0.7249204969681319  1.0000
  C   C16       1.0  0.606785218110055  0.8861055212699678  0.27507897771092643  1.0000
  C   C17       1.0  0.3370701754810027  0.0038163788020853027  0.8051398407241241  1.0000
  C   C18       1.0  0.6629257216932983  0.9961819728965935  0.19485692989778872  1.0000
  C   C19       1.0  0.4210615007236385  0.8756533428090593  0.7847746487718867  1.0000
  C   C20       1.0  0.5789432838387254  0.124346048537916  0.21522330957341762  1.0000
  C   C21       1.0  0.613058125462942  0.9622712973780522  0.6103700301457027  1.0000
  C   C22       1.0  0.38694519686715967  0.037729126142522794  0.38963217296893066  1.0000
  C   C23       1.0  0.7615632218449234  0.93718581334614  0.510742030455461  1.0000
  C   C24       1.0  0.2384413921261981  0.06281460455005569  0.48925907144374053  1.0000
  C   C25       1.0  0.491806510353541  0.4619044538176311  0.8249520394143348  1.0000
  C   C26       1.0  0.5081918065796245  0.538094935668539  0.17504813776383804  1.0000
  C   C27       1.0  0.35315201812191077  0.4275060426019337  0.9422767882823994  1.0000
  C   C28       1.0  0.6468490668206568  0.5724923540603442  0.05772297377744454  1.0000
  C   C29       1.0  0.21481863024802555  0.35116069255050764  0.9402069647243184  1.0000
  C   C30       1.0  0.7851828123691574  0.6488357034831153  0.05979226290522633  1.0000
  C   C31       1.0  0.18068994499733287  0.23426443226936297  0.02048941091488391  1.0000
  C   C32       1.0  0.8193069049915349  0.7657359743990425  0.9795133674104692  1.0000
  C   C33       1.0  0.0446170752642061  0.1664589315716895  0.027081027286357112  1.0000
  C   C34       1.0  0.9553858507894193  0.8335364997494777  0.9729213518735099  1.0000
  C   C35       1.0  0.9409342979783657  0.21500111455280543  0.9516288392787405  1.0000
  C   C36       1.0  0.059064561356770205  0.7849952927295831  0.0483725907816606  1.0000
  C   C37       1.0  0.9746519604053248  0.3304102737312249  0.8699192488678451  1.0000
  C   C38       1.0  0.025342486316809246  0.6695891476194615  0.13008587557875023  1.0000
  C   C39       1.0  0.11029282948597094  0.3995047395586013  0.8632181264542853  1.0000
  C   C40       1.0  0.8897019701987289  0.6004926661720588  0.1367848199398766  1.0000
  C   C41       1.0  0.1475525986021751  0.525023447358933  0.7750127639181488  1.0000
  C   C42       1.0  0.8524433150642565  0.4749749568095181  0.22498975938126622  1.0000
  C   C43       1.0  0.019175785735875195  0.5682028332891634  0.7029627664429443  1.0000
  C   C44       1.0  0.9808212466243234  0.4317965843084296  0.2970409773838655  1.0000
  N   N1        1.0  0.833116495146733  0.8087984498826515  0.5019621494848182  1.0000
  N   N2        1.0  0.16688775408172063  0.19120394615515574  0.49803702141146305  1.0000
  N   N3        1.0  0.5557463969749389  0.8557957818587526  0.6900863404274138  1.0000
  N   N4        1.0  0.4442595039251742  0.1442046154216996  0.3099120166342218  1.0000
  O   O1        1.0  0.5287597203714114  0.5810771111607238  0.80364055618567  1.0000
  O   O2        1.0  0.47123435218396975  0.4189242583488451  0.19635935001372226  1.0000
  O   O3        1.0  0.5598582231593737  0.3748884434202182  0.7577478542348859  1.0000
  O   O4        1.0  0.44014250175256103  0.6251119463750356  0.24225162044417917  1.0000
  O   O5        1.0  0.8831583243139818  0.6494320895988891  0.7440006134657653  1.0000
  O   O6        1.0  0.11683888099347677  0.35056630894518287  0.25600080861821795  1.0000
  O   O7        1.0  0.046721812428963005  0.5227043117103348  0.6088807811998933  1.0000
  O   O8        1.0  0.9532800019989482  0.47729012866872705  0.3911228428657837  1.0000
  O   O9        1.0  0.6694221860422543  0.5420278607479005  0.5614282549135867  1.0000
  O   O10       1.0  0.3305792881087298  0.4579755056267487  0.4385688656678114  1.0000
