data_image0
_chemical_formula_structural       Gd2P6H42C36N6O24
_chemical_formula_sum              "Gd2 P6 H42 C36 N6 O24"
_cell_length_a       9.959324249014001
_cell_length_b       13.091384581499565
_cell_length_c       13.093764958608269
_cell_angle_alpha    113.85127530249837
_cell_angle_beta     104.67520178158591
_cell_angle_gamma    104.66866976491342

_space_group_name_H-M_alt    "P 1"
_space_group_IT_number       1

loop_
  _space_group_symop_operation_xyz
  'x, y, z'

loop_
  _atom_site_type_symbol
  _atom_site_label
  _atom_site_symmetry_multiplicity
  _atom_site_fract_x
  _atom_site_fract_y
  _atom_site_fract_z
  _atom_site_occupancy
  Gd  Gd1       1.0  2.1186995197076878e-06  0.9999993173332198  0.9999976941685058  1.0000
  Gd  Gd2       1.0  0.5000079020970957  0.9999997702995032  4.748515088441747e-06  1.0000
  P   P1        1.0  0.769384809721707  0.9263323155939459  0.16248297461550704  1.0000
  P   P2        1.0  0.8432912041090718  0.23638285416237884  0.07373970679709883  1.0000
  P   P3        1.0  0.6068270103962375  0.8374659805245696  0.7634367430043195  1.0000
  P   P4        1.0  0.2306231386794408  0.0736610900115693  0.8375116285641153  1.0000
  P   P5        1.0  0.15671178188242144  0.7636151146350866  0.926258867334361  1.0000
  P   P6        1.0  0.39317400641729705  0.1625383757489089  0.23656787126652995  1.0000
  H   H1        1.0  0.6840611131903175  0.47759489234605473  0.1773301743516171  1.0000
  H   H2        1.0  0.20739831990871246  0.7000584104755774  0.5225880078748018  1.0000
  H   H3        1.0  0.5078225506750017  0.8226743539453166  0.29987205549830503  1.0000
  H   H4        1.0  0.3159427961252915  0.5224049014071993  0.8226708423552507  1.0000
  H   H5        1.0  0.7925838293338998  0.29994138878224413  0.4774134870604171  1.0000
  H   H6        1.0  0.4921834516979046  0.17732544051273888  0.7001316476822054  1.0000
  H   H7        1.0  0.5690017651681103  0.6312672682094699  0.17864104233643716  1.0000
  H   H8        1.0  0.9385809587194274  0.5478338963502267  0.3692064581779063  1.0000
  H   H9        1.0  0.39115016326387314  0.8209454681776122  0.45187344442290817  1.0000
  H   H10       1.0  0.43100303853447025  0.3687343487789363  0.8213585921189546  1.0000
  H   H11       1.0  0.061405270120737016  0.4521595171687594  0.6307939779877001  1.0000
  H   H12       1.0  0.6088560797306639  0.17905067672950986  0.5481272951150584  1.0000
  H   H13       1.0  0.8082183421087522  0.7007303724791001  0.9645227060159554  1.0000
  H   H14       1.0  0.1076370421975099  0.2636168293051924  0.29891164585611557  1.0000
  H   H15       1.0  0.8440245635499934  0.03586748117877649  0.7362419044912796  1.0000
  H   H16       1.0  0.19178486714208282  0.2992639457350492  0.0354706095768265  1.0000
  H   H17       1.0  0.8923635696030486  0.736384785929502  0.7010818506866127  1.0000
  H   H18       1.0  0.15596569649375874  0.964142350026698  0.26376290245968176  1.0000
  H   H19       1.0  0.909149167054153  0.5470811507005138  0.9705255435771816  1.0000
  H   H20       1.0  0.36204611590721203  0.4230143350453161  0.453161777447036  1.0000
  H   H21       1.0  0.9393110946525454  0.029900620707600495  0.5768475980459654  1.0000
  H   H22       1.0  0.09085798768963835  0.4529168184741438  0.029476108605436473  1.0000
  H   H23       1.0  0.6379515918164032  0.5769918420213428  0.5468337867289177  1.0000
  H   H24       1.0  0.06069253131051522  0.9701110327998207  0.4231604710147464  1.0000
  H   H25       1.0  0.5747663551580189  0.7527541094897573  0.9745314346818856  1.0000
  H   H26       1.0  0.8219716363141457  0.22200322130154146  0.24706488915747826  1.0000
  H   H27       1.0  0.6002067306843699  0.0253467424772111  0.7778685079606332  1.0000
  H   H28       1.0  0.4252383420275194  0.2472411203502317  0.025461768056608488  1.0000
  H   H29       1.0  0.1780165676157993  0.777998398651782  0.7529323776431696  1.0000
  H   H30       1.0  0.3997840337523613  0.9746557910029235  0.22213343156674611  1.0000
  H   H31       1.0  0.7691086029523504  0.9329207589418614  0.36801347252777816  1.0000
  H   H32       1.0  0.8355257486526995  0.435384990901866  0.06734115483245508  1.0000
  H   H33       1.0  0.4006187446161178  0.631911239884232  0.5647145148935377  1.0000
  H   H34       1.0  0.2308917543084092  0.0670781242014229  0.6319887953866256  1.0000
  H   H35       1.0  0.16447712281540555  0.5646148030151962  0.9326596660856621  1.0000
  H   H36       1.0  0.5993678626431772  0.3680912939069784  0.43528587651343276  1.0000
  H   H37       1.0  0.42978591252536086  0.7926173157298206  0.07436741727451579  1.0000
  H   H38       1.0  0.6379084551948038  0.2825486050961388  0.2079650196987116  1.0000
  H   H39       1.0  0.3554647367642902  0.9251139388975461  0.7173687911041283  1.0000
  H   H40       1.0  0.5702141773955276  0.20737700263160258  0.9256245459866147  1.0000
  H   H41       1.0  0.36208807466488935  0.7174530149233149  0.7920368732735026  1.0000
  H   H42       1.0  0.644534534006219  0.07487856070241608  0.282634498958373  1.0000
  C   C1        1.0  0.7055719715285135  0.53099039401787  0.1328362901357848  1.0000
  C   C2        1.0  0.17528087074555998  0.6020289916410347  0.4692308146416762  1.0000
  C   C3        1.0  0.5736728199478663  0.8671617431639262  0.397847178604337  1.0000
  C   C4        1.0  0.2944315050621924  0.4690084889781403  0.8671673301102626  1.0000
  C   C5        1.0  0.8247027918003839  0.3979635080070024  0.5307641838318273  1.0000
  C   C6        1.0  0.4263314017818375  0.1328407861220526  0.60215271638463  1.0000
  C   C7        1.0  0.6452842034510197  0.615389772469811  0.1332646792545232  1.0000
  C   C8        1.0  0.030568937170713188  0.5181641430123419  0.38491715167518226  1.0000
  C   C9        1.0  0.5127810669642656  0.86657140535889  0.48164195753113137  1.0000
  C   C10       1.0  0.35471820635502377  0.38460910896935013  0.866734920375883  1.0000
  C   C11       1.0  0.9694287682095962  0.4818356531002266  0.615085750160645  1.0000
  C   C12       1.0  0.48721500702080067  0.1334293025267854  0.5183594791187572  1.0000
  C   C13       1.0  0.678573966870168  0.6771340001846154  0.07071556596475387  1.0000
  C   C14       1.0  0.001902108808636239  0.3937237306438774  0.32291283892033806  1.0000
  C   C15       1.0  0.608372701749829  0.929225863190858  0.6061022876424287  1.0000
  C   C16       1.0  0.32143050126860107  0.3228648798945669  0.9292821303470401  1.0000
  C   C17       1.0  0.9980910864681221  0.6062733278381458  0.6770842817553484  1.0000
  C   C18       1.0  0.3916271453305171  0.07078031733362879  0.39390208273018595  1.0000
  C   C19       1.0  0.7758477396413354  0.6529967316932356  0.011623552292697006  1.0000
  C   C20       1.0  0.12312625198836716  0.3585524108626572  0.34691105888913387  1.0000
  C   C21       1.0  0.7646904016172514  0.9886221606553675  0.6412944559111508  1.0000
  C   C22       1.0  0.22415744814340852  0.34699941234530474  0.9883746965603846  1.0000
  C   C23       1.0  0.8768695177133452  0.641451942788521  0.6530849267841601  1.0000
  C   C24       1.0  0.23530938536988794  0.0113922290399557  0.3587117082766225  1.0000
  C   C25       1.0  0.8327198821692361  0.567829002789608  0.014498010088615797  1.0000
  C   C26       1.0  0.2650928052532961  0.44645237452505165  0.4323355771053342  1.0000
  C   C27       1.0  0.8188926758497815  0.9858824210910556  0.5534022259176297  1.0000
  C   C28       1.0  0.16728506499387666  0.43217079079985155  0.9855032024070095  1.0000
  C   C29       1.0  0.7349048364652829  0.5535474178021004  0.5676589101113547  1.0000
  C   C30       1.0  0.1811079453067208  0.014127407444036098  0.4466022440247811  1.0000
  C   C31       1.0  0.6150638189643516  0.7678350576996847  0.06828868985139981  1.0000
  C   C32       1.0  0.8476026086389581  0.3008077376231596  0.23222237692358755  1.0000
  C   C33       1.0  0.5469929057329351  0.9315756314337376  0.6990528754463123  1.0000
  C   C34       1.0  0.3849392699756606  0.23216108528993118  0.9317061075626537  1.0000
  C   C35       1.0  0.15239101936271018  0.6991902316161144  0.7677721402129263  1.0000
  C   C36       1.0  0.4530052207974222  0.06842507474782168  0.3009458929195857  1.0000
  N   N1        1.0  0.7963107876057975  0.5085984495104297  0.07356326323257174  1.0000
  N   N2        1.0  0.2881393212144446  0.5649090365743916  0.4916122868602029  1.0000
  N   N3        1.0  0.7236343272911796  0.9266434547045392  0.43497375665955196  1.0000
  N   N4        1.0  0.2036963729254281  0.49139952000835757  0.9264391539154243  1.0000
  N   N5        1.0  0.7118522172984499  0.4350971449163552  0.5083897522369722  1.0000
  N   N6        1.0  0.2763692210919899  0.0733618133751079  0.5650317055111385  1.0000
  O   O1        1.0  0.6792976165637227  0.006873029476345498  0.1553050698274419  1.0000
  O   O2        1.0  0.6727596077549762  0.1483400030966422  0.9932699832122719  1.0000
  O   O3        1.0  0.5235511455795459  0.8446742937313017  0.8509206844055437  1.0000
  O   O4        1.0  0.3207146418313582  0.9931267657195587  0.8447036329124981  1.0000
  O   O5        1.0  0.3272455800297677  0.8516561409418911  0.006728265640809338  1.0000
  O   O6        1.0  0.4764650838015214  0.1553355347557144  0.14909207712586434  1.0000
  O   O7        1.0  0.87839816807994  0.9322158080914772  0.09984138167252582  1.0000
  O   O8        1.0  0.9465340556816172  0.1679084406978149  0.0678497200670378  1.0000
  O   O9        1.0  0.7784267149503705  0.9001324971510627  0.8323235808691151  1.0000
  O   O10       1.0  0.1216045852962679  0.0677775979889077  0.90015147759793  1.0000
  O   O11       1.0  0.053475696636851824  0.8320968250225178  0.932153856974686  1.0000
  O   O12       1.0  0.22157676398364157  0.09987276679903087  0.16767270171705204  1.0000
  O   O13       1.0  0.8430823191144867  0.950999665765778  0.2917708910508308  1.0000
  O   O14       1.0  0.8919487731151605  0.341019930707958  0.049039707281558285  1.0000
  O   O15       1.0  0.551343618495494  0.7081588954030095  0.6586571972999022  1.0000
  O   O16       1.0  0.1569209073742428  0.04898005991454112  0.7082226136290259  1.0000
  O   O17       1.0  0.10805062609690455  0.6589771254147507  0.9509555282651758  1.0000
  O   O18       1.0  0.44864774527640344  0.2918427268119571  0.3413467765900363  1.0000
  O   O19       1.0  0.4965952216459613  0.7599993090709346  0.11061570163316493  1.0000
  O   O20       1.0  0.7372586660819209  0.3513067216369521  0.24020767723308714  1.0000
  O   O21       1.0  0.38618601133098446  0.8891237362440448  0.6485337731641462  1.0000
  O   O22       1.0  0.5034059119098657  0.23999500947081734  0.8893772223821014  1.0000
  O   O23       1.0  0.26273642091729943  0.6486921575075114  0.7597829022222552  1.0000
  O   O24       1.0  0.6138110402839771  0.1108705870824593  0.35146754728061314  1.0000
