data_image0
_chemical_formula_structural       Zn4H40C16S4N8O12
_chemical_formula_sum              "Zn4 H40 C16 S4 N8 O12"
_cell_length_a       7.274403842000084
_cell_length_b       8.276015468000342
_cell_length_c       12.137608867000589
_cell_angle_alpha    90.00003204623253
_cell_angle_beta     90.00001567618389
_cell_angle_gamma    90.00000753392749

_space_group_name_H-M_alt    "P 1"
_space_group_IT_number       1

loop_
  _space_group_symop_operation_xyz
  'x, y, z'

loop_
  _atom_site_type_symbol
  _atom_site_label
  _atom_site_symmetry_multiplicity
  _atom_site_fract_x
  _atom_site_fract_y
  _atom_site_fract_z
  _atom_site_occupancy
  Zn  Zn1       1.0  0.08840592038699667  0.6365913776968026  0.013576113955423397  1.0000
  Zn  Zn2       1.0  0.41159401012910024  0.3634082069080407  0.5135765470101958  1.0000
  Zn  Zn3       1.0  0.9115950976747484  0.13659255402033207  0.4864237502392965  1.0000
  Zn  Zn4       1.0  0.5884058950466482  0.8634074766493142  0.9864251447852438  1.0000
  H   H1        1.0  0.37268353649697156  0.6123744748779171  0.1316751763662936  1.0000
  H   H2        1.0  0.12731644788635782  0.387626414931077  0.6316747481145129  1.0000
  H   H3        1.0  0.6273161032797245  0.11237431295290887  0.36832550247979867  1.0000
  H   H4        1.0  0.8726834608912455  0.8876256208231081  0.868325305144175  1.0000
  H   H5        1.0  0.4212923830990504  0.6498865797869938  0.348783847777021  1.0000
  H   H6        1.0  0.07870770031177439  0.35011327983637125  0.8487833972443182  1.0000
  H   H7        1.0  0.5787086369403127  0.14988623408648746  0.15121684537229638  1.0000
  H   H8        1.0  0.9212922028859865  0.850113521563955  0.6512158178255234  1.0000
  H   H9        1.0  0.21517516787879742  0.6696183168087374  0.42535081006340647  1.0000
  H   H10       1.0  0.28482495045574296  0.3303816056334836  0.9253503858346616  1.0000
  H   H11       1.0  0.7848244804123823  0.1696179322482791  0.07464989060938618  1.0000
  H   H12       1.0  0.7151749498071922  0.8303829688941703  0.5746488217118182  1.0000
  H   H13       1.0  0.0255664616663864  0.6211420113995841  0.25975556613615675  1.0000
  H   H14       1.0  0.4744335811370632  0.37885777518150826  0.7597560153948206  1.0000
  H   H15       1.0  0.9744331794141203  0.12114057642934738  0.24024429216719764  1.0000
  H   H16       1.0  0.5255677010194618  0.8788580439524336  0.7402440345207493  1.0000
  H   H17       1.0  0.1783528721910415  0.787439428381816  0.23670494174396584  1.0000
  H   H18       1.0  0.3216457854154484  0.2125603392874353  0.7367053025192687  1.0000
  H   H19       1.0  0.8216467936247653  0.28743920287445224  0.26329497996785983  1.0000
  H   H20       1.0  0.6783540973227672  0.7125606447300257  0.7632946839879435  1.0000
  H   H21       1.0  0.3309564114956274  0.21742239795453594  0.28552912445304196  1.0000
  H   H22       1.0  0.1690450177465905  0.7825774097720809  0.7855288536422832  1.0000
  H   H23       1.0  0.6690432439058254  0.7174226622576539  0.21447077056178895  1.0000
  H   H24       1.0  0.8309562500890734  0.28257714528954386  0.7144711595620379  1.0000
  H   H25       1.0  0.4947444111516716  0.3765871576278669  0.266157972265141  1.0000
  H   H26       1.0  0.005257009255053901  0.6234138425167256  0.766157613885454  1.0000
  H   H27       1.0  0.5052566426070868  0.8765862104744427  0.23384198343818235  1.0000
  H   H28       1.0  0.9947442349064983  0.12341361296579832  0.7338423386307298  1.0000
  H   H29       1.0  0.31549119297297773  0.3405008719844814  0.09769066668246745  1.0000
  H   H30       1.0  0.18451015059245887  0.659499989942276  0.5976903514809135  1.0000
  H   H31       1.0  0.6845098554182839  0.8405000838852033  0.4023092752613948  1.0000
  H   H32       1.0  0.8154897242534884  0.1594998777727881  0.9023096147946175  1.0000
  H   H33       1.0  0.1037171551456666  0.3539385148580648  0.16901277218558863  1.0000
  H   H34       1.0  0.39628284626821386  0.6460611972737595  0.6690133105014409  1.0000
  H   H35       1.0  0.8962838952444085  0.8539389011705011  0.33098717488218904  1.0000
  H   H36       1.0  0.6037170265788275  0.14606100197148209  0.83098665064994  1.0000
  H   H37       1.0  0.14629526848084848  0.39749217594951597  0.3906330412737091  1.0000
  H   H38       1.0  0.3537048340184441  0.6025077180091286  0.8906335559950163  1.0000
  H   H39       1.0  0.8537044137041362  0.8974923754854629  0.10936609851517429  1.0000
  H   H40       1.0  0.6462964070337804  0.1025085541406412  0.6093672124354866  1.0000
  C   C1        1.0  0.277368559796095  0.6103337232588044  0.35373126087828405  1.0000
  C   C2        1.0  0.2226315258713498  0.38966614042364967  0.8537308490473375  1.0000
  C   C3        1.0  0.7226324543599604  0.11033339022851857  0.1462685933042565  1.0000
  C   C4        1.0  0.7773683832095344  0.8896663613625009  0.6462683811037735  1.0000
  C   C5        1.0  0.17078386050838648  0.6564911525601927  0.2506763665365384  1.0000
  C   C6        1.0  0.3292161781538497  0.3435086265719177  0.7506767784839923  1.0000
  C   C7        1.0  0.8292157858300654  0.15649091646986335  0.24932350524546368  1.0000
  C   C8        1.0  0.6707837240617138  0.8435089196717552  0.749323257953044  1.0000
  C   C9        1.0  0.34749660534071575  0.3478873504796453  0.2729146397297555  1.0000
  C   C10       1.0  0.15249931941539066  0.6521124468971635  0.7729143164584682  1.0000
  C   C11       1.0  0.6524989454168234  0.847886414898447  0.22708530503005153  1.0000
  C   C12       1.0  0.847497804965613  0.15211340299807563  0.7270856470002157  1.0000
  C   C13       1.0  0.24652198759314095  0.39686135220399876  0.16816336613238997  1.0000
  C   C14       1.0  0.25347801343311  0.6031383592305841  0.6681630407596725  1.0000
  C   C15       1.0  0.753477694498315  0.8968605143030925  0.33183742118677617  1.0000
  C   C16       1.0  0.7465218530295558  0.10313818122546078  0.8318369040254792  1.0000
  S   S1        1.0  0.1965370715700345  0.011637259547889302  0.013398868299482598  1.0000
  S   S2        1.0  0.3034628588651741  0.9883635332222195  0.5133986980141001  1.0000
  S   S3        1.0  0.803462553222701  0.5116365544322717  0.4866009482504835  1.0000
  S   S4        1.0  0.6965370648961126  0.48836226807134847  0.9866013936549791  1.0000
  N   N1        1.0  0.2415401452699371  0.5742135990878978  0.15075305106255846  1.0000
  N   N2        1.0  0.25845984781529546  0.4257860980628223  0.6507534827695662  1.0000
  N   N3        1.0  0.7584594888304962  0.07421343675427747  0.3492467893475037  1.0000
  N   N4        1.0  0.7415400666383006  0.925786481368732  0.8492465850394095  1.0000
  N   N5        1.0  0.2792243730526209  0.43315305685417366  0.3723798756369731  1.0000
  N   N6        1.0  0.22077572112084448  0.56684682212844  0.8723795310594225  1.0000
  N   N7        1.0  0.7207766891199723  0.9331520476040039  0.1276209255200911  1.0000
  N   N8        1.0  0.7792255146268801  0.06684648037667532  0.6276203998880587  1.0000
  O   O1        1.0  0.04752858592896559  0.8724081582340872  0.9982602173838016  1.0000
  O   O2        1.0  0.45247156566116337  0.12759182402643887  0.4982604738855726  1.0000
  O   O3        1.0  0.9524726952681845  0.3724077333425908  0.501739830072438  1.0000
  O   O4        1.0  0.5475280763788034  0.6275918996706976  0.0017393868773467993  1.0000
  O   O5        1.0  0.35583562947704905  0.9590041701327862  0.9351217935854661  1.0000
  O   O6        1.0  0.14416449331418588  0.04099576032587748  0.4351211425844354  1.0000
  O   O7        1.0  0.6441642899176473  0.45900496951652053  0.5648791107749529  1.0000
  O   O8        1.0  0.8558351358453321  0.5409947152988862  0.06487868515969099  1.0000
  O   O9        1.0  0.2672384975125722  0.9964977226323342  0.1289514754690018  1.0000
  O   O10       1.0  0.2327614856284868  0.003501956631367899  0.6289517419439503  1.0000
  O   O11       1.0  0.7327625740819244  0.49649878350958676  0.3710485259559064  1.0000
  O   O12       1.0  0.7672383660144106  0.5035023608118009  0.871048988736035  1.0000
