data_image0
_chemical_formula_structural       Zn2H16C18O16
_chemical_formula_sum              "Zn2 H16 C18 O16"
_cell_length_a       6.955607005575755
_cell_length_b       6.996587749605874
_cell_length_c       12.543798516835455
_cell_angle_alpha    74.43367778983765
_cell_angle_beta     87.65918291515298
_cell_angle_gamma    65.23458949394985

_space_group_name_H-M_alt    "P 1"
_space_group_IT_number       1

loop_
  _space_group_symop_operation_xyz
  'x, y, z'

loop_
  _atom_site_type_symbol
  _atom_site_label
  _atom_site_symmetry_multiplicity
  _atom_site_fract_x
  _atom_site_fract_y
  _atom_site_fract_z
  _atom_site_occupancy
  Zn  Zn1       1.0  0.49999958261939514  0.5000003029258691  0.9999963694244087  1.0000
  Zn  Zn2       1.0  0.9999981945233003  1.2457434052963239e-06  0.9999973207747672  1.0000
  H   H1        1.0  0.15685983025858247  0.7667200319478197  0.643560981890829  1.0000
  H   H2        1.0  0.8431356344384754  0.23327483591835824  0.35643951041664923  1.0000
  H   H3        1.0  0.5878838728909839  0.11791658381960697  0.12174413121900328  1.0000
  H   H4        1.0  0.41211807573319703  0.8820833906009754  0.8782547821969472  1.0000
  H   H5        1.0  0.489686559330046  0.2687200999956331  0.20437860682112327  1.0000
  H   H6        1.0  0.5103152850386792  0.7312730867244281  0.795625212845614  1.0000
  H   H7        1.0  0.09264802358651979  0.5915718106804845  0.05003837258411889  1.0000
  H   H8        1.0  0.9073518283955975  0.4084330390326513  0.9499607090474383  1.0000
  H   H9        1.0  0.09485033493929512  0.6293283538872172  0.9183079314328636  1.0000
  H   H10       1.0  0.9051509168641373  0.37067637361065664  0.08169433702592947  1.0000
  H   H11       1.0  0.2219494956440329  0.8233892811251945  0.3654379371975693  1.0000
  H   H12       1.0  0.7780495762204891  0.17661364525932294  0.6345669978733355  1.0000
  H   H13       1.0  0.8003350909328332  0.7018482733039801  0.5402025507921095  1.0000
  H   H14       1.0  0.199667574933123  0.2981532905613448  0.45979773274737556  1.0000
  H   H15       1.0  0.9861026291093751  0.6773818597116512  0.3659611267341917  1.0000
  H   H16       1.0  0.01389790545228914  0.3226212783414795  0.63403977160106  1.0000
  C   C1        1.0  0.8275965938457474  0.7183557245093224  0.16696670181523388  1.0000
  C   C2        1.0  0.17239754008564737  0.28164898339530703  0.8330332770150547  1.0000
  C   C3        1.0  0.3794284524845111  0.7881884975871998  0.16604271827597467  1.0000
  C   C4        1.0  0.6205777238172275  0.21180814296673836  0.8339589786389394  1.0000
  C   C5        1.0  0.3893803472194223  0.7906479516709125  0.36670771932225676  1.0000
  C   C6        1.0  0.6106144902501283  0.20935515586833728  0.6332916683574297  1.0000
  C   C7        1.0  0.49253809423619543  0.7735110081156048  0.26969911349934256  1.0000
  C   C8        1.0  0.507464620264379  0.22649393105088217  0.7302991182237974  1.0000
  C   C9        1.0  0.5016225907306902  0.759413132970174  0.4647352245640092  1.0000
  C   C10       1.0  0.49837644674040144  0.24058337669589486  0.5352665905766898  1.0000
  C   C11       1.0  0.7097855276173846  0.7280556208579082  0.27034335081405203  1.0000
  C   C12       1.0  0.29020786811362587  0.27194738630735316  0.7296576657469912  1.0000
  C   C13       1.0  0.7164569285881938  0.7212902525072308  0.46388425729629296  1.0000
  C   C14       1.0  0.2835442818356099  0.27870802117398336  0.5361156938504051  1.0000
  C   C15       1.0  0.8192283741298921  0.7071042268485144  0.3671418599445602  1.0000
  C   C16       1.0  0.1807785613308396  0.2928942257394097  0.6328563913853102  1.0000
  C   C17       1.0  0.40607300060103296  0.7550442737334674  0.5723209314139197  1.0000
  C   C18       1.0  0.5939147891272893  0.24495606958091537  0.4276645739459397  1.0000
  O   O1        1.0  0.9685031095072602  0.5367721046583681  0.1589966572246766  1.0000
  O   O2        1.0  0.03150097015242176  0.46322941118811656  0.8410052079058515  1.0000
  O   O3        1.0  0.5052745150860999  0.7223235160035414  0.6592543837165649  1.0000
  O   O4        1.0  0.4947301294628374  0.2776631950585937  0.34074867658395647  1.0000
  O   O5        1.0  0.7852710946948778  0.9058033123975303  0.09806550811581621  1.0000
  O   O6        1.0  0.21472512889237544  0.09419648311634178  0.9019351051169622  1.0000
  O   O7        1.0  0.47400325364865387  0.26058372765980653  0.1281725795711637  1.0000
  O   O8        1.0  0.5260001087692528  0.7394161987419351  0.8718279154358226  1.0000
  O   O9        1.0  0.4998215846366633  0.682726508162254  0.10323274403272363  1.0000
  O   O10       1.0  0.5001852672584236  0.31726838363347537  0.8967715722039743  1.0000
  O   O11       1.0  0.1469252943202548  0.6617517419877215  0.9805743585838371  1.0000
  O   O12       1.0  0.8530830756240134  0.3382498894896954  0.01942663299311681  1.0000
  O   O13       1.0  0.20117010093650128  0.7845928591240178  0.567574597531994  1.0000
  O   O14       1.0  0.7988233017807148  0.21541018513944718  0.4324256164109456  1.0000
  O   O15       1.0  0.1793198744780824  0.8997654020545623  0.1505427903913983  1.0000
  O   O16       1.0  0.8206798109103346  0.10022609484676077  0.8494612880331474  1.0000
