data_image0
_chemical_formula_structural       Zn8P8H40C24N8O24
_chemical_formula_sum              "Zn8 P8 H40 C24 N8 O24"
_cell_length_a       8.665260894
_cell_length_b       9.317523150028661
_cell_length_c       15.005
_cell_angle_alpha    90.0
_cell_angle_beta     90.0
_cell_angle_gamma    109.13402259430464

_space_group_name_H-M_alt    "P 1"
_space_group_IT_number       1

loop_
  _space_group_symop_operation_xyz
  'x, y, z'

loop_
  _atom_site_type_symbol
  _atom_site_label
  _atom_site_symmetry_multiplicity
  _atom_site_fract_x
  _atom_site_fract_y
  _atom_site_fract_z
  _atom_site_occupancy
  Zn  Zn1       1.0  0.4036528533941492  0.0365566690430157  0.3568850383205628  1.0000
  Zn  Zn2       1.0  0.09634681219171168  0.9634431741881713  0.8568850383205626  1.0000
  Zn  Zn3       1.0  0.5963467606064228  0.9634431741881713  0.6431149616794369  1.0000
  Zn  Zn4       1.0  0.9036528018088603  0.0365566690430157  0.1431149616794372  1.0000
  Zn  Zn5       1.0  0.07460418997415988  0.5324289133134315  0.25279573475508227  1.0000
  Zn  Zn6       1.0  0.42539547561170815  0.4675709299177555  0.7527957347550822  1.0000
  Zn  Zn7       1.0  0.92539582441389  0.46757206592362616  0.7472042652449175  1.0000
  Zn  Zn8       1.0  0.5746041383888637  0.5324289133134315  0.24720426524491754  1.0000
  P   P1        1.0  0.3970980662942623  0.6965510900272847  0.3726511162945698  1.0000
  P   P2        1.0  0.1029015992915987  0.3034487532039023  0.8726511162945696  1.0000
  P   P3        1.0  0.6029019480937876  0.3034498892097801  0.6273482172609162  1.0000
  P   P4        1.0  0.8970980147089733  0.6965510900272847  0.1273482172609164  1.0000
  P   P5        1.0  0.7425971187290585  0.3315319544286552  0.3524951682772438  1.0000
  P   P6        1.0  0.7574020432987467  0.668466752796661  0.8524951682772437  1.0000
  P   P7        1.0  0.2574020948840356  0.668466752796661  0.6475048317227559  1.0000
  P   P8        1.0  0.2425975707018253  0.3315330904345259  0.14750483172275605  1.0000
  H   H1        1.0  0.4473706483485387  0.6143383448861073  0.4391889370209938  1.0000
  H   H2        1.0  0.052629017237329385  0.3856614983450797  0.9391889370209936  1.0000
  H   H3        1.0  0.552630520072853  0.3856626343509575  0.560811062979006  1.0000
  H   H4        1.0  0.9473701963757719  0.6143372088802366  0.06081106297900619  1.0000
  H   H5        1.0  0.8002243707382348  0.335747672229104  0.4409656781072967  1.0000
  H   H6        1.0  0.6997736372562285  0.6642510349962052  0.9409656781072966  1.0000
  H   H7        1.0  0.19977484287485933  0.6642510349962052  0.559034321892703  1.0000
  H   H8        1.0  0.3002244223235238  0.335747672229104  0.05903432189270318  1.0000
  H   H9        1.0  0.3053492840152572  0.3122834708902786  0.3647364211929371  1.0000
  H   H10       1.0  0.19465038157061088  0.6877163723409083  0.8647364211929371  1.0000
  H   H11       1.0  0.6946503299853147  0.6877163723409083  0.6352642452515835  1.0000
  H   H12       1.0  0.8053492324299611  0.3122834708902786  0.1352635788070629  1.0000
  H   H13       1.0  0.14891570278157215  0.4210662574313062  0.46947217594135526  1.0000
  H   H14       1.0  0.35108551722510833  0.5789347218057586  0.969472842385869  1.0000
  H   H15       1.0  0.8510850652523416  0.5789335857998879  0.5305278240586446  1.0000
  H   H16       1.0  0.6489156511962832  0.4210662574313062  0.030527824058644595  1.0000
  H   H17       1.0  0.03944592413354536  0.2787474414676865  0.6117047650783076  1.0000
  H   H18       1.0  0.46055334106483764  0.7212512657576227  0.11170543152282868  1.0000
  H   H19       1.0  0.9605532894795487  0.7212512657576227  0.3882952349216921  1.0000
  H   H20       1.0  0.5394451189023854  0.2787485774735643  0.8882952349216919  1.0000
  H   H21       1.0  0.25608235154328435  0.9434437907667216  0.5298967010996307  1.0000
  H   H22       1.0  0.24391691365509868  0.0565549164585946  0.0298960346551169  1.0000
  H   H23       1.0  0.7439172624572876  0.0565560524644653  0.47010396534488297  1.0000
  H   H24       1.0  0.7560827003454732  0.9434449267725925  0.9701032989003693  1.0000
  H   H25       1.0  0.9819976764363856  0.0553507502315682  0.6944411862712413  1.0000
  H   H26       1.0  0.5180014855914193  0.9446479569937409  0.19444118627124135  1.0000
  H   H27       1.0  0.018002691210057254  0.9446479569937409  0.3055588137287585  1.0000
  H   H28       1.0  0.4819981284091525  0.055351886237446  0.8055588137287584  1.0000
  H   H29       1.0  0.01393162788034626  0.8901253550447166  0.6511802732422536  1.0000
  H   H30       1.0  0.48606648328469504  0.1098733521805926  0.15118027324225375  1.0000
  H   H31       1.0  0.9860679861202257  0.1098744881864704  0.3488197267577461  1.0000
  H   H32       1.0  0.5139331307158769  0.8901264910505944  0.848819726757746  1.0000
  H   H33       1.0  0.28685664144799006  0.1263249892558278  0.7336894368543838  1.0000
  H   H34       1.0  0.21314262375039303  0.8736737179694885  0.2336887704098629  1.0000
  H   H35       1.0  0.713142972552582  0.8736748539753592  0.266311229590137  1.0000
  H   H36       1.0  0.7868569902501789  0.1263261252616985  0.7663105631456162  1.0000
  H   H37       1.0  0.2615990280931371  0.9461429407246486  0.7152215928024005  1.0000
  H   H38       1.0  0.2384006374927239  0.0538569025065385  0.2152209263578797  1.0000
  H   H39       1.0  0.7384017399407766  0.0538569025065385  0.2847790736421202  1.0000
  H   H40       1.0  0.7615982228619771  0.9461440767305263  0.7847784071975992  1.0000
  C   C1        1.0  0.2569042384695734  0.2563522216568117  0.4274768410529787  1.0000
  C   C2        1.0  0.24309542711628748  0.7436476215743753  0.9274768410529786  1.0000
  C   C3        1.0  0.7430953755309986  0.7436476215743753  0.572523158947014  1.0000
  C   C4        1.0  0.7569041868842844  0.2563522216568117  0.07252382539153497  1.0000
  C   C5        1.0  0.1694440982853749  0.3151995979702491  0.48628857047651036  1.0000
  C   C6        1.0  0.3305555673004861  0.684800245260945  0.9862879040319895  1.0000
  C   C7        1.0  0.8305555157151969  0.684800245260945  0.5137120959680104  1.0000
  C   C8        1.0  0.6694463547667695  0.3151995979702491  0.013711429523489499  1.0000
  C   C9        1.0  0.10971704658364698  0.23588934783854404  0.5645978007330896  1.0000
  C   C10       1.0  0.390282619002221  0.764110495392643  0.0645978007330896  1.0000
  C   C11       1.0  0.8902825674169248  0.764110495392643  0.43540219926691026  1.0000
  C   C12       1.0  0.6097162413524869  0.23589048384442182  0.9354028657114312  1.0000
  C   C13       1.0  0.2282486818342662  0.0482711616213791  0.5201659446851039  1.0000
  C   C14       1.0  0.27175098375160184  0.9517286816098149  0.0201659446851039  1.0000
  C   C15       1.0  0.7717509321663057  0.9517286816098149  0.479834055314896  1.0000
  C   C16       1.0  0.72824863024897  0.0482711616213791  0.9798340553148959  1.0000
  C   C17       1.0  0.1392067553368506  0.0999423888252764  0.5825371542819082  1.0000
  C   C18       1.0  0.36079175621567566  0.9000574544059106  0.0825371542819084  1.0000
  C   C19       1.0  0.8607928586637286  0.9000574544059106  0.4174628457180916  1.0000
  C   C20       1.0  0.6392082581723741  0.0999435248311542  0.9174628457180913  1.0000
  C   C21       1.0  0.07356024078464429  0.0110044889067638  0.6659273575474811  1.0000
  C   C22       1.0  0.4264398251886945  0.9889964903303011  0.1659266911029675  1.0000
  C   C23       1.0  0.9264393732159274  0.9889953543244232  0.3340733088970324  1.0000
  C   C24       1.0  0.5735605895868332  0.0110056249126416  0.8340726424525187  1.0000
  N   N1        1.0  0.2843542107667005  0.1242869947168828  0.4442212595801393  1.0000
  N   N2        1.0  0.21564505443168253  0.8757117125084335  0.9442212595801394  1.0000
  N   N3        1.0  0.7156454032338715  0.8757128485143042  0.5557787404198606  1.0000
  N   N4        1.0  0.7843541591814116  0.1242869947168828  0.0557787404198606  1.0000
  N   N5        1.0  0.19981864208664035  0.0195608851538722  0.7346657780739745  1.0000
  N   N6        1.0  0.3001821775325694  0.9804389580773147  0.23466644451849555  1.0000
  N   N7        1.0  0.8001817255598025  0.980437822071437  0.2653342219260252  1.0000
  N   N8        1.0  0.6998189908888222  0.01956202115975  0.7653342219260251  1.0000
  O   O1        1.0  0.21573689705900279  0.6088843806823903  0.3549856714428542  1.0000
  O   O2        1.0  0.2842643229476778  0.3911165985546674  0.8549856714428543  1.0000
  O   O3        1.0  0.7842642713623889  0.3911165985546674  0.6450143285571457  1.0000
  O   O4        1.0  0.7157352910528942  0.6088832446765196  0.1450143285571457  1.0000
  O   O5        1.0  0.507078374738505  0.7044349707966617  0.2899233588803725  1.0000
  O   O6        1.0  0.9929215880642559  0.295566008440403  0.7899233588803722  1.0000
  O   O7        1.0  0.492921239262067  0.2955648724345252  0.7100766411196275  1.0000
  O   O8        1.0  0.007078426323793954  0.7044349707966617  0.21007664111962746  1.0000
  O   O9        1.0  0.42376686786086276  0.8540685285865024  0.41302099300233397  1.0000
  O   O10       1.0  0.07623395175833989  0.1459313146446846  0.9130209930023339  1.0000
  O   O11       1.0  0.5762343005605288  0.1459324506505553  0.5869783405531521  1.0000
  O   O12       1.0  0.923766415888096  0.8540673925806317  0.0869783405531521  1.0000
  O   O13       1.0  0.6277652101746369  0.1678141958061374  0.335922692435858  1.0000
  O   O14       1.0  0.8722355062739877  0.8321856474250495  0.8359226924358578  1.0000
  O   O15       1.0  0.3722355578592768  0.8321856474250495  0.6640773075641417  1.0000
  O   O16       1.0  0.1277641077265841  0.1678141958061374  0.164077307564142  1.0000
  O   O17       1.0  0.6590006352816857  0.4529085020949424  0.3498027324225247  1.0000
  O   O18       1.0  0.8409989271335973  0.5470913411362517  0.8498027324225246  1.0000
  O   O19       1.0  0.3409989787188863  0.5470913411362517  0.650197267577475  1.0000
  O   O20       1.0  0.15900068686698177  0.4529085020949424  0.15019793402199608  1.0000
  O   O21       1.0  0.8892653007562641  0.3581088118637439  0.2897760746417858  1.0000
  O   O22       1.0  0.6107354156923605  0.6418910313674431  0.7897767410863066  1.0000
  O   O23       1.0  0.11073586766513437  0.6418921673733138  0.710223258913693  1.0000
  O   O24       1.0  0.3892649519540754  0.3581076758578732  0.21022325891369315  1.0000
