data_image0
_chemical_formula_structural       Zn2H54C54N10O16
_chemical_formula_sum              "Zn2 H54 C54 N10 O16"
_cell_length_a       10.121962662588901
_cell_length_b       10.707444449028328
_cell_length_c       15.88045627417832
_cell_angle_alpha    95.14840000544895
_cell_angle_beta     89.42052893432458
_cell_angle_gamma    91.10171033738315

_space_group_name_H-M_alt    "P 1"
_space_group_IT_number       1

loop_
  _space_group_symop_operation_xyz
  'x, y, z'

loop_
  _atom_site_type_symbol
  _atom_site_label
  _atom_site_symmetry_multiplicity
  _atom_site_fract_x
  _atom_site_fract_y
  _atom_site_fract_z
  _atom_site_occupancy
  Zn  Zn1       1.0  0.6429731359382701  0.4935672418274634  0.496639241557176  1.0000
  Zn  Zn2       1.0  0.3402419582239701  0.4891824122847979  0.5059097221561756  1.0000
  H   H1        1.0  0.6053804211288635  0.8563923566810846  0.4064692447359376  1.0000
  H   H2        1.0  0.6910577974077724  0.11760807703345222  0.5346982557752326  1.0000
  H   H3        1.0  0.2682912944245288  0.09839418701127302  0.5100057031551228  1.0000
  H   H4        1.0  0.27944607615093287  0.8813284010913307  0.5124335429592434  1.0000
  H   H5        1.0  0.3355230986522244  0.906801289433325  0.6174700262418538  1.0000
  H   H6        1.0  0.5860500209031443  0.14320793039861712  0.6243605924227323  1.0000
  H   H7        1.0  0.09672780948123719  0.3065129088372984  0.46621871959441546  1.0000
  H   H8        1.0  0.880017355936637  0.37777388314167837  0.5925684643264332  1.0000
  H   H9        1.0  0.1128493173600447  0.6912881239611863  0.5275838861614941  1.0000
  H   H10       1.0  0.8872518979628551  0.6904973681200702  0.5257380068213776  1.0000
  H   H11       1.0  0.6467339291575911  0.7133511713789815  0.06895275835975667  1.0000
  H   H12       1.0  0.7432504196116908  0.5182973863966112  0.952532807651529  1.0000
  H   H13       1.0  0.6121887204569986  0.06975405096533649  0.4000304658855426  1.0000
  H   H14       1.0  0.4323526548482945  0.8488020897299082  0.39216466400873157  1.0000
  H   H15       1.0  0.2690910763636865  0.2996259685621964  0.02569208651173229  1.0000
  H   H16       1.0  0.3820944731993876  0.1870960261514725  0.9775803671180296  1.0000
  H   H17       1.0  0.23476846802009274  0.16123430968359995  0.8486202833498451  1.0000
  H   H18       1.0  0.15487098995546938  0.11424632106309929  0.9416749542903273  1.0000
  H   H19       1.0  0.11704299994756437  0.26120060009887425  0.9035271480923581  1.0000
  H   H20       1.0  0.013940651963906701  0.4225830106579807  0.6852741935679132  1.0000
  H   H21       1.0  0.16168812015331474  0.354165646241789  0.7149580869161907  1.0000
  H   H22       1.0  0.9664870259390951  0.2283451512943344  0.7592275466519209  1.0000
  H   H23       1.0  0.913109252707372  0.200592479852844  0.6529382115890526  1.0000
  H   H24       1.0  0.06501380551504349  0.13856540557238622  0.6839686064274912  1.0000
  H   H25       1.0  0.09833970841604868  0.778457608845578  0.6760711658295617  1.0000
  H   H26       1.0  0.26671225765663553  0.7341551676600347  0.6553744869830849  1.0000
  H   H27       1.0  0.2545504456922814  0.5972391325096994  0.7752924893065297  1.0000
  H   H28       1.0  0.2246937622272114  0.7568746449214958  0.8101858670384058  1.0000
  H   H29       1.0  0.0888182920512435  0.6474450913190568  0.7980558826210211  1.0000
  H   H30       1.0  0.2365588265305831  0.5106656088713847  0.27072736600923963  1.0000
  H   H31       1.0  0.07696470416178158  0.4604940830363591  0.23297648052498218  1.0000
  H   H32       1.0  0.2555272903454123  0.330098476541096  0.16307436530861705  1.0000
  H   H33       1.0  0.30827113636203757  0.28822355943450617  0.26319893437548086  1.0000
  H   H34       1.0  0.15017923963193167  0.2362756862509272  0.22321009950679374  1.0000
  H   H35       1.0  0.9500296531423087  0.2767329103682742  0.2876187173252517  1.0000
  H   H36       1.0  0.8865397041067238  0.40464454579696985  0.23572791559742964  1.0000
  H   H37       1.0  0.6560402945904755  0.3273165292737374  0.2586885389137449  1.0000
  H   H38       1.0  0.7501995682852821  0.206192346999579  0.20539366090494574  1.0000
  H   H39       1.0  0.71656422545567  0.2053801246889719  0.3160477231223239  1.0000
  H   H40       1.0  0.773553192837248  0.5842362865913558  0.2737718134205166  1.0000
  H   H41       1.0  0.9478566733279122  0.6172109423420336  0.2654475356905692  1.0000
  H   H42       1.0  0.9049781091675227  0.8421199100568304  0.3234345478230053  1.0000
  H   H43       1.0  0.8277600585941086  0.798374679621091  0.22428160291646995  1.0000
  H   H44       1.0  0.7321712267830803  0.8066409023664748  0.31878825617363293  1.0000
  H   H45       1.0  0.1576851360799481  0.5007777035412458  0.9536228388760148  1.0000
  H   H46       1.0  0.18526849528004866  0.6664208861789973  0.9694328561883762  1.0000
  H   H47       1.0  0.03588404172212729  0.6750387449650076  0.09821226006155107  1.0000
  H   H48       1.0  0.9521441047333139  0.6179890735825352  0.004057387737837789  1.0000
  H   H49       1.0  0.0006832097116387006  0.5108777425836025  0.07727369231642457  1.0000
  H   H50       1.0  0.2396249418650099  0.12129590658511802  0.36557628250272234  1.0000
  H   H51       1.0  0.27214658234643707  0.9646992476170271  0.38801865130908186  1.0000
  H   H52       1.0  0.3101663111129795  0.8972284102371473  0.23825132277769254  1.0000
  H   H53       1.0  0.15495459453879332  0.9723620248581353  0.24972637572818704  1.0000
  H   H54       1.0  0.2949593582141929  0.05361732941342011  0.21020300800228134  1.0000
  C   C1        1.0  0.4802585745202279  0.2542285484555578  0.48783448613509944  1.0000
  C   C2        1.0  0.5211755364609374  0.5411810992376404  0.9152464026787326  1.0000
  C   C3        1.0  0.5884723234923469  0.6356314840881935  0.03825430524658197  1.0000
  C   C4        1.0  0.5078726902326737  0.5378467273692851  0.08786771951676539  1.0000
  C   C5        1.0  0.46718718832234885  0.6529276790766262  0.9794474734159235  1.0000
  C   C6        1.0  0.3854467864513396  0.5511149936622104  0.02906679796839029  1.0000
  C   C7        1.0  0.5253642501746966  0.5314956826526752  0.8261831929681588  1.0000
  C   C8        1.0  0.5017178897044586  0.5349889585053446  0.17656810618780125  1.0000
  C   C9        1.0  0.5119813916488027  0.03924767589720799  0.4173367326282146  1.0000
  C   C10       1.0  0.5118580464820396  0.897774416787847  0.4291765501464935  1.0000
  C   C11       1.0  0.5975831154849586  0.0891863899976784  0.5627647049230047  1.0000
  C   C12       1.0  0.5201242981234983  0.4853854701091295  0.6592993838550851  1.0000
  C   C13       1.0  0.3534883912756754  0.0723848480088449  0.5463308139176559  1.0000
  C   C14       1.0  0.4834103378224484  0.11509018992116181  0.5038206578187996  1.0000
  C   C15       1.0  0.48969746237328576  0.8740449950954317  0.5224802057897759  1.0000
  C   C16       1.0  0.6026972551493157  0.9443105361829967  0.5762217544548419  1.0000
  C   C17       1.0  0.3562229400446668  0.928471451680906  0.5524164470711668  1.0000
  C   C18       1.0  0.06892860336095911  0.3707501804781402  0.5208510225251999  1.0000
  C   C19       1.0  0.9146204930999741  0.37721559592416304  0.526672547305594  1.0000
  C   C20       1.0  0.07604751113117197  0.6048608199897886  0.5531212623336257  1.0000
  C   C21       1.0  0.07405015558494908  0.5093940525836373  0.4059089169136384  1.0000
  C   C22       1.0  0.9193545040648843  0.6050318064453961  0.5528904149313688  1.0000
  C   C23       1.0  0.4891327095492456  0.7315622414947781  0.5266656501607371  1.0000
  C   C24       1.0  0.9111893629476526  0.5091108535275096  0.4069803910458843  1.0000
  C   C25       1.0  0.4942946444823661  0.5217732012542059  0.34342494470035934  1.0000
  C   C26       1.0  0.5642429556474154  0.4273242160506853  0.02345588081221449  1.0000
  C   C27       1.0  0.4389612923522108  0.44233609431096704  0.9633635693156248  1.0000
  C   C28       1.0  0.5272004182744395  0.5087364631244071  0.7498485801779606  1.0000
  C   C29       1.0  0.49628998511958144  0.5314381740543014  0.2529512879747599  1.0000
  C   C30       1.0  0.6415976216562028  0.5282857277460523  0.9752537013589231  1.0000
  C   C31       1.0  0.3065444018416486  0.2554157089692026  0.9649439241273181  1.0000
  C   C32       1.0  0.19641006766526195  0.1946342639002339  0.9113351667351918  1.0000
  C   C33       1.0  0.7359266347306671  0.9017029895210273  0.5512075716276214  1.0000
  C   C34       1.0  0.34097780408486494  0.13707668699002082  0.6309126040759168  1.0000
  C   C35       1.0  0.5836655804801225  0.9217109020780468  0.665609724633505  1.0000
  C   C36       1.0  0.07461174906186589  0.33888898649237126  0.6745212455652093  1.0000
  C   C37       1.0  0.0003694705754498034  0.219748329116662  0.6930027714762443  1.0000
  C   C38       1.0  0.618724886248138  0.31363271862163344  0.04529019894570749  1.0000
  C   C39       1.0  0.8693523916747593  0.2604350614613722  0.480569180553857  1.0000
  C   C40       1.0  0.17140725112822958  0.7046015653568317  0.6814872332532429  1.0000
  C   C41       1.0  0.1851632983924176  0.6741759782654811  0.7720006605652114  1.0000
  C   C42       1.0  0.8694823190755301  0.6115283454283541  0.6395316079412365  1.0000
  C   C43       1.0  0.1237071178729536  0.632919328825622  0.3824688616273021  1.0000
  C   C44       1.0  0.16385389856988294  0.4334238858713704  0.2677687656435593  1.0000
  C   C45       1.0  0.22252428123326237  0.31424250977491397  0.22736219422127843  1.0000
  C   C46       1.0  0.8660135484299472  0.33898775591711683  0.2836895211135228  1.0000
  C   C47       1.0  0.7393478984881625  0.2651444738026925  0.26515423726540627  1.0000
  C   C48       1.0  0.8555417287375274  0.6443935025573069  0.2992098593550523  1.0000
  C   C49       1.0  0.8289016634376907  0.7812787399278565  0.2915276415669864  1.0000
  C   C50       1.0  0.1597014776953998  0.58202721878817  0.001381407374779496  1.0000
  C   C51       1.0  0.029535778587387495  0.5970007121642311  0.04844535211591248  1.0000
  C   C52       1.0  0.41863363227923855  0.7703995299392619  0.9595743314528205  1.0000
  C   C53       1.0  0.2967210644852258  0.03696549454101469  0.3450297034136013  1.0000
  C   C54       1.0  0.26238300281688964  0.9872820245639604  0.2553426342832664  1.0000
  N   N1        1.0  0.1227402716627282  0.49661133639172317  0.4952743149315494  1.0000
  N   N2        1.0  0.8644525592253699  0.49667424612707123  0.4969765658452373  1.0000
  N   N3        1.0  0.8460028082676628  0.8814799464665058  0.5336609409622141  1.0000
  N   N4        1.0  0.3363109690308121  0.1821501828048682  0.7004546665996185  1.0000
  N   N5        1.0  0.5650149514602418  0.9020578692332323  0.7357769711339298  1.0000
  N   N6        1.0  0.665383771560016  0.21940926634594154  0.06094718763821308  1.0000
  N   N7        1.0  0.8574331972449016  0.15822093006601526  0.44915445919952635  1.0000
  N   N8        1.0  0.841445238059819  0.6249289586413341  0.7110554826173396  1.0000
  N   N9        1.0  0.1653733880912611  0.7282482182435929  0.3627399573892091  1.0000
  N   N10       1.0  0.37447687969805793  0.8667248003780303  0.9461204988086533  1.0000
  O   O1        1.0  0.5886863783914293  0.30723578851135613  0.46983658240269205  1.0000
  O   O2        1.0  0.36704136517891334  0.3034368703218036  0.4927808259740728  1.0000
  O   O3        1.0  0.6263490966106104  0.4535839826818489  0.6194326403282842  1.0000
  O   O4        1.0  0.4069552992616039  0.499680499893863  0.6281680154946512  1.0000
  O   O5        1.0  0.5982131042943803  0.6801723054086679  0.5386381104447222  1.0000
  O   O6        1.0  0.377400330489678  0.6778403086061005  0.5126223160333793  1.0000
  O   O7        1.0  0.6047948277906413  0.5430545263958705  0.3799730641213514  1.0000
  O   O8        1.0  0.3856466591469641  0.4924811459583295  0.3768426879068797  1.0000
  O   O9        1.0  0.3690556464594365  0.35185077488803534  0.9175391879110177  1.0000
  O   O10       1.0  0.13052718222220244  0.32758605805636165  0.5893857429856907  1.0000
  O   O11       1.0  0.1283357045168003  0.5907360543085075  0.6320524014794059  1.0000
  O   O12       1.0  0.12444678898389579  0.4099087022265167  0.35361944122513467  1.0000
  O   O13       1.0  0.8465730782143549  0.40738428060847554  0.366141914330889  1.0000
  O   O14       1.0  0.8685754387627396  0.626647949571108  0.3881984619231601  1.0000
  O   O15       1.0  0.2617818171877175  0.5639938443305612  0.06321854657333148  1.0000
  O   O16       1.0  0.4352826815917935  0.0706118342870283  0.34792094602806856  1.0000
