data_image0
_chemical_formula_structural       U2Cd2H24C32N4O20
_chemical_formula_sum              "U2 Cd2 H24 C32 N4 O20"
_cell_length_a       7.573634462530345
_cell_length_b       11.66125815583124
_cell_length_c       11.661122130288566
_cell_angle_alpha    96.11863316943959
_cell_angle_beta     105.92362825699885
_cell_angle_gamma    105.92469872560591

_space_group_name_H-M_alt    "P 1"
_space_group_IT_number       1

loop_
  _space_group_symop_operation_xyz
  'x, y, z'

loop_
  _atom_site_type_symbol
  _atom_site_label
  _atom_site_symmetry_multiplicity
  _atom_site_fract_x
  _atom_site_fract_y
  _atom_site_fract_z
  _atom_site_occupancy
  U   U1        1.0  0.2202000651561491  0.12649835892429448  0.7815037637368647  1.0000
  U   U2        1.0  0.7201816085102736  0.7814813061205186  0.1264926554708765  1.0000
  Cd  Cd1       1.0  0.7939232855048246  0.2909962066663282  0.8148588250075974  1.0000
  Cd  Cd2       1.0  0.2938985864197008  0.8148538164615218  0.29099546074927213  1.0000
  H   H1        1.0  0.2951191537624496  0.4896255627765169  0.6925453259110341  1.0000
  H   H2        1.0  0.795095968211818  0.6925462330107163  0.4896344686753266  1.0000
  H   H3        1.0  0.42679540205627825  0.5809059828626033  0.8373033223835831  1.0000
  H   H4        1.0  0.9267508020681842  0.8373086659908676  0.580897396209636  1.0000
  H   H5        1.0  0.5715790274961065  0.8667444026074089  0.6582233037623124  1.0000
  H   H6        1.0  0.07157501144791197  0.6582152030736662  0.866738316243918  1.0000
  H   H7        1.0  0.6066602884531703  0.8529831035085987  0.8113611233290569  1.0000
  H   H8        1.0  0.10666050749301084  0.811355623961681  0.8529768664764247  1.0000
  H   H9        1.0  0.8527411431045733  0.13187583709915165  0.016257256190975473  1.0000
  H   H10       1.0  0.35274599312901955  0.016251542789646592  0.1318746713171919  1.0000
  H   H11       1.0  0.8545827524548245  0.12814630759027779  0.2258795834212677  1.0000
  H   H12       1.0  0.3545889151037258  0.2258769542086795  0.12814134329045856  1.0000
  H   H13       1.0  0.7433024689486911  0.475510070193948  0.23612758907736967  1.0000
  H   H14       1.0  0.2432875445747058  0.2361276911999752  0.4754975332955168  1.0000
  H   H15       1.0  0.7542721733017854  0.4659595522959349  0.027704411276822227  1.0000
  H   H16       1.0  0.2542696406865446  0.027708762016096993  0.4659545959330202  1.0000
  H   H17       1.0  0.8634556630715124  0.49720775350010626  0.43498953705557136  1.0000
  H   H18       1.0  0.3634738728513938  0.43498608123492477  0.4972045206815847  1.0000
  H   H19       1.0  0.8378295958944406  0.482580642414895  0.6426792489541526  1.0000
  H   H20       1.0  0.3378462397947644  0.6426800374684729  0.4825849486876094  1.0000
  H   H21       1.0  0.7127300622863403  0.10823123895880117  0.5718198717036457  1.0000
  H   H22       1.0  0.2127298929983325  0.5718155678374824  0.10822722491472087  1.0000
  H   H23       1.0  0.7310433837519312  0.10543309581997558  0.36418029441088606  1.0000
  H   H24       1.0  0.23103546614453307  0.3641752279748756  0.10543422347539887  1.0000
  C   C1        1.0  0.19161352550924696  0.4230723658125297  0.8297777230120786  1.0000
  C   C2        1.0  0.6915920024749054  0.8297623521539989  0.4230635033807387  1.0000
  C   C3        1.0  0.36013950455755145  0.4861089213096148  0.7888446072216482  1.0000
  C   C4        1.0  0.8601130507091169  0.7888402819735345  0.48610215443373045  1.0000
  C   C5        1.0  0.5135041986905549  0.42490700551997646  0.7933150399878954  1.0000
  C   C6        1.0  0.0134846476974815  0.7933172498367397  0.42490032503943087  1.0000
  C   C7        1.0  0.8296517796446278  0.9907781325714775  0.7791024633776971  1.0000
  C   C8        1.0  0.32965119952505256  0.7791011465972346  0.9907719889564673  1.0000
  C   C9        1.0  0.6190636041259124  0.9197322382967806  0.7517753545254421  1.0000
  C   C10       1.0  0.11906479968592976  0.7517699529911467  0.9197251341058034  1.0000
  C   C11       1.0  0.4799346834242255  0.9896839515925815  0.7548856342681203  1.0000
  C   C12       1.0  0.9799398310583243  0.754882409170591  0.9896825560484785  1.0000
  C   C13       1.0  0.8296591027981819  0.20645748952765072  0.06852131404030361  1.0000
  C   C14       1.0  0.3296538719086613  0.0685188245690185  0.2064499669754341  1.0000
  C   C15       1.0  0.829940124683496  0.20551241986198918  0.18742434750292597  1.0000
  C   C16       1.0  0.32994703616520127  0.18742452106300078  0.20550891834125196  1.0000
  C   C17       1.0  0.8010796668863731  0.3026891433696902  0.25334273146376046  1.0000
  C   C18       1.0  0.30109126580423856  0.25334343160916006  0.30268627709605767  1.0000
  C   C19       1.0  0.7719982079694675  0.39767999932129067  0.19379608341783688  1.0000
  C   C20       1.0  0.2720025546350797  0.19379420938268052  0.39767537169971223  1.0000
  C   C21       1.0  0.7752326840688609  0.3924971336270032  0.07474128292035687  1.0000
  C   C22       1.0  0.27522756092430706  0.07474132280645308  0.39248925832944787  1.0000
  C   C23       1.0  0.7970807128346352  0.3017256223724657  0.3793577912526729  1.0000
  C   C24       1.0  0.2971040713898032  0.3793611687419299  0.30172603388047736  1.0000
  C   C25       1.0  0.8279698265391173  0.40867652234840063  0.4608202459062339  1.0000
  C   C26       1.0  0.3279716687190727  0.4608200592976031  0.40867516677853627  1.0000
  C   C27       1.0  0.8159352866112998  0.40198599818669567  0.5768728557292278  1.0000
  C   C28       1.0  0.31593641597408606  0.5768730705084193  0.40198619641811456  1.0000
  C   C29       1.0  0.7468168278048638  0.19282348091365978  0.5386366784118337  1.0000
  C   C30       1.0  0.24681998749458955  0.53863613238137  0.19282091022817133  1.0000
  C   C31       1.0  0.7577773412191321  0.19226694684445522  0.4216574752320454  1.0000
  C   C32       1.0  0.25779058988351977  0.42166069201725503  0.19226806126439297  1.0000
  N   N1        1.0  0.8040835706335656  0.2987005630257115  0.012927352559358977  1.0000
  N   N2        1.0  0.30408104855192875  0.012926126807400394  0.29869485468154267  1.0000
  N   N3        1.0  0.7753421613637811  0.29565157506326756  0.6151381093978329  1.0000
  N   N4        1.0  0.275334865370354  0.6151358141641194  0.2956494443300528  1.0000
  O   O1        1.0  0.13620753741639643  0.30589807530132157  0.8164116875495536  1.0000
  O   O2        1.0  0.6362009420859066  0.8164105573958761  0.30589221815839807  1.0000
  O   O3        1.0  0.09887768702024143  0.48311004831393217  0.8689879916450776  1.0000
  O   O4        1.0  0.5988363410337668  0.8689620236039769  0.4830972810779528  1.0000
  O   O5        1.0  0.4663877458663421  0.3078942912596572  0.785077137477387  1.0000
  O   O6        1.0  0.9663826580314562  0.7850754592344837  0.3078873613030097  1.0000
  O   O7        1.0  0.6824991806919201  0.48666664611567967  0.8036687824169703  1.0000
  O   O8        1.0  0.1824745908314185  0.8036697789447942  0.4866701559824306  1.0000
  O   O9        1.0  0.9461228103207162  0.9369923314858396  0.7584998464963704  1.0000
  O   O10       1.0  0.4461256296362635  0.7584949950854352  0.9369865417123718  1.0000
  O   O11       1.0  0.8993155274653615  0.10615111442395174  0.8217570414483218  1.0000
  O   O12       1.0  0.3993025647587983  0.8217478196785204  0.10614276865941714  1.0000
  O   O13       1.0  0.5147409322842761  0.09980161002074785  0.736608573160616  1.0000
  O   O14       1.0  0.014745770417810907  0.7366058394445645  0.0997975869392889  1.0000
  O   O15       1.0  0.31994715875862306  0.9401864012927559  0.7717392082422165  1.0000
  O   O16       1.0  0.8199500862587354  0.7717269915236568  0.9401868622256159  1.0000
  O   O17       1.0  0.10996891534309579  0.10871875372178148  0.6184729394554012  1.0000
  O   O18       1.0  0.6099670443258984  0.6184575768413649  0.10872914580271231  1.0000
  O   O19       1.0  0.3321872571093465  0.14341836338637384  0.9439272665180524  1.0000
  O   O20       1.0  0.8321821701113802  0.9439197814398592  0.14341104963352072  1.0000
