data_image0
_chemical_formula_structural       Ho4H24C24O36
_chemical_formula_sum              "Ho4 H24 C24 O36"
_cell_length_a       6.529170350109312
_cell_length_b       10.201281704000076
_cell_length_c       13.370738965226625
_cell_angle_alpha    89.99999505939624
_cell_angle_beta     89.99933495463434
_cell_angle_gamma    89.99998611807757

_space_group_name_H-M_alt    "P 1"
_space_group_IT_number       1

loop_
  _space_group_symop_operation_xyz
  'x, y, z'

loop_
  _atom_site_type_symbol
  _atom_site_label
  _atom_site_symmetry_multiplicity
  _atom_site_fract_x
  _atom_site_fract_y
  _atom_site_fract_z
  _atom_site_occupancy
  Ho  Ho1       1.0  0.12917312021036048  0.9999998112250522  0.1994515549106026  1.0000
  Ho  Ho2       1.0  0.8708269773580851  8.641802935e-07  0.8005479080208033  1.0000
  Ho  Ho3       1.0  0.6291849959337199  0.49999984815811865  0.3005470395423586  1.0000
  Ho  Ho4       1.0  0.37081510163472586  0.5000008272472343  0.6994524233890472  1.0000
  H   H1        1.0  0.9751656446270403  0.18816155088756395  0.3489861775563838  1.0000
  H   H2        1.0  0.0248315012301106  0.18815965123128106  0.6510140539956026  1.0000
  H   H3        1.0  0.4751749018324388  0.3118431202376826  0.1510157305830901  1.0000
  H   H4        1.0  0.5248221998120499  0.3118411165683169  0.8489844927548802  1.0000
  H   H5        1.0  0.0248329213438083  0.8118420653248036  0.6510140332810721  1.0000
  H   H6        1.0  0.9751670647414342  0.811840043905171  0.3489861568419812  1.0000
  H   H7        1.0  0.5248236641303663  0.6881555946297481  0.8489852281563443  1.0000
  H   H8        1.0  0.4751733029920969  0.6881585785684263  0.15101497018954288  1.0000
  H   H9        1.0  0.2117455590260562  0.2246433038795246  0.34570953141071215  1.0000
  H   H10       1.0  0.7882531053957392  0.22464225914974625  0.6542892019104302  1.0000
  H   H11       1.0  0.711750102823828  0.2753545484866747  0.15428788183793068  1.0000
  H   H12       1.0  0.2882454802754282  0.27535650498817427  0.8457123439275377  1.0000
  H   H13       1.0  0.7882560701476891  0.7753612926016942  0.654288435712594  1.0000
  H   H14       1.0  0.2117469921725359  0.7753593965245855  0.3457102610209403  1.0000
  H   H15       1.0  0.28824846313040803  0.7246422058427554  0.84571382480339  1.0000
  H   H16       1.0  0.7117515541167022  0.7246441704174201  0.1542871190125226  1.0000
  H   H17       1.0  0.2267107588048631  0.07588156765182667  0.985882787592793  1.0000
  H   H18       1.0  0.7732910219353499  0.07588255757475791  0.014118947206569  1.0000
  H   H19       1.0  0.726710933972484  0.4241172065603465  0.5141168622288319  1.0000
  H   H20       1.0  0.2732876591518902  0.4241162649856276  0.4858811099428948  1.0000
  H   H21       1.0  0.7732893387466218  0.9241142064085394  0.0141181711424139  1.0000
  H   H22       1.0  0.2267106072130431  0.9241141967545088  0.9858812636224596  1.0000
  H   H23       1.0  0.2732876320254647  0.5758844491141915  0.48588110490322817  1.0000
  H   H24       1.0  0.7267109068193065  0.5758853906887822  0.5141191008946251  1.0000
  C   C1        1.0  0.6214277111900515  0.9999999328749495  0.2904892943912571  1.0000
  C   C2        1.0  0.37857103352614974  9.095683423999999e-07  0.7095102017508096  1.0000
  C   C3        1.0  0.12144469581690488  0.4999989145446546  0.20950862911348617  1.0000
  C   C4        1.0  0.878556933322038  0.5000007805915059  0.7904923296172655  1.0000
  C   C5        1.0  0.5732043392535928  1.8911691342e-06  0.40109513490340015  1.0000
  C   C6        1.0  0.4267990002178195  9.118117034999997e-07  0.5989051091274362  1.0000
  C   C7        1.0  0.0732147718293206  0.49999892468343865  0.09890156527576009  1.0000
  C   C8        1.0  0.9267822625542407  0.4999997901841553  0.9010986455661791  1.0000
  C   C9        1.0  0.5374304204832754  0.11857326646998698  0.45082621561235914  1.0000
  C   C10       1.0  0.46256828182880827  0.11857228682376328  0.5491747684586414  1.0000
  C   C11       1.0  0.037435954930622  0.3814285355081921  0.049172930406903986  1.0000
  C   C12       1.0  0.9625549954769639  0.38142938958523587  0.950828036228742  1.0000
  C   C13       1.0  0.4625712086728128  0.8814303497421676  0.549173247314627  1.0000
  C   C14       1.0  0.5374348789156045  0.8814303491192914  0.45082469446404616  1.0000
  C   C15       1.0  0.9625580162587893  0.6185701793595724  0.9508287762473272  1.0000
  C   C16       1.0  0.037440507309519  0.6185693252824435  0.04917292251934669  1.0000
  C   C17       1.0  0.5737557011708887  0.2459719637523534  0.3982314091110625  1.0000
  C   C18       1.0  0.42624448719698893  0.2459700038958843  0.6017688185929301  1.0000
  C   C19       1.0  0.07375849540105861  0.254031792817308  0.10176902748351317  1.0000
  C   C20       1.0  0.9262355637416136  0.25403167845934144  0.8982304518006288  1.0000
  C   C21       1.0  0.42624439641504347  0.7540306721910356  0.601766558016642  1.0000
  C   C22       1.0  0.5737602051273711  0.7540287109710917  0.3982313922273732  1.0000
  C   C23       1.0  0.9262370073761658  0.7459688825882864  0.8982326791663267  1.0000
  C   C24       1.0  0.07376147063303051  0.745967036408217  0.1017705069431329  1.0000
  O   O1        1.0  0.2497509541569087  0.9999978503217972  0.029651324690860296  1.0000
  O   O2        1.0  0.750253559405138  0.9999987369692744  0.9703510966286473  1.0000
  O   O3        1.0  0.7497511229224543  0.500001789323022  0.4703495801437754  1.0000
  O   O4        1.0  0.2502397851345179  0.5000008466211199  0.5296483870098854  1.0000
  O   O5        1.0  0.8043348971571261  0.9999979589297752  0.2625441740992969  1.0000
  O   O6        1.0  0.1956669107182591  0.9999989624372674  0.7374568178378879  1.0000
  O   O7        1.0  0.3043496838479527  0.5000018388162886  0.23745196809344543  1.0000
  O   O8        1.0  0.6956504137297586  0.4999968760511493  0.7625467469362093  1.0000
  O   O9        1.0  0.1127224549929764  0.15442272481159589  0.33025292657665517  1.0000
  O   O10       1.0  0.8872747029609016  0.15441872133419568  0.6697443156088099  1.0000
  O   O11       1.0  0.6127327314179638  0.3455761240334424  0.16974878564039386  1.0000
  O   O12       1.0  0.3872658897468071  0.345576105517864  0.8302521833547019  1.0000
  O   O13       1.0  0.8872761110306726  0.8455848124769432  0.6697427968497536  1.0000
  O   O14       1.0  0.1127253946435687  0.8455799935333629  0.33025215571537797  1.0000
  O   O15       1.0  0.3872673661067765  0.6544196500268028  0.8302544168002726  1.0000
  O   O16       1.0  0.6127311446005592  0.6544255501565032  0.16975101909442  1.0000
  O   O17       1.0  0.4239526918025049  0.3270412013656454  0.38888604847223707  1.0000
  O   O18       1.0  0.5760474676034235  0.3270382356706065  0.6111126780441223  1.0000
  O   O19       1.0  0.9239567701469014  0.17295955706799043  0.1111146532289524  1.0000
  O   O20       1.0  0.0760373179234648  0.17295860266864338  0.8888893188503602  1.0000
  O   O21       1.0  0.5760489373892453  0.6729624148466797  0.6111104228474672  1.0000
  O   O22       1.0  0.42395722474786623  0.6729594989275113  0.38888528907075676  1.0000
  O   O23       1.0  0.0760372010066632  0.8270401380685896  0.8888900450325252  1.0000
  O   O24       1.0  0.9239581848191349  0.8270361911229143  0.1111153794069608  1.0000
  O   O25       1.0  0.7486741993200565  0.27348320027335393  0.36349760565769873  1.0000
  O   O26       1.0  0.25132904236184567  0.2734871467770574  0.6365048639158103  1.0000
  O   O27       1.0  0.24866851713679952  0.22651562631681094  0.13650782589486  1.0000
  O   O28       1.0  0.7513286150451889  0.22651554448124503  0.8634894115025913  1.0000
  O   O29       1.0  0.2513304930137465  0.7265125737867278  0.6365018572608888  1.0000
  O   O30       1.0  0.748675649970032  0.726519410241785  0.363494599002422  1.0000
  O   O31       1.0  0.7513254540618775  0.7734811280130386  0.86349313285762  1.0000
  O   O32       1.0  0.2486714825416172  0.7734821901172494  0.1365085556252694  1.0000
  O   O33       1.0  0.4672983805553558  0.999997821158807  0.23253702830825768  1.0000
  O   O34       1.0  0.5327047802074248  1.8739773963999996e-06  0.7674609388108848  1.0000
  O   O35       1.0  0.9673187031047303  0.4999998223326755  0.2674663868466354  1.0000
  O   O36       1.0  0.03268752075358349  0.5000028136098392  0.7325383113801393  1.0000
