data_image0
_chemical_formula_structural       Zn4H28C40N12O20
_chemical_formula_sum              "Zn4 H28 C40 N12 O20"
_cell_length_a       7.5735049705059145
_cell_length_b       10.796755079292227
_cell_length_c       14.50956294533482
_cell_angle_alpha    90.12406290299953
_cell_angle_beta     74.85473144027911
_cell_angle_gamma    69.46536891601522

_space_group_name_H-M_alt    "P 1"
_space_group_IT_number       1

loop_
  _space_group_symop_operation_xyz
  'x, y, z'

loop_
  _atom_site_type_symbol
  _atom_site_label
  _atom_site_symmetry_multiplicity
  _atom_site_fract_x
  _atom_site_fract_y
  _atom_site_fract_z
  _atom_site_occupancy
  Zn  Zn1       1.0  0.22684543838755647  0.5277481941440525  0.5069687678032295  1.0000
  Zn  Zn2       1.0  0.7613077332636995  0.9722462971566511  0.9932300788179304  1.0000
  Zn  Zn3       1.0  0.7731523086449812  0.47224738251006915  0.49303056700931347  1.0000
  Zn  Zn4       1.0  0.23869464694833917  0.027756126027178085  0.006766493143089698  1.0000
  H   H1        1.0  0.7997163478956396  0.4691138851002206  0.8557412541899223  1.0000
  H   H2        1.0  0.6246506122881214  0.030913165272956185  0.6442783981055342  1.0000
  H   H3        1.0  0.2002740185789095  0.5308956334294803  0.14425956084281918  1.0000
  H   H4        1.0  0.37534713474441644  0.9690824113811657  0.35572093670700866  1.0000
  H   H5        1.0  0.6431174148039815  0.2866846087683966  0.11172599379587923  1.0000
  H   H6        1.0  0.5422473170190402  0.21319830249631613  0.3881644120541309  1.0000
  H   H7        1.0  0.3568886760531882  0.7133158871192432  0.8882721844014154  1.0000
  H   H8        1.0  0.4577613658748805  0.7867921915653964  0.6118314849180209  1.0000
  H   H9        1.0  0.7206995582851263  0.6615022472328815  0.13186676374219525  1.0000
  H   H10       1.0  0.01463629455096821  0.8383293870014935  0.3682538245595167  1.0000
  H   H11       1.0  0.27929702281166874  0.3385032757100176  0.8681332870965263  1.0000
  H   H12       1.0  0.9853745573983089  0.161667193402934  0.6317458473759031  1.0000
  H   H13       1.0  0.32193781544158645  0.5917023073402774  0.27407900644497823  1.0000
  H   H14       1.0  0.6879194524941782  0.9081857089545973  0.22606942606461897  1.0000
  H   H15       1.0  0.6780531917452209  0.4082982589941507  0.7259211488106487  1.0000
  H   H16       1.0  0.31207911312850467  0.09181087995521857  0.7739304779976095  1.0000
  H   H17       1.0  0.9141344987848612  0.36783497589801323  0.25730449927109317  1.0000
  H   H18       1.0  0.039736696463727135  0.13188968217635016  0.24259393873319368  1.0000
  H   H19       1.0  0.08585616017703779  0.6321636332201022  0.7426964159521603  1.0000
  H   H20       1.0  0.9602656620914587  0.8681049057379508  0.7574054933657306  1.0000
  H   H21       1.0  0.9888632201675878  0.465442141211433  0.64998447992226  1.0000
  H   H22       1.0  0.6036279169424645  0.034801169749428595  0.8503082226930871  1.0000
  H   H23       1.0  0.011133782208460874  0.5345546260677663  0.3500204530048734  1.0000
  H   H24       1.0  0.3963652526481244  0.9652004270028905  0.14969301481284691  1.0000
  H   H25       1.0  0.8892350421490178  0.6233982704289853  0.6391508995000735  1.0000
  H   H26       1.0  0.6512020267434906  0.8767563023841589  0.8609572533581017  1.0000
  H   H27       1.0  0.11077070048324349  0.37660026824233467  0.36084803866484083  1.0000
  H   H28       1.0  0.3487845799999505  0.12324733273865006  0.139045508309465  1.0000
  C   C1        1.0  0.7680811747616401  0.4691650643038868  0.9334269285202481  1.0000
  C   C2        1.0  0.6707247542564474  0.030753544722188088  0.5665932246855974  1.0000
  C   C3        1.0  0.23191864661503572  0.5308394763034413  0.06657339933744308  1.0000
  C   C4        1.0  0.32928253661716456  0.9692420362350441  0.43340623746529156  1.0000
  C   C5        1.0  0.7280336387031883  0.3630449324038593  0.9773645799872168  1.0000
  C   C6        1.0  0.5687061860919441  0.13687768270645506  0.5225953797641694  1.0000
  C   C7        1.0  0.27197765040993743  0.6369585874423789  0.02263494649398715  1.0000
  C   C8        1.0  0.43130245524687194  0.8631229723377982  0.47740728810030214  1.0000
  C   C9        1.0  0.6824944823781466  0.3664150791672822  0.07743552924654296  1.0000
  C   C10       1.0  0.6268352224403414  0.1334186333261087  0.4225162016960695  1.0000
  C   C11       1.0  0.31751400273963554  0.6335834466955315  0.922563049453224  1.0000
  C   C12       1.0  0.3731742856952923  0.866577928916129  0.5774829572387431  1.0000
  C   C13       1.0  0.6827860796495528  0.4728430296337789  0.1308926948848068  1.0000
  C   C14       1.0  0.7870034498421601  0.026908908077828583  0.3691199007076449  1.0000
  C   C15       1.0  0.31721015322233365  0.5271605360928006  0.8691081159215414  1.0000
  C   C16       1.0  0.2130035476647906  0.9730846665301983  0.6308789359444872  1.0000
  C   C17       1.0  0.7238782674686918  0.5781578355692572  0.08841746178445216  1.0000
  C   C18       1.0  0.890787839458966  0.9216532390077956  0.41161973013519315  1.0000
  C   C19       1.0  0.276116123795191  0.4218466815221971  0.9115821995371647  1.0000
  C   C20       1.0  0.1092186602536174  0.07834130512728879  0.5883784700328221  1.0000
  C   C21       1.0  0.7634252835820661  0.5775140177308627  0.9886805348148541  1.0000
  C   C22       1.0  0.8297037494930138  0.9223809986827116  0.5113592563435178  1.0000
  C   C23       1.0  0.23657015812879945  0.42248851117357566  0.011319014008613177  1.0000
  C   C24       1.0  0.17029721039028803  0.07761362020228547  0.4886410482211828  1.0000
  C   C25       1.0  0.45049872214547554  0.5336979492375347  0.2961767477838677  1.0000
  C   C26       1.0  0.7806690328461772  0.9661208003728912  0.20389194453650814  1.0000
  C   C27       1.0  0.5494940045089933  0.46630456790896324  0.7038224677715661  1.0000
  C   C28       1.0  0.21933037879577447  0.03387677622618669  0.7961078360422177  1.0000
  C   C29       1.0  0.7566524179046183  0.41965535514534463  0.28743913897363166  1.0000
  C   C30       1.0  0.964205947726171  0.08009408501551717  0.21249287203256265  1.0000
  C   C31       1.0  0.24333774326292018  0.5803442234998284  0.7125611397654977  1.0000
  C   C32       1.0  0.03579422099610964  0.9198994970473249  0.787506170549257  1.0000
  C   C33       1.0  0.7218120919688359  0.24563429298464712  0.9228885255684531  1.0000
  C   C34       1.0  0.3907171601999907  0.254388557288152  0.5770126501469974  1.0000
  C   C35       1.0  0.2781930581578466  0.7543680928242293  0.07710699419422437  1.0000
  C   C36       1.0  0.6092949873562433  0.7456131463361826  0.4229916129683957  1.0000
  C   C37       1.0  0.7831825641379737  0.7006022725218269  0.9467013480200278  1.0000
  C   C38       1.0  0.93066746537977  0.7993885679183276  0.5534027523907383  1.0000
  C   C39       1.0  0.21681233157184482  0.2994063309673861  0.053301642498674084  1.0000
  C   C40       1.0  0.06933115510116046  0.20060797185860213  0.44659576620510677  1.0000
  N   N1        1.0  0.6323398643159521  0.4758724556496288  0.23357705842964546  1.0000
  N   N2        1.0  0.8423081245551031  0.02382366919763259  0.2664313702314444  1.0000
  N   N3        1.0  0.3676546765173896  0.5241291346984409  0.766423999343715  1.0000
  N   N4        1.0  0.15769420657095204  0.9761709432831078  0.7335687546006753  1.0000
  N   N5        1.0  0.46206617663298044  0.5114927674117948  0.3842440546612592  1.0000
  N   N6        1.0  0.8579089770128054  0.9884278085855553  0.11581435513588893  1.0000
  N   N7        1.0  0.5379257164260596  0.48850595813429  0.6157601444953684  1.0000
  N   N8        1.0  0.1420809522978885  0.011574770502342296  0.8841866053510755  1.0000
  N   N9        1.0  0.6556428867151355  0.4401730596398962  0.3788668358864129  1.0000
  N   N10       1.0  0.9748915442186217  0.05969785036050717  0.12110464189348144  1.0000
  N   N11       1.0  0.34434695365662565  0.5598245372225106  0.6211335100871551  1.0000
  N   N12       1.0  0.025103078902098803  0.9403036662882298  0.8788943376803003  1.0000
  O   O1        1.0  0.6686145632394728  0.16438367178341193  0.979039764746183  1.0000
  O   O2        1.0  0.3123919831507749  0.3355440951939669  0.5208112049440671  1.0000
  O   O3        1.0  0.3313971223052334  0.835616700221429  0.020954923588043097  1.0000
  O   O4        1.0  0.6876264887441935  0.6644535145777863  0.4791895230445462  1.0000
  O   O5        1.0  0.7607873297582657  0.23516867578428696  0.8332476540094689  1.0000
  O   O6        1.0  0.32967507484370634  0.2650726435396534  0.6666735558603777  1.0000
  O   O7        1.0  0.23920594377655402  0.764840682538235  0.1667486451589824  1.0000
  O   O8        1.0  0.6703285859700047  0.7349321235193711  0.33333316013149517  1.0000
  O   O9        1.0  0.7815833311424003  0.7871814999022885  0.007962551096788723  1.0000
  O   O10       1.0  0.07692579335730458  0.7127886985704135  0.4921422281042566  1.0000
  O   O11       1.0  0.21840325482349246  0.21282721571178329  0.9920435960169415  1.0000
  O   O12       1.0  0.9230806789261621  0.28720587013111737  0.5078566647969466  1.0000
  O   O13       1.0  0.79279692903053  0.7140079661227218  0.8589362501540946  1.0000
  O   O14       1.0  0.8660102776243974  0.7861175780734438  0.641210998616522  1.0000
  O   O15       1.0  0.20720564148324172  0.2860016176009168  0.14106641095141728  1.0000
  O   O16       1.0  0.1339847817808676  0.2138779622562977  0.358787310194792  1.0000
  O   O17       1.0  0.9300466823719943  0.5296579449241461  0.6091863541261802  1.0000
  O   O18       1.0  0.5680388244516834  0.9704634690499672  0.8909113304932388  1.0000
  O   O19       1.0  0.06998230987736788  0.47033547808292997  0.3908082213383537  1.0000
  O   O20       1.0  0.4319433353438527  0.029541007413989486  0.10908717748880288  1.0000
