data_image0
_chemical_formula_structural       Zn4H58C67N20O3
_chemical_formula_sum              "Zn4 H58 C67 N20 O3"
_cell_length_a       13.203725980454827
_cell_length_b       15.208771839166713
_cell_length_c       16.92722517774803
_cell_angle_alpha    108.28521086958767
_cell_angle_beta     104.19750313932448
_cell_angle_gamma    109.53008558238206

_space_group_name_H-M_alt    "P 1"
_space_group_IT_number       1

loop_
  _space_group_symop_operation_xyz
  'x, y, z'

loop_
  _atom_site_type_symbol
  _atom_site_label
  _atom_site_symmetry_multiplicity
  _atom_site_fract_x
  _atom_site_fract_y
  _atom_site_fract_z
  _atom_site_occupancy
  Zn  Zn1       1.0  0.37518101095402995  0.021878255883407926  0.9278373833405238  1.0000
  Zn  Zn2       1.0  0.6193836858991375  0.002849527987031371  0.14892020489532604  1.0000
  Zn  Zn3       1.0  0.3294532004384436  0.8874240063792485  0.04429958135195019  1.0000
  Zn  Zn4       1.0  0.6702958484763285  0.10466701077264422  0.9882287177745396  1.0000
  H   H1        1.0  0.1146376310974164  0.9898616113950072  0.834061353030947  1.0000
  H   H2        1.0  0.8623675481535072  0.12958556258425366  0.31983830436458055  1.0000
  H   H3        1.0  0.6476464279127684  0.6434142858321723  0.9552972265931389  1.0000
  H   H4        1.0  0.5487089504615736  0.4061909482093285  0.86739795716813  1.0000
  H   H5        1.0  0.2240397824061803  0.7042884461326154  0.6146858188411386  1.0000
  H   H6        1.0  0.24226055628111715  0.5161924115983112  0.7575784072627627  1.0000
  H   H7        1.0  0.12176876357009563  0.6212509215225027  0.4486238830121679  1.0000
  H   H8        1.0  0.12693906659772128  0.3581611331986565  0.6141775209351081  1.0000
  H   H9        1.0  0.9927267950888419  0.4639834420679633  0.30705762692672073  1.0000
  H   H10       1.0  0.010284143258772376  0.27438600063999985  0.4488315996588312  1.0000
  H   H11       1.0  0.27555754766994767  0.04521247275316404  0.1780040934022153  1.0000
  H   H12       1.0  0.265076511701018  0.6606760304566351  0.8885163422028838  1.0000
  H   H13       1.0  0.2535293409806272  0.0789022085189047  0.3098059459243103  1.0000
  H   H14       1.0  0.7119352673111122  0.30605021042542563  0.6245158853382691  1.0000
  H   H15       1.0  0.2289622629119989  0.0664299931498675  0.44636304070012756  1.0000
  H   H16       1.0  0.32313429677353867  0.07035442768400212  0.5932624062466658  1.0000
  H   H17       1.0  0.9041842940361065  0.6684813960691758  0.7994621587507424  1.0000
  H   H18       1.0  0.6756842078675616  0.5766353486469099  0.7217568085817802  1.0000
  H   H19       1.0  0.7646323367787105  0.8370668950893575  0.5847713309604217  1.0000
  H   H20       1.0  0.7065765432008462  0.9087394117909469  0.649649819794803  1.0000
  H   H21       1.0  0.9509925767819993  0.9227555076422933  0.719817658310248  1.0000
  H   H22       1.0  0.9049510931347908  0.01655004573981969  0.7699756702206955  1.0000
  H   H23       1.0  0.8092268351369967  0.06982021358410163  0.859360251422018  1.0000
  H   H24       1.0  0.6494479611118393  0.18375376315245975  0.32791884041449043  1.0000
  H   H25       1.0  0.37997024781691374  0.22075338279354645  0.05718450488519272  1.0000
  H   H26       1.0  0.8695390491951328  0.32034932569983005  0.17574851300251743  1.0000
  H   H27       1.0  0.33049999951080633  0.10804274244707565  0.7600085499007321  1.0000
  H   H28       1.0  0.6946435841573333  0.8678066293218266  0.05856994165077367  1.0000
  H   H29       1.0  0.7402609278294605  0.742388449942979  0.15540524778574388  1.0000
  H   H30       1.0  0.7899860806982275  0.878057643101883  0.21790777352789098  1.0000
  H   H31       1.0  0.8425377107054999  0.8328289104496561  0.1335693797446639  1.0000
  H   H32       1.0  0.3894310782095758  0.5247895729944005  0.21384390270915798  1.0000
  H   H33       1.0  0.43809884876387173  0.6925290255092592  0.3125156237647318  1.0000
  H   H34       1.0  0.7605928368054435  0.8088018601720536  0.9236706695258121  1.0000
  H   H35       1.0  0.5050030444314828  0.7437604272784668  0.24767783196222842  1.0000
  H   H36       1.0  0.572546931404041  0.6904216768963636  0.3115865729561875  1.0000
  H   H37       1.0  0.7940848066667243  0.5894926637522603  0.08505261041088388  1.0000
  H   H38       1.0  0.810179135616167  0.6539362218922592  0.013210939553232486  1.0000
  H   H39       1.0  0.891522807545556  0.5830168141591942  0.028034429108252937  1.0000
  H   H40       1.0  0.7062042537738193  0.33748820309049427  0.5294479482677517  1.0000
  H   H41       1.0  0.7419187327256154  0.42930851995760133  0.45010477888306605  1.0000
  H   H42       1.0  0.5967177885306612  0.4117582328309199  0.43692946051358217  1.0000
  H   H43       1.0  0.6216116724260488  0.33077253100456266  0.3494906632640493  1.0000
  H   H44       1.0  0.8208990844842672  0.3972621562916033  0.7761368309256298  1.0000
  H   H45       1.0  0.37001972964979063  0.8527109769551515  0.7526097187446439  1.0000
  H   H46       1.0  0.8480685737428146  0.29231061562556715  0.7164282936539834  1.0000
  H   H47       1.0  0.8827186473916626  0.33635366086372204  0.8355256443976486  1.0000
  H   H48       1.0  0.7232832159369024  0.4069721340947653  0.0029864369212831785  1.0000
  H   H49       1.0  0.8708817338773186  0.3666046735599266  0.9889389152224196  1.0000
  H   H50       1.0  0.7454004059732069  0.24522880008014877  0.9203585267108139  1.0000
  H   H51       1.0  0.8359274803460081  0.27566299352552204  0.03354869660999068  1.0000
  H   H52       1.0  0.9433800787208426  0.859781493335774  0.03953921324344381  1.0000
  H   H53       1.0  0.09273738624269622  0.9080294804822417  0.11281390022634957  1.0000
  H   H54       1.0  0.9872912691230766  0.7827969288331005  0.0896104215732549  1.0000
  H   H55       1.0  0.6516122509550827  0.08197878510186761  0.7824106749266306  1.0000
  H   H56       1.0  0.30687175883893747  0.6706156909466897  0.09106013349211385  1.0000
  H   H57       1.0  0.46182399769550386  0.42135627528629277  0.1613515749913503  1.0000
  H   H58       1.0  0.5011218659005647  0.5543470208282031  0.8808890039497682  1.0000
  C   C1        1.0  0.11632601261707984  0.9509502085252707  0.8779122688006282  1.0000
  C   C2        1.0  0.34949702749826633  0.8197564790483014  0.7982443434816915  1.0000
  C   C3        1.0  0.5722305969865288  0.08289411034697729  0.7888855195023793  1.0000
  C   C4        1.0  0.8524123347492106  0.16239067896385265  0.27158703881039503  1.0000
  C   C5        1.0  0.3891320822459433  0.7199635868524298  0.09214026929826248  1.0000
  C   C6        1.0  0.4965458095997091  0.1138019423123852  0.7430543607252815  1.0000
  C   C7        1.0  0.4821117443060671  0.6966210777752836  0.08485881387430538  1.0000
  C   C8        1.0  0.2968440714233154  0.7155881425772606  0.7830108818654223  1.0000
  C   C9        1.0  0.8065110321238294  0.9224395421348747  0.8639361051018781  1.0000
  C   C10       1.0  0.5627837862380075  0.4753207149373608  0.010116347591164872  1.0000
  C   C11       1.0  0.5309591181017125  0.41785826468767345  0.058222305200352834  1.0000
  C   C12       1.0  0.9063798573486109  0.2648475529437493  0.2838932990240721  1.0000
  C   C13       1.0  0.4834470450182451  0.45897761030211376  0.11826003806373109  1.0000
  C   C14       1.0  0.4666480789377657  0.5482168094571449  0.12957218215246513  1.0000
  C   C15       1.0  0.49605523539870694  0.6032961773009548  0.07751223840060828  1.0000
  C   C16       1.0  0.3691528326083002  0.07054360607858712  0.20260273224925376  1.0000
  C   C17       1.0  0.5430184256039752  0.5617985633972751  0.018612219572752192  1.0000
  C   C18       1.0  0.5745754785489224  0.5708269013064893  0.9400777430142142  1.0000
  C   C19       1.0  0.6015932905309215  0.4755927797203015  0.9321253477173173  1.0000
  C   C20       1.0  0.24037859112578258  0.622785768476625  0.6969558687957544  1.0000
  C   C21       1.0  0.9902305030629178  0.356732206754515  0.36762459977307327  1.0000
  C   C22       1.0  0.09708555929098142  0.5451985653952036  0.4486733637913005  1.0000
  C   C23       1.0  0.4570614099927326  0.14049509378370573  0.2893441919126261  1.0000
  C   C24       1.0  0.025168640370274876  0.4570609710620134  0.36950067363397204  1.0000
  C   C25       1.0  0.03387954902178347  0.3500229219173292  0.44800007774247763  1.0000
  C   C26       1.0  0.10678987472641674  0.4391558838615238  0.5307345176690035  1.0000
  C   C27       1.0  0.138553381102831  0.5396576577585961  0.5319446854879004  1.0000
  C   C28       1.0  0.6289374526575031  0.29482270767114477  0.030682645552786894  1.0000
  C   C29       1.0  0.20493576725151297  0.6289288612976023  0.6152404247812981  1.0000
  C   C30       1.0  0.21222860494216184  0.5225563403304322  0.6944387196895008  1.0000
  C   C31       1.0  0.14795577828338216  0.43406614140359767  0.6143117694912164  1.0000
  C   C32       1.0  0.4412528446118245  0.17306029269003897  0.37478870512426715  1.0000
  C   C33       1.0  0.505788983338881  0.15296520947606493  0.6753378047345534  1.0000
  C   C34       1.0  0.5408170360303471  0.3226155912537294  0.04770233029751134  1.0000
  C   C35       1.0  0.625619290060115  0.2546807413721981  0.6161179969543866  1.0000
  C   C36       1.0  0.6163614301878937  0.22175616300108925  0.6826275041454295  1.0000
  C   C37       1.0  0.40823637377809513  0.12362839154919675  0.6006331001705334  1.0000
  C   C38       1.0  0.4149097078239237  0.1521980325172693  0.5296111292101884  1.0000
  C   C39       1.0  0.5266949525407583  0.2172302107502162  0.5359473089304103  1.0000
  C   C40       1.0  0.5599575379140022  0.141588592966123  0.27850766831125645  1.0000
  C   C41       1.0  0.5371112532750572  0.2338722932023174  0.45872002796348  1.0000
  C   C42       1.0  0.3290663763916868  0.11975653004187599  0.3739081898949124  1.0000
  C   C43       1.0  0.3150076735941667  0.11109349428996043  0.4492328973110631  1.0000
  C   C44       1.0  0.8343071846379216  0.869540849777856  0.7878177111766717  1.0000
  C   C45       1.0  0.4075135562008327  0.09496190265420533  0.7761124097683592  1.0000
  C   C46       1.0  0.9026045982626912  0.8116827374270913  0.8131933941904066  1.0000
  C   C47       1.0  0.8532485727237784  0.7059514731322383  0.7766123493529875  1.0000
  C   C48       1.0  0.7291996898845241  0.6464767709556656  0.7180061065843333  1.0000
  C   C49       1.0  0.6877688203007749  0.6948823603921499  0.6739796447155015  1.0000
  C   C50       1.0  0.7304093537284756  0.7942649520973222  0.6932456439968533  1.0000
  C   C51       1.0  0.7609932008055083  0.8674998784017731  0.6516166213545844  1.0000
  C   C52       1.0  0.46227421200755714  0.23478187661912397  0.04906412884113828  1.0000
  C   C53       1.0  0.8791173805243843  0.9335106769953969  0.7355059082881965  1.0000
  C   C54       1.0  0.8546130542520842  0.25859562241929274  0.19728356007163933  1.0000
  C   C55       1.0  0.0809927645748375  0.8529961345099296  0.9491690486270343  1.0000
  C   C56       1.0  0.5638253547244361  0.7865977711384106  0.086976330306733  1.0000
  C   C57       1.0  0.0235108538882115  0.8720737052017216  0.8790487078992584  1.0000
  C   C58       1.0  0.7654398297025367  0.816476056162351  0.15061985770114464  1.0000
  C   C59       1.0  0.4878524053100933  0.6819742000825713  0.2700345098022297  1.0000
  C   C60       1.0  0.8078896050021385  0.5850796879293158  0.02247022704432316  1.0000
  C   C61       1.0  0.650608489990283  0.371573374708703  0.42309525457787334  1.0000
  C   C62       1.0  0.8211995243559898  0.3234257619654743  0.7715081925857135  1.0000
  C   C63       1.0  0.7973228772822623  0.3066870390288373  0.9901673264900523  1.0000
  C   C64       1.0  0.013448978474969038  0.8381709270436417  0.06131760023060911  1.0000
  C   C65       1.0  0.29755317056444847  0.7219203286180473  0.8680370837076267  1.0000
  C   C66       1.0  0.7914945627278058  0.012400616643354711  0.8858922262162636  1.0000
  C   C67       1.0  0.7669733095994288  0.8807336395518564  0.920611485649637  1.0000
  N   N1        1.0  0.21934987299970743  0.9742086986267324  0.9399930488534878  1.0000
  N   N2        1.0  0.41573547815914214  0.03041049177704022  0.14678157983035334  1.0000
  N   N3        1.0  0.6017270008389275  0.19838032069598205  0.023369626866085066  1.0000
  N   N4        1.0  0.5329817288657779  0.07445418210107853  0.19372099525705266  1.0000
  N   N5        1.0  0.4972039493815642  0.15919341119310812  0.033249189336359584  1.0000
  N   N6        1.0  0.7771015820065301  0.1609447210666631  0.13835385805936076  1.0000
  N   N7        1.0  0.19645945489256914  0.9133588943103066  0.9848014928541674  1.0000
  N   N8        1.0  0.43061050001430334  0.057297858862199263  0.8369439828333255  1.0000
  N   N9        1.0  0.6707459363520272  0.8100660928432362  0.07963729261544468  1.0000
  N   N10       1.0  0.41786763916680064  0.580212081093265  0.19213806705909792  1.0000
  N   N11       1.0  0.6446354003608831  0.3007314554668596  0.46563869889271803  1.0000
  N   N12       1.0  0.5220028599817185  0.8579947196422213  0.09915529138883275  1.0000
  N   N13       1.0  0.7310537546579283  0.3549344400810669  0.027607238911073775  1.0000
  N   N14       1.0  0.34463949010397243  0.8219017646362733  0.9274775364486062  1.0000
  N   N15       1.0  0.7472067966644999  0.021862447940108713  0.9507287772005739  1.0000
  N   N16       1.0  0.7317734850751236  0.9405396417540502  0.9729305745865702  1.0000
  N   N17       1.0  0.37712793500053005  0.8823437432680663  0.8850193970772153  1.0000
  N   N18       1.0  0.5326323825570468  0.04932865141990566  0.8451039882203303  1.0000
  N   N19       1.0  0.4123072594119819  0.8163214718768473  0.10056506620009044  1.0000
  N   N20       1.0  0.7766404025810372  0.10098791665799929  0.18425123872344784  1.0000
  O   O1        1.0  0.720005372983934  0.49217915503002285  0.9455502851238293  1.0000
  O   O2        1.0  0.7101471294015977  0.2511622756565117  0.7589378221445812  1.0000
  O   O3        1.0  0.0363272134784865  0.7873247339633451  0.9847596986259929  1.0000
