data_image0
_chemical_formula_structural       Ni4H120C80N16O16
_chemical_formula_sum              "Ni4 H120 C80 N16 O16"
_cell_length_a       9.76661466120989
_cell_length_b       18.32675565863677
_cell_length_c       18.572300776442713
_cell_angle_alpha    97.08594390725344
_cell_angle_beta     105.22687615660078
_cell_angle_gamma    89.99031944164646

_space_group_name_H-M_alt    "P 1"
_space_group_IT_number       1

loop_
  _space_group_symop_operation_xyz
  'x, y, z'

loop_
  _atom_site_type_symbol
  _atom_site_label
  _atom_site_symmetry_multiplicity
  _atom_site_fract_x
  _atom_site_fract_y
  _atom_site_fract_z
  _atom_site_occupancy
  Ni  Ni1       1.0  0.06197311468165635  0.9619762745982499  0.7527477177592914  1.0000
  Ni  Ni2       1.0  0.3088485500254592  0.5380407507246973  0.24752421912719313  1.0000
  Ni  Ni3       1.0  0.9380261667394336  0.038023493857373615  0.24725241652936353  1.0000
  Ni  Ni4       1.0  0.6911612358649819  0.46196067889680853  0.7524770593556127  1.0000
  H   H1        1.0  0.5562245422438397  0.980519877492903  0.7820640799000104  1.0000
  H   H2        1.0  0.7730039721812147  0.5198583273986872  0.21833613847511665  1.0000
  H   H3        1.0  0.44379044372873006  0.019477311841676198  0.21795009644760202  1.0000
  H   H4        1.0  0.22701973006667941  0.48010844533497743  0.7816611733404812  1.0000
  H   H5        1.0  0.4746366278302857  0.07308601632946933  0.9906208016066244  1.0000
  H   H6        1.0  0.484364187020482  0.42691223923407057  0.009547322620797194  1.0000
  H   H7        1.0  0.5253320034704884  0.9269378746808526  0.00937514938519968  1.0000
  H   H8        1.0  0.5156565002558723  0.5730687620598829  0.9904454472006634  1.0000
  H   H9        1.0  0.8655102128440861  0.22602939676859535  0.722376747302512  1.0000
  H   H10       1.0  0.14368305016973446  0.2738458792658279  0.27761874181979357  1.0000
  H   H11       1.0  0.13448830122738545  0.7739742762514582  0.2776283157124766  1.0000
  H   H12       1.0  0.8563204244199197  0.7261521865518861  0.7223768597624058  1.0000
  H   H13       1.0  0.026194995962512718  0.13705015340968885  0.7615929169840356  1.0000
  H   H14       1.0  0.26473445264993245  0.36311858151459825  0.2389182902147269  1.0000
  H   H15       1.0  0.973789914265069  0.8629501838569809  0.2384087733306259  1.0000
  H   H16       1.0  0.7352706938455568  0.6368833399480991  0.7610781738120521  1.0000
  H   H17       1.0  0.1780160881751841  0.12952389233339556  0.7260099953229329  1.0000
  H   H18       1.0  0.45209366002942625  0.37067804780556923  0.2745419000492717  1.0000
  H   H19       1.0  0.8219758338866328  0.870479777801812  0.2739947965768437  1.0000
  H   H20       1.0  0.5479134482201573  0.6293200633408988  0.7254574967552756  1.0000
  H   H21       1.0  0.863876558123515  0.13013232104307093  0.9402697145798768  1.0000
  H   H22       1.0  0.9242536937542525  0.370440840462969  0.06057301971011244  1.0000
  H   H23       1.0  0.13611792106662787  0.8698769575016243  0.05974467432890412  1.0000
  H   H24       1.0  0.07576282041784337  0.6295448975216547  0.9394024444447382  1.0000
  H   H25       1.0  0.7526514845277318  0.020848534686472006  0.7464317227216455  1.0000
  H   H26       1.0  0.005492684650711528  0.4800368647773822  0.254172566863943  1.0000
  H   H27       1.0  0.2473489893887192  0.9791563018885727  0.2535787567130826  1.0000
  H   H28       1.0  0.9945283803706887  0.5199248350390422  0.7458139931699678  1.0000
  H   H29       1.0  0.8463128920190782  0.10309403580225049  0.7925877682694419  1.0000
  H   H30       1.0  0.05302768399117502  0.3974829475363111  0.20851606881800683  1.0000
  H   H31       1.0  0.15369599272720086  0.8969102501812077  0.20742264608692557  1.0000
  H   H32       1.0  0.9469998615431692  0.6024933580656793  0.7914516468121776  1.0000
  H   H33       1.0  0.3650361969564315  0.9257685992542904  0.8313568769359279  1.0000
  H   H34       1.0  0.5317986376508371  0.574251028394123  0.16837258012055403  1.0000
  H   H35       1.0  0.6349671015152082  0.07423514667436852  0.16865428553890638  1.0000
  H   H36       1.0  0.46823828935514916  0.4257315865886967  0.8316174031709096  1.0000
  H   H37       1.0  0.3217510728907203  0.9725218210262696  0.9109091379375442  1.0000
  H   H38       1.0  0.4098230428123699  0.526907315974917  0.08892618704700794  1.0000
  H   H39       1.0  0.6782415975114019  0.027489528021234798  0.08909466797826583  1.0000
  H   H40       1.0  0.5901949436711859  0.4730743071415162  0.9110726117736476  1.0000
  H   H41       1.0  0.7075048677813666  0.1414247952475733  0.02669556446068811  1.0000
  H   H42       1.0  0.6818594057394877  0.3588379156808514  0.9737979773354367  1.0000
  H   H43       1.0  0.29246731500985856  0.8585958549941496  0.9733050109483443  1.0000
  H   H44       1.0  0.3181502336427613  0.6411473587482632  0.026184605457110904  1.0000
  H   H45       1.0  0.1861942893500412  0.7617669249088337  0.8849590498974748  1.0000
  H   H46       1.0  0.301129506218082  0.7380687412447104  0.11488665051282963  1.0000
  H   H47       1.0  0.8137952661620104  0.23822679436380412  0.1150405036217563  1.0000
  H   H48       1.0  0.6988591394165837  0.26191157511835433  0.885094668432977  1.0000
  H   H49       1.0  0.010018366121116257  0.7235033901108993  0.8488158214360055  1.0000
  H   H50       1.0  0.16101593448266982  0.7764082087874513  0.15098896111823734  1.0000
  H   H51       1.0  0.989966922175931  0.2764952365998994  0.1511806584399622  1.0000
  H   H52       1.0  0.8389871070004061  0.22358318890964307  0.8490003018105554  1.0000
  H   H53       1.0  0.056524492238353194  0.7769499944975067  0.9378689803481423  1.0000
  H   H54       1.0  0.11857203478303556  0.7228150849948493  0.06201338487718293  1.0000
  H   H55       1.0  0.943461315152973  0.2230486386888231  0.062128041702450836  1.0000
  H   H56       1.0  0.8814048808650269  0.2771697208148893  0.9379757742668176  1.0000
  H   H57       1.0  0.12336724305060909  0.1409601385467951  0.5775846068011745  1.0000
  H   H58       1.0  0.5449412633505021  0.3593997084630233  0.4233943463207552  1.0000
  H   H59       1.0  0.8766125066164462  0.859036862495934  0.4224137108503783  1.0000
  H   H60       1.0  0.45505231924425266  0.6405995053090267  0.5766053161981191  1.0000
  H   H61       1.0  0.6669881006990864  0.30800132644807127  0.6713363039271059  1.0000
  H   H62       1.0  0.9955354588550589  0.19204463779993836  0.3282955499754934  1.0000
  H   H63       1.0  0.33302350535226566  0.6920063446787736  0.3286815493741457  1.0000
  H   H64       1.0  0.004458759366088074  0.8079534447948121  0.6717014069967462  1.0000
  H   H65       1.0  0.6659478070029722  0.3509461039920582  0.5914279422142528  1.0000
  H   H66       1.0  0.07352968587530037  0.1490303456121467  0.4082370951116658  1.0000
  H   H67       1.0  0.3340428914507002  0.6490587428844848  0.4085833504358974  1.0000
  H   H68       1.0  0.9264666107942575  0.8509715844743512  0.5917600465915244  1.0000
  H   H69       1.0  0.8333033125934788  0.31380727728178937  0.5142231961929937  1.0000
  H   H70       1.0  0.3179872117606949  0.18609400668323423  0.4858992919277015  1.0000
  H   H71       1.0  0.16669558693993744  0.6862041494721538  0.48578711581827605  1.0000
  H   H72       1.0  0.681994971272289  0.8139090715928888  0.5141019106935546  1.0000
  H   H73       1.0  0.44310522641200123  0.9104326104247137  0.6034564870815942  1.0000
  H   H74       1.0  0.8391391615242084  0.5895611163364834  0.3965013988612611  1.0000
  H   H75       1.0  0.5569053575346885  0.08957923408542713  0.3965429111068346  1.0000
  H   H76       1.0  0.16083664712830634  0.4104706792580401  0.6035124066635476  1.0000
  H   H77       1.0  0.3011322820954733  0.8425297277579133  0.579638274431197  1.0000
  H   H78       1.0  0.7207071397995294  0.6573639865843435  0.42034240018420393  1.0000
  H   H79       1.0  0.6988868271418484  0.15747660691820906  0.4203597949251616  1.0000
  H   H80       1.0  0.2792581511016366  0.34266280970737745  0.5796667529629431  1.0000
  H   H81       1.0  0.42706988523355693  0.8475775072905805  0.6679011589140416  1.0000
  H   H82       1.0  0.7585098539346689  0.6524110140831781  0.3320891555638284  1.0000
  H   H83       1.0  0.5729451646297363  0.15243157822592224  0.3320972360015446  1.0000
  H   H84       1.0  0.24145840652691675  0.34761525631195417  0.6679219656272366  1.0000
  H   H85       1.0  0.01602618072257674  0.2286531524325355  0.48747163032231816  1.0000
  H   H86       1.0  0.5269837552572484  0.27157751475508723  0.5132839732564491  1.0000
  H   H87       1.0  0.9839632107749238  0.7713515855670394  0.5125305809354757  1.0000
  H   H88       1.0  0.4730050197853899  0.7284255664058819  0.4867175004800259  1.0000
  H   H89       1.0  0.23833959629396897  0.07080051893449732  0.8392662164442444  1.0000
  H   H90       1.0  0.39837700618831917  0.4290406577098124  0.1609171255063444  1.0000
  H   H91       1.0  0.7616493641682708  0.9292013725340669  0.16072767219261413  1.0000
  H   H92       1.0  0.6016541140302394  0.5709500040529677  0.8391025045091425  1.0000
  H   H93       1.0  0.9254868308975901  0.04130925948900451  0.6433339637479278  1.0000
  H   H94       1.0  0.281870023521961  0.45884946267475624  0.3571238812183709  1.0000
  H   H95       1.0  0.07451301726241877  0.9586894298288868  0.3566678023724705  1.0000
  H   H96       1.0  0.7181414361834157  0.5411508487205197  0.6428757760670507  1.0000
  H   H97       1.0  0.9117989989438228  0.9555778679190824  0.8405215893273381  1.0000
  H   H98       1.0  0.07110719245580555  0.5446227478019666  0.15985826436112663  1.0000
  H   H99       1.0  0.08820191985825693  0.044421384470908314  0.1594813262578683  1.0000
  H   H100      1.0  0.9289024158136668  0.45536877148789057  0.8401411643278678  1.0000
  H   H101      1.0  0.09791384841985033  0.027882010986566307  0.6501348550682451  1.0000
  H   H102      1.0  0.4474670772129625  0.4723353826266249  0.35034958505980285  1.0000
  H   H103      1.0  0.9020855588349477  0.9721211102347666  0.34987000729217504  1.0000
  H   H104      1.0  0.5525423862134886  0.5276643673742639  0.6496490582998079  1.0000
  H   H105      1.0  0.004960105404841142  0.03298679909106281  0.8764789185260824  1.0000
  H   H106      1.0  0.1279271107590745  0.46697839539604075  0.12409795450070504  1.0000
  H   H107      1.0  0.9950490904325233  0.9670108545048638  0.12352813912800541  1.0000
  H   H108      1.0  0.872106388843278  0.5330245824531233  0.8758951157617005  1.0000
  H   H109      1.0  0.8687294639436587  0.4229751088373775  0.6623732430917286  1.0000
  H   H110      1.0  0.20564729614463323  0.07671575687817984  0.3374814855891017  1.0000
  H   H111      1.0  0.1312772034007069  0.5770274342125248  0.3376292499528475  1.0000
  H   H112      1.0  0.7943539988178117  0.9232867588271532  0.6625187031993749  1.0000
  H   H113      1.0  0.8853899263295872  0.3785148111174125  0.736273653196605  1.0000
  H   H114      1.0  0.14884809518948572  0.12120572668724347  0.2635324420162632  1.0000
  H   H115      1.0  0.1146207984797059  0.6214899549633162  0.2637309979307076  1.0000
  H   H116      1.0  0.8511505870391572  0.8787945707850897  0.7364659953250907  1.0000
  H   H117      1.0  0.2866259771242171  0.030069720849297703  0.7656891523996094  1.0000
  H   H118      1.0  0.5203079633495662  0.46986165846185207  0.2343791038307259  1.0000
  H   H119      1.0  0.7133762778377105  0.9699283694281393  0.23430848232346344  1.0000
  H   H120      1.0  0.4797183919647667  0.5301437332980685  0.7656319830058183  1.0000
  C   C1        1.0  0.589812014828226  0.015770129494228503  0.8359934437176761  1.0000
  C   C2        1.0  0.7531162143388884  0.4845751300783192  0.1644338323553143  1.0000
  C   C3        1.0  0.4101909420079081  0.984234724829712  0.16401852670191633  1.0000
  C   C4        1.0  0.24689869385075291  0.5153970565634794  0.8355568112492477  1.0000
  C   C5        1.0  0.9995678417136419  0.17709981067375943  0.6554830342547434  1.0000
  C   C6        1.0  0.3439811116006198  0.32299570520130766  0.344964361348282  1.0000
  C   C7        1.0  0.0004184464289025735  0.8229044050199193  0.3445214161063746  1.0000
  C   C8        1.0  0.6560187080862717  0.6770012817139487  0.6550328720470446  1.0000
  C   C9        1.0  0.7192828359554754  0.0552672437536188  0.854682396288439  1.0000
  C   C10       1.0  0.8642600291952788  0.44521035724810076  0.14594374980298142  1.0000
  C   C11       1.0  0.2807192276973325  0.9447381623690492  0.14532977478571504  1.0000
  C   C12       1.0  0.1357663151523029  0.5547661581898637  0.8540414508796914  1.0000
  C   C13       1.0  0.5011998492601893  0.02122173559772731  0.8846629873493727  1.0000
  C   C14       1.0  0.6160430543716158  0.4789109128005151  0.11558355801027183  1.0000
  C   C15       1.0  0.49879277142597545  0.9787868774734466  0.11534171287686232  1.0000
  C   C16       1.0  0.3839688366129722  0.5210628853511283  0.8844040278932539  1.0000
  C   C17       1.0  0.5436048954725409  0.06790933886730953  0.9526877866333409  1.0000
  C   C18       1.0  0.591095968079088  0.4322211951746553  0.04760106530466862  1.0000
  C   C19       1.0  0.45637649397123436  0.9321085586210318  0.04731232769606921  1.0000
  C   C20       1.0  0.4089094436097582  0.5677614101817455  0.9523879690463204  1.0000
  C   C21       1.0  0.8972643835443749  0.22577868913487725  0.670123607769959  1.0000
  C   C22       1.0  0.2272624214526644  0.27415054435007147  0.3300062253185274  1.0000
  C   C23       1.0  0.10272916070732672  0.7742261006689831  0.32988294088480796  1.0000
  C   C24       1.0  0.7727330012051041  0.7258491495192487  0.6699876739712849  1.0000
  C   C25       1.0  0.06153170760936904  0.12370987888308353  0.7100554241817179  1.0000
  C   C26       1.0  0.3514952079551323  0.3764450265787788  0.29046604697636275  1.0000
  C   C27       1.0  0.9384530251594541  0.8762893435127668  0.2899449160135674  1.0000
  C   C28       1.0  0.648510341102515  0.6235580390122948  0.7095342069462873  1.0000
  C   C29       1.0  0.8369230375303542  0.27575784375043366  0.6202570985959284  1.0000
  C   C30       1.0  0.21638908132570836  0.22408796540949552  0.3797310569294865  1.0000
  C   C31       1.0  0.1630774039325686  0.7242464427035814  0.3797533157232351  1.0000
  C   C32       1.0  0.7836021521439135  0.7759122788161293  0.6202629074572812  1.0000
  C   C33       1.0  0.7618377894373864  0.0998886620635062  0.9242554868890593  1.0000
  C   C34       1.0  0.8379034236469137  0.4005724371075985  0.076398390635525  1.0000
  C   C35       1.0  0.23815492462895804  0.9001227536523402  0.07575387629336923  1.0000
  C   C36       1.0  0.16210751546123708  0.599412277369545  0.9235833137888321  1.0000
  C   C37       1.0  0.8133185077578772  0.0482963649955224  0.8016136634106346  1.0000
  C   C38       1.0  0.011182643091821452  0.4522597705310645  0.19914444546245852  1.0000
  C   C39       1.0  0.18668430407302586  0.9517079245786276  0.1983970220051461  1.0000
  C   C40       1.0  0.9888417698838836  0.5477172837545509  0.8008398715255325  1.0000
  C   C41       1.0  0.022542842902843942  0.8396119807674155  0.8441362034890075  1.0000
  C   C42       1.0  0.17831509213155528  0.6603638560687627  0.1558959141138132  1.0000
  C   C43       1.0  0.9774518619590465  0.1603855581818507  0.1558612305422855  1.0000
  C   C44       1.0  0.821680148924827  0.3396270797505281  0.8441006029916949  1.0000
  C   C45       1.0  0.359457687606387  0.9805228246043501  0.8617100054840705  1.0000
  C   C46       1.0  0.4967114027156043  0.519326139245017  0.13825759379372474  1.0000
  C   C47       1.0  0.6405467352037062  0.019483068091126703  0.1382969445356537  1.0000
  C   C48       1.0  0.5033096546693797  0.480655456056283  0.8617389008080423  1.0000
  C   C49       1.0  0.6741191806987957  0.10655822206327062  0.9728428975456112  1.0000
  C   C50       1.0  0.7018556313759418  0.39374116593079816  0.0276234368639408  1.0000
  C   C51       1.0  0.3258608593031268  0.893457499400704  0.027158989462414244  1.0000
  C   C52       1.0  0.29815067954795194  0.6062435569348708  0.9723589452554364  1.0000
  C   C53       1.0  0.275936934090197  0.9343753496851409  0.6594779055013548  1.0000
  C   C54       1.0  0.6160847616273558  0.5655074119167693  0.34045145333007554  1.0000
  C   C55       1.0  0.7240684050551633  0.0656260509140907  0.3405209331863475  1.0000
  C   C56       1.0  0.3838999635050515  0.4345117059639562  0.6595588214330662  1.0000
  C   C57       1.0  0.07419528418765979  0.7716793186869213  0.8814222527288254  1.0000
  C   C58       1.0  0.1926696084620758  0.7281828196398266  0.11846015843642023  1.0000
  C   C59       1.0  0.92579464748475  0.22831766390106614  0.11857457399367624  1.0000
  C   C60       1.0  0.8073179281874516  0.27180250968295644  0.8815268971804783  1.0000
  C   C61       1.0  0.04236499443332789  0.1783499910045663  0.5891143338870819  1.0000
  C   C62       1.0  0.45258139742333736  0.3218537890514099  0.41155770144818865  1.0000
  C   C63       1.0  0.9576172686978239  0.8216525517793088  0.4108880235068568  1.0000
  C   C64       1.0  0.5474148667926928  0.6781475909140725  0.5884393751394301  1.0000
  C   C65       1.0  0.7359641423418637  0.3313596284941697  0.6413230698648819  1.0000
  C   C66       1.0  0.09423788309905491  0.16855081570425062  0.3584362599364113  1.0000
  C   C67       1.0  0.2640412364873016  0.668642991055016  0.35868579369893894  1.0000
  C   C68       1.0  0.905756155754226  0.8314511258908938  0.6415618305584162  1.0000
  C   C69       1.0  0.8797832732734107  0.2755992341227725  0.5540279860117465  1.0000
  C   C70       1.0  0.32494015550100397  0.22433171731530882  0.44616005084907334  1.0000
  C   C71       1.0  0.12021072325640607  0.7244094357857948  0.4459814582284736  1.0000
  C   C72       1.0  0.6750467570572454  0.7756718506537439  0.5538362018143559  1.0000
  C   C73       1.0  0.36827813343014537  0.8809886077852984  0.6253756909177142  1.0000
  C   C74       1.0  0.7423078396510688  0.6189494927403772  0.37459632546402594  1.0000
  C   C75       1.0  0.6317331814322173  0.11901993432100262  0.3746231810383165  1.0000
  C   C76       1.0  0.25766491727154794  0.38107954265337446  0.6254163412117181  1.0000
  C   C77       1.0  0.9823034826676249  0.22729650656678765  0.5387350177950553  1.0000
  C   C78       1.0  0.4425393842154079  0.2728103905763746  0.4618027327445162  1.0000
  C   C79       1.0  0.0176861988403375  0.7727093609323888  0.46126976347036225  1.0000
  C   C80       1.0  0.5574556127282548  0.7271920994620943  0.5381952873268716  1.0000
  N   N1        1.0  0.25047674364603295  0.020486628834746105  0.8113710067036594  1.0000
  N   N2        1.0  0.43835395668892113  0.4793825488373146  0.18873284707554214  1.0000
  N   N3        1.0  0.7495160947510514  0.9795125492042165  0.1886256738640953  1.0000
  N   N4        1.0  0.5616737822676826  0.5206117997359527  0.811273548881566  1.0000
  N   N5        1.0  0.0249397774730016  0.04553345203295581  0.6794211263702437  1.0000
  N   N6        1.0  0.3453185201307605  0.4546238813984472  0.3210580675174626  1.0000
  N   N7        1.0  0.9750558663077412  0.9544674233755333  0.3205796803055634  1.0000
  N   N8        1.0  0.6546901302105326  0.5453758849089212  0.6789419312693995  1.0000
  N   N9        1.0  0.8121379303614945  0.39647833381958014  0.691200722708345  1.0000
  N   N10       1.0  0.12046731773978091  0.10333691000014511  0.30860896722620623  1.0000
  N   N11       1.0  0.18787167218065556  0.6035281070839318  0.3088061569065417  1.0000
  N   N12       1.0  0.8795319484902039  0.8966644941897783  0.691390142520902  1.0000
  N   N13       1.0  0.9417179732224457  0.005919882565876803  0.8276016364436032  1.0000
  N   N14       1.0  0.11376875625953183  0.49427850673777834  0.17293800663429693  1.0000
  N   N15       1.0  0.058288901962896496  0.9940805038862592  0.1724042558034498  1.0000
  N   N16       1.0  0.8862459231707192  0.5057123938497342  0.8270556641521196  1.0000
  O   O1        1.0  0.8933563620831252  0.8556951796356886  0.8374350880741233  1.0000
  O   O2        1.0  0.05580020370658902  0.6443690033654194  0.16263412847639813  1.0000
  O   O3        1.0  0.1066404271167016  0.1443000806524992  0.1625555794366633  1.0000
  O   O4        1.0  0.9441872296928224  0.3556208017471292  0.8373596830452712  1.0000
  O   O5        1.0  0.2941083386696591  0.0031476597778024033  0.6595436920151059  1.0000
  O   O6        1.0  0.6344105570302716  0.4967462552978573  0.340073457139944  1.0000
  O   O7        1.0  0.705881207865218  0.9968591599979535  0.34044888505996346  1.0000
  O   O8        1.0  0.3655807005258964  0.5032774079258289  0.6599494019097989  1.0000
  O   O9        1.0  0.11228018969913489  0.8749726755608266  0.8211193616008003  1.0000
  O   O10       1.0  0.2910039413694179  0.6250099465922007  0.17900011003951732  1.0000
  O   O11       1.0  0.8877226128301813  0.12502712359477644  0.17888334802196232  1.0000
  O   O12       1.0  0.708993233130144  0.37498427196904077  0.8209953067931225  1.0000
  O   O13       1.0  0.18503163602394349  0.905056919078106  0.6869813379418234  1.0000
  O   O14       1.0  0.4975394822632069  0.5948351771345629  0.3132100779571019  1.0000
  O   O15       1.0  0.8149802799399665  0.0949461201402713  0.3130167473195513  1.0000
  O   O16       1.0  0.502439080554062  0.40517998941055583  0.686791337299745  1.0000
