data_image0
_chemical_formula_structural       Cd4H32C24S8N24
_chemical_formula_sum              "Cd4 H32 C24 S8 N24"
_cell_length_a       8.134879588073298
_cell_length_b       10.174762761001311
_cell_length_c       13.066056095115318
_cell_angle_alpha    90.00005128059016
_cell_angle_beta     90.00048223579269
_cell_angle_gamma    90.00002659256157

_space_group_name_H-M_alt    "P 1"
_space_group_IT_number       1

loop_
  _space_group_symop_operation_xyz
  'x, y, z'

loop_
  _atom_site_type_symbol
  _atom_site_label
  _atom_site_symmetry_multiplicity
  _atom_site_fract_x
  _atom_site_fract_y
  _atom_site_fract_z
  _atom_site_occupancy
  Cd  Cd1       1.0  0.7499998270626873  0.4137496276687642  0.4999969162892483  1.0000
  Cd  Cd2       1.0  0.2500000380684924  0.0862457912402306  6.899872459999998e-07  1.0000
  Cd  Cd3       1.0  0.2499998525640805  0.5862498727597297  0.49999948384764525  1.0000
  Cd  Cd4       1.0  0.7499990778413376  0.9137521545597737  3.332914399999692e-09  1.0000
  H   H1        1.0  0.3515149735992651  0.007672322454744998  0.5855938548532151  1.0000
  H   H2        1.0  0.8515284115247397  0.4923276366768761  0.9144084128582218  1.0000
  H   H3        1.0  0.14848562000003082  0.007674153102314602  0.4144077689532181  1.0000
  H   H4        1.0  0.6484737474790377  0.49232810845810354  0.08559159750137718  1.0000
  H   H5        1.0  0.6484724133090864  0.9923301264453883  0.41440637196168945  1.0000
  H   H6        1.0  0.1484712681282829  0.5076738294016039  0.08559181398877769  1.0000
  H   H7        1.0  0.8515300402736586  0.9923302614551588  0.5856001113558376  1.0000
  H   H8        1.0  0.351529619960651  0.5076704091462928  0.9144032719611344  1.0000
  H   H9        1.0  0.11633210607616458  0.11107032469757168  0.6853226753836168  1.0000
  H   H10       1.0  0.6163306226919332  0.38893151409395443  0.8146798816172873  1.0000
  H   H11       1.0  0.38367223625015606  0.11107114445559317  0.3146782555146571  1.0000
  H   H12       1.0  0.8836653290466715  0.3889312030931364  0.18532235232844124  1.0000
  H   H13       1.0  0.8836663443126298  0.8889311413815548  0.31467908214391116  1.0000
  H   H14       1.0  0.3836715155152178  0.6110699519854136  0.18532111057808717  1.0000
  H   H15       1.0  0.6163299019467203  0.8889303216228935  0.6853212059969492  1.0000
  H   H16       1.0  0.116331892056202  0.6110663316893009  0.8146778745106997  1.0000
  H   H17       1.0  0.07571419189032721  0.27685794309346073  0.6443186694243579  1.0000
  H   H18       1.0  0.5757205367799331  0.22314388084947723  0.8556844385473068  1.0000
  H   H19       1.0  0.42428656028381795  0.2768588245948536  0.35568390827265967  1.0000
  H   H20       1.0  0.9242790051211218  0.2231435378033382  0.1443176792834464  1.0000
  H   H21       1.0  0.9242768828569224  0.7231445058086549  0.355683853425937  1.0000
  H   H22       1.0  0.4242816014220736  0.7768575852294574  0.14431578830618716  1.0000
  H   H23       1.0  0.5757192657371206  0.7231446071321058  0.6443155532493632  1.0000
  H   H24       1.0  0.07572067453588013  0.7768539969799872  0.8556833129040624  1.0000
  H   H25       1.0  0.18214432460476362  0.24764555469957367  0.7612746602178715  1.0000
  H   H26       1.0  0.6821429707516984  0.25235630815381427  0.7387282441571797  1.0000
  H   H27       1.0  0.3178576396352994  0.24764528071280978  0.23872789702038935  1.0000
  H   H28       1.0  0.8178529005290186  0.2523560599501522  0.26127312878361403  1.0000
  H   H29       1.0  0.8178528965149637  0.7523568942036647  0.23872786264863774  1.0000
  H   H30       1.0  0.3178591674454694  0.7476461407485786  0.2612712173547749  1.0000
  H   H31       1.0  0.6821420400174317  0.7523552025417715  0.7612723298262692  1.0000
  H   H32       1.0  0.18214432056900162  0.7476424576557503  0.7387263327139804  1.0000
  C   C1        1.0  0.4162623471874838  0.32059954619743536  0.6101057398711587  1.0000
  C   C2        1.0  0.9162642083325921  0.1793974881311371  0.8898938081944294  1.0000
  C   C3        1.0  0.08373597218380982  0.32059935949115465  0.3898938070899333  1.0000
  C   C4        1.0  0.583736537047699  0.1793979642782588  0.11010445228860279  1.0000
  C   C5        1.0  0.5837373324700933  0.6793999542336877  0.38989525231703936  1.0000
  C   C6        1.0  0.0837305542318489  0.8206010294756254  0.11010794932233377  1.0000
  C   C7        1.0  0.9162637074629173  0.6793981752912899  0.6101056544138074  1.0000
  C   C8        1.0  0.416264371852975  0.820599570502665  0.8898919478508489  1.0000
  C   C9        1.0  0.39932395254935926  0.1072540147144991  0.5864802818055139  1.0000
  C   C10       1.0  0.8993324028060812  0.3927439962467076  0.9135199422144993  1.0000
  C   C11       1.0  0.10067669970025861  0.1072548440441565  0.4135198810680477  1.0000
  C   C12       1.0  0.6006672389815222  0.3927444515654272  0.0864792330441162  1.0000
  C   C13       1.0  0.6006671221662075  0.8927454857132984  0.4135176489924389  1.0000
  C   C14       1.0  0.1006697353907953  0.6072574698317864  0.08647951929710727  1.0000
  C   C15       1.0  0.8993352727382201  0.8927446563922743  0.5864864685457929  1.0000
  C   C16       1.0  0.39933489919422976  0.6072550488635216  0.9135171670992575  1.0000
  C   C17       1.0  0.16343668967963507  0.21180290178975264  0.683019921245595  1.0000
  C   C18       1.0  0.6634388656808455  0.2881999370479705  0.8169821190535271  1.0000
  C   C19       1.0  0.3365652534465156  0.21180272413588594  0.31698261088698126  1.0000
  C   C20       1.0  0.8365594852684878  0.2881996061914123  0.18302004434201535  1.0000
  C   C21       1.0  0.8365593021501851  0.7881995471119507  0.3169803055920183  1.0000
  C   C22       1.0  0.3365632725211611  0.7118015290309573  0.18301810779996686  1.0000
  C   C23       1.0  0.6634393433096193  0.7881987419439299  0.6830183813148806  1.0000
  C   C24       1.0  0.1634389651040351  0.7117989114147107  0.8169794171588262  1.0000
  S   S1        1.0  0.3764895112436903  0.47651376440293813  0.6539842704551615  1.0000
  S   S2        1.0  0.8764845453105609  0.023483255382892296  0.8460150676611633  1.0000
  S   S3        1.0  0.12351012924210636  0.47651452488170065  0.34601462037655745  1.0000
  S   S4        1.0  0.6235136496867425  0.0234857619023643  0.15398461429091267  1.0000
  S   S5        1.0  0.623511397673269  0.5234867188509894  0.34601442571096896  1.0000
  S   S6        1.0  0.12351144652323853  0.9765152622236571  0.1539859245169595  1.0000
  S   S7        1.0  0.8764883211252794  0.5234839927239888  0.6539840757823966  1.0000
  S   S8        1.0  0.37648848850984956  0.976514721352231  0.8460148472203457  1.0000
  N   N1        1.0  0.3192567003776291  0.21227858585913845  0.6284874273161944  1.0000
  N   N2        1.0  0.8192608372012983  0.2877213614758389  0.8715131394194768  1.0000
  N   N3        1.0  0.1807452430290297  0.21227939642385954  0.37151510514992475  1.0000
  N   N4        1.0  0.6807387427254668  0.2877218941095093  0.12848672761874264  1.0000
  N   N5        1.0  0.6807368328877956  0.7877238630408032  0.3715105034892757  1.0000
  N   N6        1.0  0.1807388424517242  0.712280104602641  0.1284870874275299  1.0000
  N   N7        1.0  0.8192630415865381  0.7877220696596937  0.6284912444548637  1.0000
  N   N8        1.0  0.3192609369061472  0.7122766234955265  0.8715104378596904  1.0000
  N   N9        1.0  0.5493272677153274  0.2784226364968632  0.5589376138763738  1.0000
  N   N10       1.0  0.04932978973952371  0.22157328085194192  0.9410607627548586  1.0000
  N   N11       1.0  0.9506710774483055  0.2784206768139939  0.4410607159607307  1.0000
  N   N12       1.0  0.45066847128772736  0.22157284981437186  0.05893718416017889  1.0000
  N   N13       1.0  0.45066995338270033  0.7215758811090325  0.4410618476212207  1.0000
  N   N14       1.0  0.9506662020837167  0.7784242539298347  0.05893869873914779  1.0000
  N   N15       1.0  0.04932983147776329  0.7215758751452199  0.5589395108877965  1.0000
  N   N16       1.0  0.5493299790690997  0.778424684966545  0.9410599813146587  1.0000
  N   N17       1.0  0.5385808084129096  0.14470452034726827  0.5436949897045336  1.0000
  N   N18       1.0  0.03858853086826739  0.35529041024997804  0.9563040955593889  1.0000
  N   N19       1.0  0.9614211458255966  0.1447045476752464  0.45630630784869197  1.0000
  N   N20       1.0  0.46141103821832263  0.3552909485325415  0.0436962410460424  1.0000
  N   N21       1.0  0.4614114955563196  0.8552939972551029  0.4562998797287747  1.0000
  N   N22       1.0  0.9614123780532466  0.6447081073565925  0.04369536594793999  1.0000
  N   N23       1.0  0.0385895973637744  0.8552939699392541  0.5437038684709775  1.0000
  N   N24       1.0  0.5385898706874954  0.6447065862488229  0.9563009244352898  1.0000
