data_image0
_chemical_formula_structural       CuH22C30N8Cl4O4
_chemical_formula_sum              "Cu1 H22 C30 N8 Cl4 O4"
_cell_length_a       7.6822733277971205
_cell_length_b       7.967526372209061
_cell_length_c       12.950388387823468
_cell_angle_alpha    76.703427858221
_cell_angle_beta     90.59498784737882
_cell_angle_gamma    74.14297323542809

_space_group_name_H-M_alt    "P 1"
_space_group_IT_number       1

loop_
  _space_group_symop_operation_xyz
  'x, y, z'

loop_
  _atom_site_type_symbol
  _atom_site_label
  _atom_site_symmetry_multiplicity
  _atom_site_fract_x
  _atom_site_fract_y
  _atom_site_fract_z
  _atom_site_occupancy
  Cu  Cu1       1.0  0.49999785013471865  0.4999991569466432  0.4999972548389309  1.0000
  H   H1        1.0  0.6746849568002344  0.1543686800288953  0.7703678865051914  1.0000
  H   H2        1.0  0.32532737923568056  0.8456434370700096  0.22962414709891724  1.0000
  H   H3        1.0  0.8810475086908692  0.9813841884319318  0.8177728343350948  1.0000
  H   H4        1.0  0.1189531514420494  0.018612022410188403  0.18223047435540712  1.0000
  H   H5        1.0  0.5053326775352076  0.916393677019528  0.8007159117170984  1.0000
  H   H6        1.0  0.4946456646432579  0.0836488641364852  0.1992706534370683  1.0000
  H   H7        1.0  0.6174727571495495  0.9253959544685061  0.9194433519291606  1.0000
  H   H8        1.0  0.382508773726471  0.07462786951386141  0.08054861198721139  1.0000
  H   H9        1.0  0.7127554332189798  0.7505620875588125  0.8547329913949895  1.0000
  H   H10       1.0  0.2872096056928441  0.24945995466426754  0.1452571279625801  1.0000
  H   H11       1.0  0.9553179093456096  0.7999065276687035  0.3487568755339082  1.0000
  H   H12       1.0  0.04469922116557969  0.200073623740181  0.6512466086871314  1.0000
  H   H13       1.0  0.7945710224319669  0.013739081913605802  0.2924332491384902  1.0000
  H   H14       1.0  0.20544256187247362  0.9862473432333516  0.7075622728069106  1.0000
  H   H15       1.0  0.721051116897449  0.8196283171098387  0.34328624259759977  1.0000
  H   H16       1.0  0.2789589396804573  0.18035482935393085  0.6567237762479223  1.0000
  H   H17       1.0  0.1426142069036516  0.5091999180853293  0.32152721942428286  1.0000
  H   H18       1.0  0.8573838163211464  0.4907922398578961  0.6784775650120096  1.0000
  H   H19       1.0  0.5615421569068035  0.6289622770359459  0.041901780177020995  1.0000
  H   H20       1.0  0.43844656441019236  0.37103921946300034  0.9581023237457629  1.0000
  H   H21       1.0  0.6875031481798501  0.44540908320171024  0.22454088194147906  1.0000
  H   H22       1.0  0.31249470882847413  0.5545827465276645  0.7754585481590439  1.0000
  C   C1        1.0  0.6850217095466746  0.08823360231124872  0.4790017792111385  1.0000
  C   C2        1.0  0.31499391105499797  0.9117678119115669  0.5209927727334643  1.0000
  C   C3        1.0  0.6667752302045783  0.11926457192740264  0.5849525174334715  1.0000
  C   C4        1.0  0.33323005868989225  0.8807406195560576  0.41503997153493083  1.0000
  C   C5        1.0  0.9057003336050327  0.8373479182105471  0.6574053469176419  1.0000
  C   C6        1.0  0.09429855275899973  0.162645559440513  0.3425984356666518  1.0000
  C   C7        1.0  0.9190616390758564  0.8104000003292244  0.5501384535683727  1.0000
  C   C8        1.0  0.08095405231777161  0.18959764118328337  0.4498613631126318  1.0000
  C   C9        1.0  0.8081111595829354  0.9279164848276268  0.46313292129298134  1.0000
  C   C10       1.0  0.19190925377839815  0.07207467138339749  0.536871015370643  1.0000
  C   C11       1.0  0.7450013687902199  0.012530717769777797  0.7786219264436127  1.0000
  C   C12       1.0  0.2549985724494306  0.9874801081842506  0.22137509344527467  1.0000
  C   C13       1.0  0.638530252739315  0.8933113888999318  0.84159952258765  1.0000
  C   C14       1.0  0.3614478502123433  0.10671502988557081  0.1583912735997046  1.0000
  C   C15       1.0  0.062099093483325915  0.6627040096148918  0.5386768844321281  1.0000
  C   C16       1.0  0.9379016119807276  0.33731008930744383  0.4613288581917558  1.0000
  C   C17       1.0  0.8219108609000826  0.8897916747177703  0.35535570623515156  1.0000
  C   C18       1.0  0.17810344013834373  0.11019792962211741  0.644647008635026  1.0000
  C   C19       1.0  0.42171894900661766  0.4660894236886507  0.2828863789134388  1.0000
  C   C20       1.0  0.5782820712384478  0.5339053496576086  0.7171156191462699  1.0000
  C   C21       1.0  0.23419325043599312  0.5340429392968602  0.2601760574576915  1.0000
  C   C22       1.0  0.7658001220567385  0.4659558446109245  0.7398269017113108  1.0000
  C   C23       1.0  0.1642351184502857  0.6293381202369447  0.15691613610101027  1.0000
  C   C24       1.0  0.8357646306093045  0.3706527637485593  0.8430896146523494  1.0000
  C   C25       1.0  0.28306615538767943  0.66474000557281  0.0781786339693227  1.0000
  C   C26       1.0  0.7169229260414626  0.3352600534302753  0.9218241593226678  1.0000
  C   C27       1.0  0.4709072612048005  0.6000360611616246  0.10338570734162292  1.0000
  C   C28       1.0  0.5290943100014404  0.399965476537119  0.8966151592860285  1.0000
  C   C29       1.0  0.5412820059866448  0.49841985071469713  0.2049851746001607  1.0000
  C   C30       1.0  0.4587064774345606  0.501577263533932  0.7950142502925955  1.0000
  N   N1        1.0  0.7685649740963144  0.9884874870040439  0.6695243617582491  1.0000
  N   N2        1.0  0.23144045771309862  0.011521899178966106  0.33046974661974826  1.0000
  N   N3        1.0  0.18433663419155275  0.5424837933699393  0.5300109035785354  1.0000
  N   N4        1.0  0.8156826539458776  0.45749770062183615  0.4699915610230292  1.0000
  N   N5        1.0  0.5917738475527871  0.2059606526593925  0.3899569139697406  1.0000
  N   N6        1.0  0.40823745779639614  0.7940380763976408  0.6100396772138126  1.0000
  N   N7        1.0  0.49305260997528666  0.3643281455990179  0.3882090888440572  1.0000
  N   N8        1.0  0.5069506391316522  0.6356681109932154  0.6117941843115062  1.0000
  Cl  Cl1       1.0  0.2003221879945442  0.7869023673695638  0.9513885460492658  1.0000
  Cl  Cl2       1.0  0.7996667258870928  0.21308562329949154  0.04861780297016341  1.0000
  Cl  Cl3       1.0  0.9328172027627987  0.70482811284532  0.12778867725685925  1.0000
  Cl  Cl4       1.0  0.06716976808684191  0.2951667839768604  0.8722196354858909  1.0000
  O   O1        1.0  0.5597900697498585  0.25861216971255635  0.604366453055448  1.0000
  O   O2        1.0  0.4402191017182986  0.7413852636492779  0.395631922652683  1.0000
  O   O3        1.0  0.00646130490999039  0.7370519106733512  0.7354132160338338  1.0000
  O   O4        1.0  0.9935210666319848  0.2629475650775319  0.26458201704441103  1.0000
