data_image0
_chemical_formula_structural       Y2H12C10O16
_chemical_formula_sum              "Y2 H12 C10 O16"
_cell_length_a       6.690903537243292
_cell_length_b       6.690871787661897
_cell_length_c       11.165153141768801
_cell_angle_alpha    105.37935852768764
_cell_angle_beta     105.37813167703595
_cell_angle_gamma    94.19808118128564

_space_group_name_H-M_alt    "P 1"
_space_group_IT_number       1

loop_
  _space_group_symop_operation_xyz
  'x, y, z'

loop_
  _atom_site_type_symbol
  _atom_site_label
  _atom_site_symmetry_multiplicity
  _atom_site_fract_x
  _atom_site_fract_y
  _atom_site_fract_z
  _atom_site_occupancy
  Y   Y1        1.0  0.8789078930446265  0.8788976211173605  0.6998843933046359  1.0000
  Y   Y2        1.0  0.12110097647175172  0.1210848358293362  0.3001094886996682  1.0000
  H   H1        1.0  0.7562171401264521  0.9121951261629491  0.43330401501611965  1.0000
  H   H2        1.0  0.0878135760449865  0.24380274216068187  0.5666859174613633  1.0000
  H   H3        1.0  0.2437331514548191  0.08781156480642956  0.5667032393286746  1.0000
  H   H4        1.0  0.912198265597219  0.7562564388585782  0.43330714553138705  1.0000
  H   H5        1.0  0.4586556407993498  0.6786326892737264  0.3057503419784808  1.0000
  H   H6        1.0  0.32135758471328296  0.5413597906119846  0.6942479817253329  1.0000
  H   H7        1.0  0.5413410082770014  0.3213621152566403  0.6942444558678886  1.0000
  H   H8        1.0  0.6786417385554344  0.45864290230363025  0.3057583402270154  1.0000
  H   H9        1.0  0.2615208962386575  0.5828748820285625  0.1519879391879542  1.0000
  H   H10       1.0  0.4171075560502332  0.738497200322314  0.84801194252632  1.0000
  H   H11       1.0  0.7384664463529519  0.41711980038102325  0.8480116357060224  1.0000
  H   H12       1.0  0.5829050386683151  0.2615228873867252  0.1519902772779673  1.0000
  C   C1        1.0  0.3157377928367212  0.5645928656403356  0.2500071671683415  1.0000
  C   C2        1.0  0.43539713185248985  0.6842748300342978  0.749997104396627  1.0000
  C   C3        1.0  0.6842539941753573  0.4354003201317695  0.7499946656157235  1.0000
  C   C4        1.0  0.5646088326357913  0.3157310790752065  0.2500054040476059  1.0000
  C   C5        1.0  0.1501660628926302  0.6115613789879291  0.3191832277135944  1.0000
  C   C6        1.0  0.3884512063208874  0.8498562990221427  0.6808229096197707  1.0000
  C   C7        1.0  0.8498379185975794  0.3884413800012538  0.6808229464092719  1.0000
  C   C8        1.0  0.6115483207906038  0.15014794657817276  0.319176525224357  1.0000
  C   C9        1.0  0.9209461732755243  0.07904550595417699  0.999994214026536  1.0000
  C   C10       1.0  0.0790524718310834  0.9209424639077709  5.85881234376036e-06  1.0000
  O   O1        1.0  0.3552131587223428  0.3551961681768957  0.24507188416529857  1.0000
  O   O2        1.0  0.6447930385228562  0.6448003492591  0.7549282788021401  1.0000
  O   O3        1.0  0.08390076134261189  0.4745120169821389  0.3648713362074858  1.0000
  O   O4        1.0  0.5254743573109266  0.9161165875856483  0.6351357195256426  1.0000
  O   O5        1.0  0.9161112587988145  0.5254705294664107  0.6351427628724196  1.0000
  O   O6        1.0  0.47453603470403755  0.08387683440693651  0.3648529740522548  1.0000
  O   O7        1.0  0.08492092563150781  0.7875461862717048  0.3304017681057517  1.0000
  O   O8        1.0  0.21243580496249587  0.9151014150424144  0.6696036025056172  1.0000
  O   O9        1.0  0.9150911004848653  0.21243636619266232  0.6696150198073454  1.0000
  O   O10       1.0  0.7875774650876152  0.084901448020112  0.3303897280700525  1.0000
  O   O11       1.0  0.8263306614347671  0.1000108880006039  0.8907755598148555  1.0000
  O   O12       1.0  0.8999830791031087  0.1736886322727358  0.10922745388405984  1.0000
  O   O13       1.0  0.1736544445247645  0.8999790414721929  0.10921216092268084  1.0000
  O   O14       1.0  0.10001554795695708  0.8263202907994155  0.8907698919850304  1.0000
  O   O15       1.0  0.797367111196138  0.7973464207629704  0.4709194505264307  1.0000
  O   O16       1.0  0.20263621398886766  0.20264066161889355  0.5290787642764343  1.0000
