data_image0
_chemical_formula_structural       Ag4H52C52N16O16
_chemical_formula_sum              "Ag4 H52 C52 N16 O16"
_cell_length_a       7.0163932817681705
_cell_length_b       8.583282634
_cell_length_c       22.61
_cell_angle_alpha    90.0
_cell_angle_beta     94.1651855454308
_cell_angle_gamma    90.0

_space_group_name_H-M_alt    "P 1"
_space_group_IT_number       1

loop_
  _space_group_symop_operation_xyz
  'x, y, z'

loop_
  _atom_site_type_symbol
  _atom_site_label
  _atom_site_symmetry_multiplicity
  _atom_site_fract_x
  _atom_site_fract_y
  _atom_site_fract_z
  _atom_site_occupancy
  Ag  Ag1       1.0  0.4321148653946238  0.5284528301599423  0.30159144844064656  1.0000
  Ag  Ag2       1.0  0.5678820556647821  0.028454148653168  0.1984078629668105  1.0000
  Ag  Ag3       1.0  0.5678892007046841  0.4715456979090291  0.698408466293955  1.0000
  Ag  Ag4       1.0  0.4321134363866435  0.9715467095266561  0.8015914162316519  1.0000
  H   H1        1.0  0.1292509138762554  0.4687064578374702  0.7419654282939375  1.0000
  H   H2        1.0  0.8707460071831505  0.9687086345105201  0.7580338831135194  1.0000
  H   H3        1.0  0.8707445781751701  0.5312897401206556  0.2580338509045248  1.0000
  H   H4        1.0  0.1292537718922162  0.0312922236693041  0.24196637727627748  1.0000
  H   H5        1.0  0.4043978265928416  0.4868638466414481  0.4330268731887159  1.0000
  H   H6        1.0  0.5955990944665643  0.9868671883699278  0.0669733227830918  1.0000
  H   H7        1.0  0.5956019524825251  0.5131346814275233  0.5669738294832527  1.0000
  H   H8        1.0  0.404399255600822  0.0131348348653262  0.9330264631155386  1.0000
  H   H9        1.0  0.3749945583733306  0.6462772154358021  0.5234366752260087  1.0000
  H   H10       1.0  0.6250037916940485  0.1462808640398805  0.9765639952369725  1.0000
  H   H11       1.0  0.6250066497100164  0.3537224776885992  0.47656361737278263  1.0000
  H   H12       1.0  0.3749959873813111  0.8537234893062262  0.023436265152824397  1.0000
  H   H13       1.0  0.1200252383501521  0.40305907978562766  0.5237411225947426  1.0000
  H   H14       1.0  0.8799745407252146  0.9030600914032547  0.9762586955128825  1.0000
  H   H15       1.0  0.8799745407252146  0.5969394482833508  0.47625869551288247  1.0000
  H   H16       1.0  0.1200266673581325  0.0969407667765694  0.0237411548037301  1.0000
  H   H17       1.0  0.22599618320599285  0.2179527436961735  0.6999894414374452  1.0000
  H   H18       1.0  0.7739993088454256  0.7179537553138005  0.800010280043189  1.0000
  H   H19       1.0  0.7739993088454256  0.7820446193173822  0.300010280043189  1.0000
  H   H20       1.0  0.2259976122139733  0.2820482679214535  0.1999894736464398  1.0000
  H   H21       1.0  0.2643393253553796  0.8622237336895324  0.32346623395091706  1.0000
  H   H22       1.0  0.735660453719987  0.3622250521827581  0.17653402643887253  1.0000
  H   H23       1.0  0.735660453719987  0.1377747943794461  0.6765340264388725  1.0000
  H   H24       1.0  0.2643378963473992  0.6377769710524958  0.8234657594597509  1.0000
  H   H25       1.0  0.2217320233903379  0.0368227417734133  0.40925909716196424  1.0000
  H   H26       1.0  0.7782691846930091  0.5368260835018859  0.0907420800011707  1.0000
  H   H27       1.0  0.7782677556850288  0.9631746212401354  0.5907411632278254  1.0000
  H   H28       1.0  0.2217320233903379  0.463175939733361  0.9092586548797925  1.0000
  H   H29       1.0  0.019896078121121295  0.652984439519507  0.5661229261277185  1.0000
  H   H30       1.0  0.9801065589702063  0.1529845929573028  0.9338765141157096  1.0000
  H   H31       1.0  0.9801051299622259  0.3470164186603171  0.433876924188894  1.0000
  H   H32       1.0  0.0198946491131409  0.8470174302779441  0.0661237784830817  1.0000
  H   H33       1.0  0.841652833695548  0.7278322602652878  0.6852065347411126  1.0000
  H   H34       1.0  0.1583469453798187  0.2278335787585135  0.8147928410843261  1.0000
  H   H35       1.0  0.1583469453798187  0.2721662678036907  0.31479328336650514  1.0000
  H   H36       1.0  0.841652833695548  0.7721672794213176  0.1852065347411127  1.0000
  H   H37       1.0  0.0293675430199798  0.8302499525963967  0.6542625462098073  1.0000
  H   H38       1.0  0.9706336650633673  0.3302501060341996  0.8457377463889841  1.0000
  H   H39       1.0  0.9706336650633673  0.1697485754725747  0.345737746388984  1.0000
  H   H40       1.0  0.0293675430199798  0.6697507521456245  0.15426254620980728  1.0000
  H   H41       1.0  0.0630249679992758  0.7514665746238052  0.7271693291504632  1.0000
  H   H42       1.0  0.9369748110760909  0.2514690581724608  0.7728304889571618  1.0000
  H   H43       1.0  0.9369748110760909  0.2485296233343135  0.2728304889571618  1.0000
  H   H44       1.0  0.0630249679992758  0.7485318000073704  0.22716932915046328  1.0000
  H   H45       1.0  0.2945742762198974  0.0733751906881466  0.6204405026249445  1.0000
  H   H46       1.0  0.7054255028554692  0.5733762023057736  0.8795593154826732  1.0000
  H   H47       1.0  0.7054255028554692  0.9266233373808319  0.3795593154826733  1.0000
  H   H48       1.0  0.2945742762198974  0.4266246558740576  0.1204405026249518  1.0000
  H   H49       1.0  0.3433305995276967  0.8868401897716183  0.5638459428044627  1.0000
  H   H50       1.0  0.6566706085556504  0.386841508264844  0.9361547920765005  1.0000
  H   H51       1.0  0.6566706085556504  0.113159503352783  0.43615434979432877  1.0000
  H   H52       1.0  0.3433291705197163  0.6131593499149801  0.06384546831329627  1.0000
  C   C1        1.0  0.1273389011975183  0.4556741478495709  0.6938944688842382  1.0000
  C   C2        1.0  0.8726608778778484  0.9556739944117751  0.8061053492233795  1.0000
  C   C3        1.0  0.872659448869868  0.5443243802194004  0.3061053170143849  1.0000
  C   C4        1.0  0.1273389011975183  0.044326863768049  0.19389491116641716  1.0000
  C   C5        1.0  0.2207460078833634  0.0933756971750199  0.5305968906480985  1.0000
  C   C6        1.0  0.7792537711920033  0.5933778738480697  0.9694033697416983  1.0000
  C   C7        1.0  0.7792552001999835  0.9066251610048042  0.4694029596685141  1.0000
  C   C8        1.0  0.2207460078833634  0.4066253144426071  0.0305964483659196  1.0000
  C   C9        1.0  0.3680552956170189  0.6100125352111263  0.4296009229337088  1.0000
  C   C10       1.0  0.6319444834583479  0.1100161838152047  0.07039889517390918  1.0000
  C   C11       1.0  0.6319459124663283  0.3899859928578451  0.5703993696650825  1.0000
  C   C12       1.0  0.3680567246249993  0.8899870044754721  0.9296009551427031  1.0000
  C   C13       1.0  0.3514259297407349  0.6991322849173685  0.4797807287311286  1.0000
  C   C14       1.0  0.6485752783426122  0.1991359335214469  0.020219563867662795  1.0000
  C   C15       1.0  0.6485767073505926  0.3008662431516029  0.5202195960766572  1.0000
  C   C16       1.0  0.3514259297407349  0.8008672547692299  0.9797807287311285  1.0000
  C   C17       1.0  0.1212584722378551  0.4171725612082398  0.571411997239629  1.0000
  C   C18       1.0  0.878742735845492  0.9171735728258668  0.9285878530769835  1.0000
  C   C19       1.0  0.878742735845492  0.5828259668607316  0.42858785307698344  1.0000
  C   C20       1.0  0.1212570432298747  0.0828272853539573  0.0714124073128133  1.0000
  C   C21       1.0  0.18178839230209579  0.3135082595720107  0.6703760403950199  1.0000
  C   C22       1.0  0.8182099577652906  0.8135104362450605  0.8296233032214316  1.0000
  C   C23       1.0  0.8182085287573102  0.6864891034415379  0.3296232710124372  1.0000
  C   C24       1.0  0.18178839230209579  0.1864915869901935  0.17037648267719868  1.0000
  C   C25       1.0  0.2861731382988992  0.818097259454639  0.3686589301215122  1.0000
  C   C26       1.0  0.7138280697844479  0.3180997430032875  0.1313418047594581  1.0000
  C   C27       1.0  0.7138280697844479  0.18190010355890956  0.6313413624772792  1.0000
  C   C28       1.0  0.2861717092909188  0.6819022802319593  0.8686584556303387  1.0000
  C   C29       1.0  0.17784004325026356  0.2919722100345297  0.6085855874162361  1.0000
  C   C30       1.0  0.8221597358251029  0.7919732216521567  0.8914146729735603  1.0000
  C   C31       1.0  0.8221597358251029  0.7080263180344417  0.3914142306913887  1.0000
  C   C32       1.0  0.1778386142422832  0.2080276365276674  0.1085855552072417  1.0000
  C   C33       1.0  0.2632104090502949  0.9162368682638942  0.416370023698299  1.0000
  C   C34       1.0  0.7367907990330522  0.4162393518125427  0.0836302689004853  1.0000
  C   C35       1.0  0.7367907990330522  0.08376165980508428  0.5836298266183135  1.0000
  C   C36       1.0  0.2632089800423145  0.5837638364781341  0.9163699914893043  1.0000
  C   C37       1.0  0.2995372209383262  0.8573771031201005  0.4743051287211699  1.0000
  C   C38       1.0  0.7004639871450209  0.357379586668749  0.025694721595442598  1.0000
  C   C39       1.0  0.7004639871450209  0.1426225900043008  0.5256947215954426  1.0000
  C   C40       1.0  0.2995372209383262  0.6426224365664979  0.9743051287211697  1.0000
  C   C41       1.0  0.0658901290014171  0.5800519698929918  0.6570724751871353  1.0000
  C   C42       1.0  0.9341110790819299  0.0800521233307876  0.8429269328472981  1.0000
  C   C43       1.0  0.9341096500739496  0.4199465581759867  0.3429273429204827  1.0000
  C   C44       1.0  0.0658901290014171  0.9199487348490365  0.1570729174693142  1.0000
  C   C45       1.0  0.0659244251929678  0.557806401601475  0.5957915144568418  1.0000
  C   C46       1.0  0.9340782118983668  0.0578088851501306  0.9042074835044146  1.0000
  C   C47       1.0  0.9340782118983668  0.4421909614120736  0.40420792578658654  1.0000
  C   C48       1.0  0.0659215671769999  0.9421931380851233  0.09579233460320319  1.0000
  C   C49       1.0  0.9977962487684806  0.7303709160371099  0.6822955742199213  1.0000
  C   C50       1.0  0.0022035303068861  0.2303722345303356  0.8177042438876968  1.0000
  C   C51       1.0  0.0022035303068861  0.2696276120318686  0.3177046861698756  1.0000
  C   C52       1.0  0.9977962487684806  0.7696286236494885  0.1822955742199213  1.0000
  N   N1        1.0  0.2921764008275787  0.9428082873497061  0.5257363011359644  1.0000
  N   N2        1.0  0.7078233782477881  0.4428096058429318  0.9742639592538324  1.0000
  N   N3        1.0  0.7078262362637489  0.0571914057746952  0.47426358138964275  1.0000
  N   N4        1.0  0.2921749718195983  0.5571924173923222  0.025736268926969796  1.0000
  N   N5        1.0  0.2353647595302135  0.1463356216448659  0.588159029070887  1.0000
  N   N6        1.0  0.7646335905371728  0.6463377983179228  0.9118403145455644  1.0000
  N   N7        1.0  0.7646350195451532  0.8536617413686827  0.4118407890367308  1.0000
  N   N8        1.0  0.23536618853819388  0.3536630598619084  0.0881590612798817  1.0000
  N   N9        1.0  0.339223630589963  0.6674241364612143  0.374026704543418  1.0000
  N   N10       1.0  0.6607761484854038  0.1674277850652928  0.1259735558463717  1.0000
  N   N11       1.0  0.6607775774933841  0.3325732265523342  0.6259735880553663  1.0000
  N   N12       1.0  0.339223630589963  0.832575403225384  0.8740267045434179  1.0000
  N   N13       1.0  0.4504418927524724  0.6848230741832992  0.1793986021944676  1.0000
  N   N14       1.0  0.5495564573149068  0.1848220625656722  0.3206002991398051  1.0000
  N   N15       1.0  0.5495578863228943  0.3151777839965249  0.8206007736309714  1.0000
  N   N16       1.0  0.4504418927524724  0.815177630558729  0.6793994867588182  1.0000
  O   O1        1.0  0.3976329028102228  0.5458587582145782  0.189640428544827  1.0000
  O   O2        1.0  0.6023683052731243  0.0458589116523811  0.31035809492525596  1.0000
  O   O3        1.0  0.6023711632890851  0.4541397698543932  0.8103586016254168  1.0000
  O   O4        1.0  0.397630044794262  0.9541407814720203  0.6896416909733672  1.0000
  O   O5        1.0  0.4640331876608954  0.7321616062258656  0.127342712824543  1.0000
  O   O6        1.0  0.5359637333985035  0.2321570994419631  0.3726570408650857  1.0000
  O   O7        1.0  0.5359637333985035  0.2678404170093884  0.8726570408650857  1.0000
  O   O8        1.0  0.46403604567686324  0.7678414286270154  0.6273427772425322  1.0000
  O   O9        1.0  0.1521736309013875  0.1685520635507487  0.48748430416122807  1.0000
  O   O10       1.0  0.8478247191659989  0.6685542402237985  0.012515039455216497  1.0000
  O   O11       1.0  0.8478290061899401  0.8314476295736526  0.512515578364372  1.0000
  O   O12       1.0  0.1521736309013875  0.3314466179560256  0.9874847464434068  1.0000
  O   O13       1.0  0.4902240459388452  0.7745393322673166  0.22378664384763877  1.0000
  O   O14       1.0  0.5097757331365216  0.2745394857051124  0.2762127319778003  1.0000
  O   O15       1.0  0.5097757331365216  0.2254591958016618  0.7762127319778003  1.0000
  O   O16       1.0  0.4902240459388452  0.7254590423638589  0.7237870861298177  1.0000
