data_image0
_chemical_formula_structural       Cu4H32C24S8N16
_chemical_formula_sum              "Cu4 H32 C24 S8 N16"
_cell_length_a       9.334473590071577
_cell_length_b       9.599877183947816
_cell_length_c       11.858453005186426
_cell_angle_alpha    96.78985470894848
_cell_angle_beta     96.18406131801392
_cell_angle_gamma    107.35593793404497

_space_group_name_H-M_alt    "P 1"
_space_group_IT_number       1

loop_
  _space_group_symop_operation_xyz
  'x, y, z'

loop_
  _atom_site_type_symbol
  _atom_site_label
  _atom_site_symmetry_multiplicity
  _atom_site_fract_x
  _atom_site_fract_y
  _atom_site_fract_z
  _atom_site_occupancy
  Cu  Cu1       1.0  0.22898349306187532  0.8706731237466272  0.8714881137494572  1.0000
  Cu  Cu2       1.0  0.7710270404465972  0.12932372201075282  0.1285051271275961  1.0000
  Cu  Cu3       1.0  0.9999975545424887  0.9999991399693329  0.5000017603880453  1.0000
  Cu  Cu4       1.0  0.49999800754118706  0.49999850342296553  3.313982049174526e-07  1.0000
  H   H1        1.0  0.18381455449338807  0.847778783389366  0.48703262837928923  1.0000
  H   H2        1.0  0.8161777101544914  0.15221807155984385  0.512967559056591  1.0000
  H   H3        1.0  0.15619926976647502  0.8812277219206381  0.6223599024244352  1.0000
  H   H4        1.0  0.8437976580219485  0.11877023606581359  0.3776399281929629  1.0000
  H   H5        1.0  0.7748398609039101  0.8326231233259733  0.34651190239797813  1.0000
  H   H6        1.0  0.22516243980630432  0.1673748319628672  0.6534858354870752  1.0000
  H   H7        1.0  0.7386211095940638  0.8031197622709102  0.47703800877751235  1.0000
  H   H8        1.0  0.2613711294800751  0.19688040978054033  0.522958281481273  1.0000
  H   H9        1.0  0.4887185600045783  0.7559601576747427  0.07282296342271621  1.0000
  H   H10       1.0  0.5112766038013489  0.2440389061475656  0.9271827337400256  1.0000
  H   H11       1.0  0.3445417434381853  0.6785056921945272  0.9679025913887145  1.0000
  H   H12       1.0  0.6554537740527947  0.3214944770623163  0.03210239836776198  1.0000
  H   H13       1.0  0.5108171565764934  0.3988542135134453  0.18910025085659754  1.0000
  H   H14       1.0  0.4891823164951745  0.6011514810197414  0.8109072827522752  1.0000
  H   H15       1.0  0.3345842807809802  0.3297512029067705  0.12120785942177291  1.0000
  H   H16       1.0  0.665418426793437  0.6702511732245358  0.8787996160265906  1.0000
  H   H17       1.0  0.03687357521835826  0.6150349458394049  0.5204190901568426  1.0000
  H   H18       1.0  0.9631180120759383  0.38496301414701156  0.4795887387827024  1.0000
  H   H19       1.0  0.9265510570321212  0.7010592544772507  0.6001592109476094  1.0000
  H   H20       1.0  0.07344409973014625  0.29894312604864137  0.39984596366078046  1.0000
  H   H21       1.0  0.9306651935930929  0.6847337235156702  0.3399050425464551  1.0000
  H   H22       1.0  0.06932744809219572  0.31525760326158553  0.6600971699032385  1.0000
  H   H23       1.0  0.7790433942377322  0.5847692148037854  0.4062156646298192  1.0000
  H   H24       1.0  0.22094782769532637  0.4152309565513478  0.5937915055059477  1.0000
  H   H25       1.0  0.19565784797657676  0.5380268816545454  0.08401636177477916  1.0000
  H   H26       1.0  0.8043383885606944  0.4619721816681093  0.9159885793792171  1.0000
  H   H27       1.0  0.28265646662835325  0.7125194622980688  0.1722309196467364  1.0000
  H   H28       1.0  0.7173325844580062  0.2874773940504483  0.8277723794710571  1.0000
  H   H29       1.0  0.3096580007542329  0.4996808419353443  0.2736380725418712  1.0000
  H   H30       1.0  0.6903346222112319  0.5003171183487326  0.726362251143435  1.0000
  H   H31       1.0  0.4879299226031081  0.623810936679945  0.25839764022653366  1.0000
  H   H32       1.0  0.5120645382754816  0.37619254928180373  0.7416118012627707  1.0000
  C   C1        1.0  0.5658347473471251  0.06192015278072202  0.6476211333032184  1.0000
  C   C2        1.0  0.4341761628192772  0.9380844310210393  0.35237710430436653  1.0000
  C   C3        1.0  0.4551921079748526  0.9699078379620121  0.7016869848954812  1.0000
  C   C4        1.0  0.544809494630293  0.030087906258437196  0.298313855113463  1.0000
  C   C5        1.0  0.4268139084823589  0.8180451013684195  0.6867133701265475  1.0000
  C   C6        1.0  0.57319946618275  0.18195727106195392  0.31327557771046344  1.0000
  C   C7        1.0  0.5091818705310587  0.7509865498922467  0.616845964237271  1.0000
  C   C8        1.0  0.49082363225424785  0.24900808769236707  0.38314580989746366  1.0000
  C   C9        1.0  0.871517323572796  0.7233343266629931  0.08886616371459162  1.0000
  C   C10       1.0  0.12849785175551892  0.27668020535053733  0.9111266385392938  1.0000
  C   C11       1.0  0.0007185589520092567  0.7950917884186098  0.040959462971052636  1.0000
  C   C12       1.0  0.9992969609860582  0.20491721612061306  0.95902945870683  1.0000
  C   C13       1.0  0.11312703656611947  0.9196802557994915  0.10226220526966763  1.0000
  C   C14       1.0  0.886882060881419  0.08032875143868522  0.8977337834277392  1.0000
  C   C15       1.0  0.09749897929278739  0.9798067219620852  0.21306147842970807  1.0000
  C   C16       1.0  0.902506534789218  0.020197865035605396  0.7869346336317946  1.0000
  C   C17       1.0  0.9854710611296937  0.7043932659692376  0.5246696202144465  1.0000
  C   C18       1.0  0.01452338140854441  0.2956035872830043  0.4753349607937523  1.0000
  C   C19       1.0  0.8745333970153909  0.6878588723108762  0.4165121398020517  1.0000
  C   C20       1.0  0.12546283952188025  0.31214019101177837  0.5834928013519445  1.0000
  C   C21       1.0  0.3048603863484517  0.6161309647744418  0.12713483190355393  1.0000
  C   C22       1.0  0.6951329578846952  0.3838692060796944  0.8728666079362952  1.0000
  C   C23       1.0  0.3826765588995258  0.5431923066996944  0.21076029866581794  1.0000
  C   C24       1.0  0.6173203920515177  0.4568056507884324  0.789243750230014  1.0000
  S   S1        1.0  0.355619824607075  0.05631793708956681  0.7855757304341893  1.0000
  S   S2        1.0  0.6443863994459066  0.9436789110651065  0.21441715985508844  1.0000
  S   S3        1.0  0.2927076093731031  0.7015940437706548  0.7521899102149378  1.0000
  S   S4        1.0  0.7072996990874074  0.29839948708112024  0.2478035902756304  1.0000
  S   S5        1.0  0.007980656557904926  0.7199109271330146  0.9028071100738444  1.0000
  S   S6        1.0  0.9920262561453654  0.2800947653975427  0.09718247663852958  1.0000
  S   S7        1.0  0.2761534958020491  0.005864159844811901  0.0487523567152266  1.0000
  S   S8        1.0  0.7238588246617964  0.9941382126865576  0.9512407217532728  1.0000
  N   N1        1.0  0.6570801462228459  0.1431703673438278  0.6054038320650221  1.0000
  N   N2        1.0  0.34291819389468275  0.8568353289846514  0.39459349002867583  1.0000
  N   N3        1.0  0.5778767581472124  0.6928765891600221  0.5613372816431196  1.0000
  N   N4        1.0  0.422117275305439  0.3071125267454989  0.4386563970447384  1.0000
  N   N5        1.0  0.7612601027375377  0.6591064262848718  0.12351004770801671  1.0000
  N   N6        1.0  0.23875368786707443  0.34090699989680934  0.8764918108620493  1.0000
  N   N7        1.0  0.0873949743200413  0.0311288280299422  0.3054210497874621  1.0000
  N   N8        1.0  0.9126141186847151  0.9688735461997309  0.6945726093958982  1.0000
  N   N9        1.0  0.10247467828961736  0.8504882851816192  0.5390163698114493  1.0000
  N   N10       1.0  0.8975211930761589  0.1495063564015808  0.4609864266804067  1.0000
  N   N11       1.0  0.8219429776075061  0.8189436454320856  0.4252148422240013  1.0000
  N   N12       1.0  0.1780535964958645  0.1810532071198381  0.5747856957996547  1.0000
  N   N13       1.0  0.4036437547006956  0.6584991628550156  0.03903167280307681  1.0000
  N   N14       1.0  0.5963485353311881  0.34150100810012424  0.9609738976682608  1.0000
  N   N15       1.0  0.42487676741726693  0.42516872161495917  0.14351688633058052  1.0000
  N   N16       1.0  0.5751255794284306  0.5748358657853959  0.8564907739696964  1.0000
