data_image0
_chemical_formula_structural       Cd2H48C66N4O12
_chemical_formula_sum              "Cd2 H48 C66 N4 O12"
_cell_length_a       8.530147100159764
_cell_length_b       12.359586803229494
_cell_length_c       13.761064473808679
_cell_angle_alpha    67.1342323541004
_cell_angle_beta     83.89028185172356
_cell_angle_gamma    83.74424478520844

_space_group_name_H-M_alt    "P 1"
_space_group_IT_number       1

loop_
  _space_group_symop_operation_xyz
  'x, y, z'

loop_
  _atom_site_type_symbol
  _atom_site_label
  _atom_site_symmetry_multiplicity
  _atom_site_fract_x
  _atom_site_fract_y
  _atom_site_fract_z
  _atom_site_occupancy
  Cd  Cd1       1.0  0.4670371943708247  0.3533750743081896  0.5014980234021351  1.0000
  Cd  Cd2       1.0  0.5329657922149735  0.6466260724021636  0.4985022019186759  1.0000
  H   H1        1.0  0.34514408631015664  0.6209133783517942  0.9181267360336635  1.0000
  H   H2        1.0  0.6548543475210735  0.379085991647372  0.0818729854315592  1.0000
  H   H3        1.0  0.10635259611527913  0.6343066306772868  0.035290984571261626  1.0000
  H   H4        1.0  0.8936459281011153  0.3656918588392343  0.9647090408697353  1.0000
  H   H5        1.0  0.8120943008732837  0.6851448006502707  0.7813312902125205  1.0000
  H   H6        1.0  0.18790295422166992  0.3148545670278222  0.2186685157601644  1.0000
  H   H7        1.0  0.050539293297028096  0.6711402536760857  0.6679112921872202  1.0000
  H   H8        1.0  0.9494588879585066  0.3288617642326058  0.3320889671876515  1.0000
  H   H9        1.0  0.6345201212605078  0.614883538282079  0.9359679701056579  1.0000
  H   H10       1.0  0.36547868340130674  0.38511231301729504  0.06403369218116951  1.0000
  H   H11       1.0  0.6620093687057036  0.768268656812843  0.8727829433908809  1.0000
  H   H12       1.0  0.3379870970633831  0.23172719630596098  0.1272203377478434  1.0000
  H   H13       1.0  0.4479280021635788  0.5501618924691059  0.09109683639185552  1.0000
  H   H14       1.0  0.5520709207531238  0.4498330880399949  0.9089073046262116  1.0000
  H   H15       1.0  0.2593441294441661  0.5969896896394857  0.21829808575481738  1.0000
  H   H16       1.0  0.7406534339659316  0.4030070495138318  0.7817055318191564  1.0000
  H   H17       1.0  0.4548975241146422  0.9330530390554085  0.1268715961153575  1.0000
  H   H18       1.0  0.5451011530023776  0.06694367980344397  0.8731268625217297  1.0000
  H   H19       1.0  0.6332383577048191  0.8895078483705134  0.992813689303688  1.0000
  H   H20       1.0  0.3667580616147247  0.11048798859432907  0.007185967242584502  1.0000
  H   H21       1.0  0.022695648831920316  0.6797299561717621  0.5007034968658601  1.0000
  H   H22       1.0  0.9773072659485251  0.32027207748281217  0.4992978743161486  1.0000
  H   H23       1.0  0.930598948115616  0.8893440404974128  0.45879136894545514  1.0000
  H   H24       1.0  0.06940266967366429  0.11065886162636218  0.5412076080127619  1.0000
  H   H25       1.0  0.0319459747552457  0.04381341900901958  0.2887248863330427  1.0000
  H   H26       1.0  0.9680534477520123  0.9561877110457287  0.7112734177546756  1.0000
  H   H27       1.0  0.21481904727749418  0.9845606932110865  0.16427298599145243  1.0000
  H   H28       1.0  0.7851782796228123  0.015437787522777998  0.8357256741200345  1.0000
  H   H29       1.0  0.6805783136004208  0.11727213531126778  0.4946628692103588  1.0000
  H   H30       1.0  0.319422287643107  0.8827289970645537  0.5053353503698971  1.0000
  H   H31       1.0  0.6809461523190663  0.8951790701829265  0.5878062720979501  1.0000
  H   H32       1.0  0.3190544489244616  0.10482206219289479  0.41219194748230586  1.0000
  H   H33       1.0  0.4932697702814792  0.8124667312798194  0.744810531403445  1.0000
  H   H34       1.0  0.5067331352090533  0.1875352991439669  0.25519011486007054  1.0000
  H   H35       1.0  0.28613351209276777  0.8480053862504634  0.8764191983050864  1.0000
  H   H36       1.0  0.7138707343245657  0.15199487906752293  0.12358052156554318  1.0000
  H   H37       1.0  0.11198419334188967  0.9879346158340284  0.9351991882433311  1.0000
  H   H38       1.0  0.8880175959278204  0.012066522093661495  0.0647996717479558  1.0000
  H   H39       1.0  0.0169872523732053  0.19604691153661236  0.9093382256019851  1.0000
  H   H40       1.0  0.9830132491952456  0.8039550980910659  0.09065896508400334  1.0000
  H   H41       1.0  0.03790812667318733  0.4123397760250638  0.8033528760499351  1.0000
  H   H42       1.0  0.9620900081328118  0.5876622257296659  0.19664375873249174  1.0000
  H   H43       1.0  0.2221795354063261  0.47526339027108816  0.6420704708815635  1.0000
  H   H44       1.0  0.7778222445734783  0.5247377444258134  0.3579276641912302  1.0000
  H   H45       1.0  0.36032113031053103  0.33467807626285406  0.3385526590408787  1.0000
  H   H46       1.0  0.6396770602349092  0.6653239448766255  0.6614483252524793  1.0000
  H   H47       1.0  0.2141601542116334  0.38506550829664826  0.3955752780325028  1.0000
  H   H48       1.0  0.7858381267189787  0.6149356323601862  0.6044260102366366  1.0000
  C   C1        1.0  0.3587862384533834  0.6410248025567639  0.7150814626076071  1.0000
  C   C2        1.0  0.6412108451611402  0.35897632931741424  0.2849184603320154  1.0000
  C   C3        1.0  0.2138517905169479  0.6455300362441604  0.7851053008614031  1.0000
  C   C4        1.0  0.7861452930975759  0.35447109563001783  0.21489462207821927  1.0000
  C   C5        1.0  0.22764910682030154  0.6348332812416828  0.889272156682992  1.0000
  C   C6        1.0  0.7723492459156631  0.3651669724709236  0.1107279857249495  1.0000
  C   C7        1.0  0.09534565711226152  0.6429989849580336  0.9543719781921924  1.0000
  C   C8        1.0  0.9046515261773395  0.35700126966428053  0.0456289736416977  1.0000
  C   C9        1.0  0.9441508857536006  0.6626113599513417  0.9161155766740237  1.0000
  C   C10       1.0  0.0558463693413529  0.3373880077267443  0.08388422929866117  1.0000
  C   C11       1.0  0.9276063478299434  0.6716215113519652  0.8127354359183627  1.0000
  C   C12       1.0  0.07239083545965741  0.3283787432703561  0.1872655159155272  1.0000
  C   C13       1.0  0.06254541288019062  0.6632260010472634  0.7484273045050217  1.0000
  C   C14       1.0  0.9374527497955327  0.33677601039984484  0.2515715050328708  1.0000
  C   C15       1.0  0.6642712188822344  0.6924723176153333  0.9490180032978516  1.0000
  C   C16       1.0  0.33572649742847455  0.30752265088031544  0.050984047472212475  1.0000
  C   C17       1.0  0.5515537980114259  0.7177685027712567  0.030128165451515164  1.0000
  C   C18       1.0  0.44844400868445417  0.28222558524174696  0.9698741892943232  1.0000
  C   C19       1.0  0.44656863121792884  0.6362403274707162  0.09592418526914054  1.0000
  C   C20       1.0  0.553429203347676  0.36375377023465916  0.9040803442321703  1.0000
  C   C21       1.0  0.3415314434699043  0.6619038513105905  0.17025261690665155  1.0000
  C   C22       1.0  0.6584686396032637  0.3380911250579998  0.8297499897669739  1.0000
  C   C23       1.0  0.34082459387286695  0.7692805651004591  0.18345798346750528  1.0000
  C   C24       1.0  0.6591740300186046  0.2307170471642052  0.8165430708677661  1.0000
  C   C25       1.0  0.44810108883804384  0.8503367643801596  0.11725579683697157  1.0000
  C   C26       1.0  0.5518975975688747  0.14965995770948837  0.8827433867186016  1.0000
  C   C27       1.0  0.5501517055476768  0.8254121340489602  0.041823010079696  1.0000
  C   C28       1.0  0.44984600147311943  0.1745828312158935  0.9581783157718747  1.0000
  C   C29       1.0  0.23183161128896054  0.7991466417796642  0.26234136243784417  1.0000
  C   C30       1.0  0.7681681009536163  0.2008518532887251  0.7376593034141835  1.0000
  C   C31       1.0  0.17636453337318875  0.7139321381549734  0.359671359922899  1.0000
  C   C32       1.0  0.8236361050299692  0.28606900714401456  0.6403297593313156  1.0000
  C   C33       1.0  0.0672323377525146  0.7477132461987208  0.42799513596692407  1.0000
  C   C34       1.0  0.9327692986165772  0.25228966238663725  0.5720052908282726  1.0000
  C   C35       1.0  0.01562716917206331  0.8656033965917584  0.40403959681802365  1.0000
  C   C36       1.0  0.9843757177386578  0.13439862737044447  0.5959595996085129  1.0000
  C   C37       1.0  0.07210472896357355  0.9512102955828747  0.30954955770771875  1.0000
  C   C38       1.0  0.9278972503663852  0.04878908461031269  0.6904506351536099  1.0000
  C   C39       1.0  0.17692354273056307  0.917509361473769  0.23984684975386728  1.0000
  C   C40       1.0  0.8230783276344126  0.08249089274048059  0.7601515892947078  1.0000
  C   C41       1.0  0.22753836315983736  0.5843256270882619  0.3963354911272034  1.0000
  C   C42       1.0  0.7724633914641502  0.41567641070682265  0.6036674143992471  1.0000
  C   C43       1.0  0.6005124891100522  0.07634819264767148  0.5638675929270605  1.0000
  C   C44       1.0  0.3994892908697524  0.9236529420492302  0.43613054214573316  1.0000
  C   C45       1.0  0.6012659170811503  0.9534297763270271  0.6162569290994072  1.0000
  C   C46       1.0  0.3987358721885599  0.0465713616006624  0.3837419308918726  1.0000
  C   C47       1.0  0.49742309100749793  0.9076262689856232  0.703883945465087  1.0000
  C   C48       1.0  0.5025799673836532  0.09237399078049438  0.29611513399451883  1.0000
  C   C49       1.0  0.39417233477668384  0.9841172154690483  0.739670499978317  1.0000
  C   C50       1.0  0.6058305335542259  0.0158848020315716  0.2603272466112471  1.0000
  C   C51       1.0  0.2881124902651423  0.9426211494680459  0.8321331534021681  1.0000
  C   C52       1.0  0.7118878769825088  0.057382637278884395  0.16786705392471651  1.0000
  C   C53       1.0  0.1916630265472818  0.020033033671850796  0.8640984345910994  1.0000
  C   C54       1.0  0.8083412730955928  0.9799663382403236  0.1358986895813459  1.0000
  C   C55       1.0  0.1922919396087295  0.14432097905434918  0.8062831742699643  1.0000
  C   C56       1.0  0.8077097685657222  0.8556810425867809  0.19371610666403422  1.0000
  C   C57       1.0  0.0969095457324869  0.22705027227410568  0.8383395551944163  1.0000
  C   C58       1.0  0.9030920441870692  0.7729526201572907  0.16165724700833545  1.0000
  C   C59       1.0  0.10746915151030123  0.34572956291000867  0.7806220466288565  1.0000
  C   C60       1.0  0.8925302802868628  0.6542715703755277  0.21937698237735498  1.0000
  C   C61       1.0  0.21127087979748888  0.38202106304849087  0.6893986766447212  1.0000
  C   C62       1.0  0.7887330861744245  0.6179818404866423  0.31059940638009215  1.0000
  C   C63       1.0  0.2954256345221893  0.18875389297930667  0.7138628397934709  1.0000
  C   C64       1.0  0.7045785215099727  0.8112472528213245  0.2861365761013842  1.0000
  C   C65       1.0  0.3995923175787084  0.10708290586021008  0.6806258423519794  1.0000
  C   C66       1.0  0.6004094716910018  0.8929182320674794  0.3193730176393074  1.0000
  N   N1        1.0  0.5024359710008284  0.14985440600924693  0.5948072074223063  1.0000
  N   N2        1.0  0.49756582755878753  0.8501467351492308  0.40519237748746645  1.0000
  N   N3        1.0  0.3018301087742898  0.30589955201255487  0.6573465255486964  1.0000
  N   N4        1.0  0.6981727781364313  0.6941024719496482  0.3426526708778397  1.0000
  O   O1        1.0  0.3369178144370509  0.6450187438244228  0.6228008110744907  1.0000
  O   O2        1.0  0.6630815362648477  0.35498327317454664  0.3771986388744324  1.0000
  O   O3        1.0  0.4925943512421469  0.636060225230281  0.7502585222891864  1.0000
  O   O4        1.0  0.5074029131427126  0.36393914567860003  0.24974200860199144  1.0000
  O   O5        1.0  0.8217113338068529  0.6723524197675984  0.9850954253052039  1.0000
  O   O6        1.0  0.1782862110234262  0.3276443129241357  0.014906742431797671  1.0000
  O   O7        1.0  0.3648191755032713  0.5512359544202851  0.43438238260871026  1.0000
  O   O8        1.0  0.6351837206973557  0.44876607277271324  0.5656175387363191  1.0000
  O   O9        1.0  0.13342782342041912  0.5163689902321662  0.3900993905874516  1.0000
  O   O10       1.0  0.8665706036348055  0.4836312893267659  0.6099065511684074  1.0000
  O   O11       1.0  0.28225580601505135  0.31134254861601807  0.40268382297382743  1.0000
  O   O12       1.0  0.7177436722316486  0.6886586008234729  0.597318830624829  1.0000
