data_image0
_chemical_formula_structural       NaCuH18C18S6N6O2
_chemical_formula_sum              "Na1 Cu1 H18 C18 S6 N6 O2"
_cell_length_a       8.529866915352267
_cell_length_b       8.67624767548844
_cell_length_c       8.930748051308012
_cell_angle_alpha    107.20645322072193
_cell_angle_beta     94.45105369693249
_cell_angle_gamma    98.06260959369912

_space_group_name_H-M_alt    "P 1"
_space_group_IT_number       1

loop_
  _space_group_symop_operation_xyz
  'x, y, z'

loop_
  _atom_site_type_symbol
  _atom_site_label
  _atom_site_symmetry_multiplicity
  _atom_site_fract_x
  _atom_site_fract_y
  _atom_site_fract_z
  _atom_site_occupancy
  Na  Na1       1.0  0.5000075046437332  3.15730981979548e-06  0.4999978841137391  1.0000
  Cu  Cu1       1.0  0.5000038036040378  0.9999952155996393  0.999996892265692  1.0000
  H   H1        1.0  0.7069355422790906  0.2310159088431476  0.9133669499109446  1.0000
  H   H2        1.0  0.29306924303675425  0.7690213670954478  0.0866514629423988  1.0000
  H   H3        1.0  0.9018456549742311  0.2923751770624605  0.09895790049588979  1.0000
  H   H4        1.0  0.09816337015924854  0.707639665804365  0.9010413530065975  1.0000
  H   H5        1.0  0.07598295164785897  0.4143513135497585  0.06779017314553926  1.0000
  H   H6        1.0  0.9240223322478515  0.5856623672246003  0.9322084587776162  1.0000
  H   H7        1.0  0.07366384830585557  0.20385830581764708  0.04322449035360168  1.0000
  H   H8        1.0  0.926347957639031  0.7961589858530472  0.9567778937853646  1.0000
  H   H9        1.0  0.9886132236324269  0.20328448227881785  0.6294846431656822  1.0000
  H   H10       1.0  0.011375226615015737  0.7966891070200005  0.3705096007613946  1.0000
  H   H11       1.0  0.1315594386592167  0.15576484247549868  0.7594337242157465  1.0000
  H   H12       1.0  0.8684368363625123  0.8442198494346582  0.24057424498696625  1.0000
  H   H13       1.0  0.12677052297907915  0.3641590447965725  0.773270339207599  1.0000
  H   H14       1.0  0.8732217324415288  0.6358154984696397  0.22671327596690818  1.0000
  H   H15       1.0  0.8473743603732159  0.32281059274138363  0.48918612931618805  1.0000
  H   H16       1.0  0.15262824317876067  0.6771943302910303  0.5107987141625188  1.0000
  H   H17       1.0  0.4628796058763953  0.5860089957414091  0.22654271060447684  1.0000
  H   H18       1.0  0.537116658187223  0.4139817137317151  0.7734601659415645  1.0000
  C   C1        1.0  0.5546796642746371  0.36389456015250227  0.2208490746711149  1.0000
  C   C2        1.0  0.4453057869749556  0.6360753351920393  0.77914056394836  1.0000
  C   C3        1.0  0.6469604566428514  0.6221421068239933  0.42192899336875905  1.0000
  C   C4        1.0  0.3530415206595662  0.3778470248187347  0.5780604863767778  1.0000
  C   C5        1.0  0.7590161467087738  0.5470837308036562  0.4957497121484451  1.0000
  C   C6        1.0  0.24098487828923956  0.452932544077953  0.5042526315615774  1.0000
  C   C7        1.0  0.544671212413533  0.5284592346684533  0.283281155074846  1.0000
  C   C8        1.0  0.4553422095242325  0.47152265571367735  0.7167252244926844  1.0000
  C   C9        1.0  0.6631514519474352  0.2891078268096053  0.2970080101497389  1.0000
  C   C10       1.0  0.3368504760356288  0.7108874472711334  0.7029831271382605  1.0000
  C   C11       1.0  0.7656221673443538  0.3793240443380555  0.431764055110115  1.0000
  C   C12       1.0  0.23437365761076728  0.6206761475226514  0.5682223116808061  1.0000
  C   C13       1.0  0.7793489680391231  0.21610193765920369  0.8139086809657812  1.0000
  C   C14       1.0  0.22064979004893806  0.7839160817449481  0.1861197068512296  1.0000
  C   C15       1.0  0.999825781672875  0.29303567188483726  0.02674473816419717  1.0000
  C   C16       1.0  0.00018089262854194756  0.7069792332914558  0.9732554590772012  1.0000
  C   C17       1.0  0.052720768968562495  0.2430293863389963  0.7491285155844523  1.0000
  C   C18       1.0  0.9472709432179512  0.7569489963769698  0.25086393308900057  1.0000
  S   S1        1.0  0.4356868437439018  0.24393320224056933  0.04529944109749808  1.0000
  S   S2        1.0  0.564300585799721  0.7560538337706364  0.9546938767725239  1.0000
  S   S3        1.0  0.6634913337213179  0.0787250534230779  0.21893058224502945  1.0000
  S   S4        1.0  0.33653517433396724  0.9212758857525926  0.7810618661088854  1.0000
  S   S5        1.0  0.7991811619412985  0.8302345783005832  0.6459477863287973  1.0000
  S   S6        1.0  0.2008158744004191  0.16976742071226883  0.3540716467096487  1.0000
  N   N1        1.0  0.8516222032727114  0.6538753565222707  0.624695960881219  1.0000
  N   N2        1.0  0.1483775774486915  0.3461152907054127  0.3753071876062322  1.0000
  N   N3        1.0  0.6585712744525122  0.7845327393655452  0.49761664172084613  1.0000
  N   N4        1.0  0.34143074111059235  0.21547616880417314  0.5023849104891198  1.0000
  N   N5        1.0  0.937183861342632  0.2510145291885025  0.8610777673243675  1.0000
  N   N6        1.0  0.06280571536210286  0.7489970350777924  0.13892236200975816  1.0000
  O   O1        1.0  0.7158352403584158  0.17034650350214525  0.6737105120969176  1.0000
  O   O2        1.0  0.2841404130081101  0.8296727805843672  0.3262961618179147  1.0000
