data_image0
_chemical_formula_structural       Cd2H16C28Se4N12
_chemical_formula_sum              "Cd2 H16 C28 Se4 N12"
_cell_length_a       5.793312607398279
_cell_length_b       8.94703723521836
_cell_length_c       17.715352217373006
_cell_angle_alpha    89.99888368309203
_cell_angle_beta     90.00122643164303
_cell_angle_gamma    112.22774930493574

_space_group_name_H-M_alt    "P 1"
_space_group_IT_number       1

loop_
  _space_group_symop_operation_xyz
  'x, y, z'

loop_
  _atom_site_type_symbol
  _atom_site_label
  _atom_site_symmetry_multiplicity
  _atom_site_fract_x
  _atom_site_fract_y
  _atom_site_fract_z
  _atom_site_occupancy
  Cd  Cd1       1.0  1.87861267307e-05  3.409017765000001e-06  0.9999936656554099  1.0000
  Cd  Cd2       1.0  0.5000080380390843  0.5000133763896956  0.500005706509782  1.0000
  H   H1        1.0  0.701599225962788  0.7867023325081774  0.8642444397406807  1.0000
  H   H2        1.0  0.20164245746182985  0.2867197870698703  0.6357484352010587  1.0000
  H   H3        1.0  0.2983870051183359  0.2132784431869155  0.1357618930617832  1.0000
  H   H4        1.0  0.798350372340316  0.7132861690059684  0.3642437854471865  1.0000
  H   H5        1.0  0.6766475259515377  0.5607105244789921  0.7782753952521517  1.0000
  H   H6        1.0  0.17667331006320813  0.060720452085220714  0.7217200872590013  1.0000
  H   H7        1.0  0.32330444558310495  0.43926111817059177  0.2217394047088064  1.0000
  H   H8        1.0  0.8233001578666119  0.9392719475221797  0.2782687464958968  1.0000
  H   H9        1.0  0.256872794899472  0.49526452168224466  0.9127976980353978  1.0000
  H   H10       1.0  0.7568822930810769  0.9952630308741847  0.5871923853406216  1.0000
  H   H11       1.0  0.743117252327629  0.5047330275341511  0.0871956516087238  1.0000
  H   H12       1.0  0.24311856569038073  0.004751452972349998  0.4128066090793041  1.0000
  H   H13       1.0  0.2541144159694042  0.7231486018414159  0.9940097464238634  1.0000
  H   H14       1.0  0.7541304902452028  0.22315324159190916  0.5059784698506533  1.0000
  H   H15       1.0  0.7458996593130182  0.27685188531324906  0.0059790874317756  1.0000
  H   H16       1.0  0.24589530482441554  0.7768594338485927  0.49402052466434304  1.0000
  C   C1        1.0  0.5467007350263415  0.0809855715137644  0.9066998077952206  1.0000
  C   C2        1.0  0.046689055851473364  0.5810087058372418  0.593301915530347  1.0000
  C   C3        1.0  0.4533263636986575  0.9189973389623775  0.0932867682630274  1.0000
  C   C4        1.0  0.953306489877761  0.4190151895545924  0.4067236094858444  1.0000
  C   C5        1.0  0.8188912665755481  0.7177026586506373  0.8736432466853188  1.0000
  C   C6        1.0  0.3189234014103874  0.2177070050114551  0.6263533736703907  1.0000
  C   C7        1.0  0.1810942495898402  0.28228644324207147  0.1263608281452875  1.0000
  C   C8        1.0  0.6810711771658902  0.782298991380479  0.37364054043013795  1.0000
  C   C9        1.0  0.8053384510834362  0.5918348830580058  0.8256955745652022  1.0000
  C   C10       1.0  0.3053576752398897  0.09184476794170139  0.6742875094882592  1.0000
  C   C11       1.0  0.1946424661218344  0.4081553046120092  0.1743045488691735  1.0000
  C   C12       1.0  0.6946211647572369  0.9081608654053498  0.3257064045596323  1.0000
  C   C13       1.0  0.9649754461245905  0.5098022233170241  0.8394151381190582  1.0000
  C   C14       1.0  0.4649958556507983  0.009793442660310302  0.6605777567981191  1.0000
  C   C15       1.0  0.03500637915104928  0.4901832180975775  0.1605827274131499  1.0000
  C   C16       1.0  0.5349977566492753  0.9901946542798753  0.3394189797975287  1.0000
  C   C17       1.0  0.13009838090825113  0.5563333098597173  0.9006797866989871  1.0000
  C   C18       1.0  0.6301100101703555  0.0563376716717912  0.5993058206570012  1.0000
  C   C19       1.0  0.8699075982107303  0.44366818226227883  0.0993152564273174  1.0000
  C   C20       1.0  0.36990833575315923  0.9436772156394326  0.400686964517817  1.0000
  C   C21       1.0  0.12848924534654313  0.6829549934958407  0.9459071632550574  1.0000
  C   C22       1.0  0.6284960497485913  0.18294618235499632  0.554083400922579  1.0000
  C   C23       1.0  0.8715149849839322  0.3170464583174706  0.0540856219368209  1.0000
  C   C24       1.0  0.37151620956556297  0.8170637972216072  0.4459167225231297  1.0000
  C   C25       1.0  0.959950891478371  0.38068565379582947  0.7914189659433859  1.0000
  C   C26       1.0  0.4599596615682202  0.88068464650366  0.7085708224811355  1.0000
  C   C27       1.0  0.0400500348034143  0.6193192971497083  0.20857946404136385  1.0000
  C   C28       1.0  0.5400512355110295  0.11933245252272681  0.291427607478532  1.0000
  Se  Se1       1.0  0.3307545313464714  0.17329433106428377  0.8817761576069074  1.0000
  Se  Se2       1.0  0.8307596488120198  0.6733002309560023  0.6182367855541031  1.0000
  Se  Se3       1.0  0.669258384045186  0.8266846769334606  0.1182019511892776  1.0000
  Se  Se4       1.0  0.1691620253720316  0.3266278068703343  0.3818401075517031  1.0000
  N   N1        1.0  0.6860624112405844  0.018262045249521502  0.9231840401423738  1.0000
  N   N2        1.0  0.186065437865267  0.5182823953910117  0.5768153103950766  1.0000
  N   N3        1.0  0.31396610792515395  0.9817363914839988  0.0768036648089634  1.0000
  N   N4        1.0  0.8139617684986861  0.4817779848335562  0.423191022158818  1.0000
  N   N5        1.0  0.9762408443467976  0.7621830728914463  0.93277646409026  1.0000
  N   N6        1.0  0.476266016176467  0.26219126373633367  0.5672140343000862  1.0000
  N   N7        1.0  0.02376863223421571  0.23781849990719192  0.06721857904774  1.0000
  N   N8        1.0  0.5237438469437735  0.7378174688281902  0.4327810088041488  1.0000
  N   N9        1.0  0.9562630112080303  0.27416667819763063  0.7528066387761925  1.0000
  N   N10       1.0  0.45626280129818053  0.7741667885736804  0.7471886842862716  1.0000
  N   N11       1.0  0.043744330203352805  0.7258276944449521  0.24719235576473145  1.0000
  N   N12       1.0  0.5437603368838141  0.22585059282835834  0.2528091812321875  1.0000
