data_image0
_chemical_formula_structural       Zn2H24C36N12O8
_chemical_formula_sum              "Zn2 H24 C36 N12 O8"
_cell_length_a       7.57811781000346
_cell_length_b       9.073667084388012
_cell_length_c       15.484539534073825
_cell_angle_alpha    89.52425980760091
_cell_angle_beta     83.27312876378959
_cell_angle_gamma    84.1173082294115

_space_group_name_H-M_alt    "P 1"
_space_group_IT_number       1

loop_
  _space_group_symop_operation_xyz
  'x, y, z'

loop_
  _atom_site_type_symbol
  _atom_site_label
  _atom_site_symmetry_multiplicity
  _atom_site_fract_x
  _atom_site_fract_y
  _atom_site_fract_z
  _atom_site_occupancy
  Zn  Zn1       1.0  0.08863127451206762  0.36828683091273723  0.24273672940740457  1.0000
  Zn  Zn2       1.0  0.911375907515172  0.6317131721867072  0.7572626074908584  1.0000
  H   H1        1.0  0.108801559824002  0.7406062509463  0.9546106946174648  1.0000
  H   H2        1.0  0.8911779251396297  0.259380817256087  0.04539387369041491  1.0000
  H   H3        1.0  0.846329558472675  0.058242964775949715  0.14804062691268882  1.0000
  H   H4        1.0  0.15366302775418464  0.9417461547992049  0.8519636657856469  1.0000
  H   H5        1.0  0.17201755851392866  0.605227454101538  0.0842515084599924  1.0000
  H   H6        1.0  0.8279814543448227  0.3947693319234915  0.9157639191508268  1.0000
  H   H7        1.0  0.7017189741120761  0.8558095554673173  0.19838276476262  1.0000
  H   H8        1.0  0.2982727760939667  0.14418842555151198  0.8016234692983633  1.0000
  H   H9        1.0  0.431295243661019  0.9627329517561735  0.3486563769807844  1.0000
  H   H10       1.0  0.5687192663999101  0.03727470593750581  0.6513456343116035  1.0000
  H   H11       1.0  0.7120879550632894  0.17974485361983034  0.5306238119632525  1.0000
  H   H12       1.0  0.2879323103092873  0.8202583076172304  0.4693771817548154  1.0000
  H   H13       1.0  0.9263549351947165  0.19502951894094173  0.40892128600743394  1.0000
  H   H14       1.0  0.07365776210985331  0.804981479971829  0.5910782464305769  1.0000
  H   H15       1.0  0.47768957019112435  0.174989700992306  0.26861257030128644  1.0000
  H   H16       1.0  0.5223214676530575  0.8250124675129626  0.731388423738622  1.0000
  H   H17       1.0  0.41634802850762764  0.2707102955766558  0.9850330675550084  1.0000
  H   H18       1.0  0.5836302013648549  0.7292612984898953  0.014967161238153887  1.0000
  H   H19       1.0  0.6035088805751699  0.1248448920156591  0.8625486562320648  1.0000
  H   H20       1.0  0.3964541864672881  0.8751291011036955  0.1374467957215657  1.0000
  H   H21       1.0  0.23797260695296532  0.38210217400047247  0.5705883678588963  1.0000
  H   H22       1.0  0.7620517496547521  0.6179164244102822  0.4293941586896751  1.0000
  H   H23       1.0  0.4589423782989926  0.47072764861054134  0.6608442522547479  1.0000
  H   H24       1.0  0.5410832396905008  0.5292931472886195  0.3391414032468489  1.0000
  C   C1        1.0  0.9748066321062516  0.8862479654546364  0.05857861630214958  1.0000
  C   C2        1.0  0.025180498521955013  0.11374343425700319  0.9414279788535753  1.0000
  C   C3        1.0  0.06347176533083142  0.8537740158049445  0.9757143048768954  1.0000
  C   C4        1.0  0.9365141039155986  0.14621518641828865  0.024289161325810927  1.0000
  C   C5        1.0  0.9114600429247094  0.03156586744579219  0.08292005195063012  1.0000
  C   C6        1.0  0.08852851971082733  0.96842330164845  0.9170838735938676  1.0000
  C   C7        1.0  0.05030574997477543  0.6399655242296021  0.12618233279442143  1.0000
  C   C8        1.0  0.9496822735017718  0.36003250316908014  0.8738293275722385  1.0000
  C   C9        1.0  0.8102148487693911  0.7682052228446209  0.1867250366584585  1.0000
  C   C10       1.0  0.18977696740594052  0.23179275747659742  0.81328248483797  1.0000
  C   C11       1.0  0.5833248972117107  0.07702971772043549  0.4324722553414944  1.0000
  C   C12       1.0  0.4166939540714409  0.9229745673691808  0.5675294755584447  1.0000
  C   C13       1.0  0.4613689954670266  0.9789872996679136  0.41486013057917154  1.0000
  C   C14       1.0  0.5386466289703407  0.0210214504933504  0.5851398586482618  1.0000
  C   C15       1.0  0.6217893056713919  0.09906496128993333  0.5171792878186354  1.0000
  C   C16       1.0  0.37822784972724593  0.9009415572075096  0.4828199629507425  1.0000
  C   C17       1.0  0.835078681506545  0.20486409999380586  0.3595136181927573  1.0000
  C   C18       1.0  0.1649316730244621  0.7951436086141828  0.6404854510749021  1.0000
  C   C19       1.0  0.608368464406894  0.1967926532366633  0.2851768629030005  1.0000
  C   C20       1.0  0.3916425074679921  0.8032095159662163  0.7148228437014623  1.0000
  C   C21       1.0  0.3965197020653762  0.0805778608891643  0.06812512513747751  1.0000
  C   C22       1.0  0.603440869495863  0.9193961632663559  0.9318737297806977  1.0000
  C   C23       1.0  0.4537812055394569  0.1520992568640764  0.9908342659015618  1.0000
  C   C24       1.0  0.5461778171426134  0.8478781057201135  0.009167259904025095  1.0000
  C   C25       1.0  0.5564858485678812  0.07188101323750122  0.9232509688070607  1.0000
  C   C26       1.0  0.4434701480274512  0.928098599144612  0.07674816905593221  1.0000
  C   C27       1.0  0.286608764690591  0.16420453835608842  0.1421047685691761  1.0000
  C   C28       1.0  0.7133768076940046  0.8357846670063795  0.8578929041740155  1.0000
  C   C29       1.0  0.3755629158568752  0.4504855718529369  0.44962810398180864  1.0000
  C   C30       1.0  0.6244561500754245  0.5495353049502895  0.5503599436127757  1.0000
  C   C31       1.0  0.35308418808732983  0.4340698073165329  0.5402830770220675  1.0000
  C   C32       1.0  0.6469357763956155  0.5659532708119457  0.45970101863058244  1.0000
  C   C33       1.0  0.4767621776003637  0.4829010173413551  0.5903897370987465  1.0000
  C   C34       1.0  0.5232576700107431  0.5171231685983815  0.40959435983008774  1.0000
  C   C35       1.0  0.2441449894880847  0.3918363369963133  0.3966841870370743  1.0000
  C   C36       1.0  0.7558842505746525  0.608188839931195  0.6033031281585366  1.0000
  N   N1        1.0  0.9801456697507763  0.5644313591996948  0.19252625856318414  1.0000
  N   N2        1.0  0.019845643101369593  0.43557326589626655  0.8074851328966873  1.0000
  N   N3        1.0  0.8279206682203865  0.6447003825756571  0.23124345685747733  1.0000
  N   N4        1.0  0.17207202573654004  0.35530311901656125  0.768766553702797  1.0000
  N   N5        1.0  0.9467791259853515  0.7708654574288475  0.11975240016738549  1.0000
  N   N6        1.0  0.0532130228876184  0.22913030622343913  0.8802570499298454  1.0000
  N   N7        1.0  0.8693966202921218  0.27124300766646314  0.2841808846271619  1.0000
  N   N8        1.0  0.1306071671149454  0.7287636754295407  0.715818000586417  1.0000
  N   N9        1.0  0.7270672628703211  0.26694083631306853  0.23646056583380928  1.0000
  N   N10       1.0  0.2729438258764105  0.7330602250785461  0.7635391394944692  1.0000
  N   N11       1.0  0.670958155176294  0.155153855214202  0.36278423716498054  1.0000
  N   N12       1.0  0.3290494371451588  0.8448561004012802  0.6372175939018733  1.0000
  O   O1        1.0  0.26344459904382234  0.1036326346109036  0.21553609542668545  1.0000
  O   O2        1.0  0.7365459441224688  0.8963509783393347  0.7844690189843747  1.0000
  O   O3        1.0  0.22058169379560874  0.29774884286287323  0.12668286852287028  1.0000
  O   O4        1.0  0.779413672558711  0.7022369229399388  0.8733167299469147  1.0000
  O   O5        1.0  0.25224110743452843  0.4386894334239031  0.316521017681069  1.0000
  O   O6        1.0  0.7477694981697526  0.5613238030823595  0.6834683100136942  1.0000
  O   O7        1.0  0.1403436517091095  0.3028498516707714  0.42963532970050283  1.0000
  O   O8        1.0  0.8596764336734779  0.697152204894259  0.570359869281866  1.0000
