data_image0
_chemical_formula_structural       Na4H12C8N24O8
_chemical_formula_sum              "Na4 H12 C8 N24 O8"
_cell_length_a       3.633149620154795
_cell_length_b       8.364156224000203
_cell_length_c       18.92728098374328
_cell_angle_alpha    89.99997555309172
_cell_angle_beta     91.37821104340534
_cell_angle_gamma    90.00000374228128

_space_group_name_H-M_alt    "P 1"
_space_group_IT_number       1

loop_
  _space_group_symop_operation_xyz
  'x, y, z'

loop_
  _atom_site_type_symbol
  _atom_site_label
  _atom_site_symmetry_multiplicity
  _atom_site_fract_x
  _atom_site_fract_y
  _atom_site_fract_z
  _atom_site_occupancy
  Na  Na1       1.0  0.760678830220222  0.16027670074846873  0.2171841394933551  1.0000
  Na  Na2       1.0  0.7393152514781532  0.660274503843702  0.2828153677303291  1.0000
  Na  Na3       1.0  0.23931719739833568  0.8397245115673682  0.7828158242784937  1.0000
  Na  Na4       1.0  0.26067802225744435  0.33972551289443226  0.7171840551149415  1.0000
  H   H1        1.0  0.5353666523706124  0.8582056706521539  0.9823555706613618  1.0000
  H   H2        1.0  0.9646370363733965  0.3582020904570057  0.517643918283504  1.0000
  H   H3        1.0  0.4646348797447573  0.14179434608674057  0.017642833259444  1.0000
  H   H4        1.0  0.035370005469594894  0.6417967307029643  0.48235715251354355  1.0000
  H   H5        1.0  0.5097504865573299  0.6465871857738676  0.9977061134411898  1.0000
  H   H6        1.0  0.990250467678564  0.14658362169645756  0.5022944607568576  1.0000
  H   H7        1.0  0.4902482942904385  0.35341283096419557  0.0022938629165594002  1.0000
  H   H8        1.0  0.0097565741644274  0.8534151994635051  0.49770661004018996  1.0000
  H   H9        1.0  0.1312596837140916  0.7500321753083694  0.956836113522371  1.0000
  H   H10       1.0  0.3687465568928232  0.25002856470966595  0.543164361999608  1.0000
  H   H11       1.0  0.8687390964798211  0.24996784142993525  0.0431633344944728  1.0000
  H   H12       1.0  0.6312604849501184  0.7499714520281626  0.45683670879732574  1.0000
  C   C1        1.0  0.3558358819662359  0.7587766208703356  0.9963315262619189  1.0000
  C   C2        1.0  0.144167603384318  0.2587718365080889  0.5036678782918855  1.0000
  C   C3        1.0  0.6441628975737287  0.24122578702394282  0.0036673934137851994  1.0000
  C   C4        1.0  0.8558394384586733  0.741226984651881  0.4963331925051691  1.0000
  C   C5        1.0  0.1390986366549853  0.6809389282297573  0.118562930349853  1.0000
  C   C6        1.0  0.36090349276344114  0.1809302177952574  0.3814375635662088  1.0000
  C   C7        1.0  0.8608973903093258  0.3190718487092069  0.8814365050801599  1.0000
  C   C8        1.0  0.6390980426212849  0.8190674077866757  0.618563482059379  1.0000
  N   N1        1.0  0.20721113117877377  0.7874529868264232  0.06577420706756242  1.0000
  N   N2        1.0  0.29279098882099663  0.28744780904862216  0.4342257377915929  1.0000
  N   N3        1.0  0.7927848970935897  0.2125494210670169  0.934226285045078  1.0000
  N   N4        1.0  0.7072132991390347  0.712549816533645  0.5657747920788765  1.0000
  N   N5        1.0  0.09939869628630761  0.9337498584001975  0.0863313912186854  1.0000
  N   N6        1.0  0.4005979039091869  0.4337447071823701  0.4136674433341625  1.0000
  N   N7        1.0  0.9006000825997588  0.0662537450721885  0.9136670001159929  1.0000
  N   N8        1.0  0.5993981250171744  0.5662541139772441  0.5863335771197383  1.0000
  N   N9        1.0  0.9881839460716578  0.7633764166466149  0.1717546376140575  1.0000
  N   N10       1.0  0.5118156336014935  0.2633701235913434  0.3282448747299895  1.0000
  N   N11       1.0  0.011814833468307  0.23662599124765643  0.8282442820616397  1.0000
  N   N12       1.0  0.4881831479003225  0.7366251108350281  0.6717556299691338  1.0000
  N   N13       1.0  0.9707617428685608  0.9175976013389545  0.14961951432900383  1.0000
  N   N14       1.0  0.529235070231266  0.41759128872011786  0.3503794270942606  1.0000
  N   N15       1.0  0.029237036671354102  0.08240600213318319  0.8503794053465867  1.0000
  N   N16       1.0  0.4707609580412965  0.5824063368618865  0.6496210650188416  1.0000
  N   N17       1.0  0.24112061257761042  0.52579477525407  0.10876476754983601  1.0000
  N   N18       1.0  0.2588842821822368  0.02578963546788059  0.39123524078435423  1.0000
  N   N19       1.0  0.7588754143872904  0.47420165475057263  0.8912346678815695  1.0000
  N   N20       1.0  0.741120007085449  0.9742091856917551  0.608766345767819  1.0000
  N   N21       1.0  0.15626895844501834  0.4215511203886564  0.1574103542085155  1.0000
  N   N22       1.0  0.34372489279444807  0.9215440922232572  0.3425911118357732  1.0000
  N   N23       1.0  0.8437325736701524  0.5784536786616737  0.8425880497118357  1.0000
  N   N24       1.0  0.6562766412826235  0.07845233778130727  0.657408877108118  1.0000
  O   O1        1.0  0.26005506922025023  0.27745291157771845  0.14706708489200793  1.0000
  O   O2        1.0  0.239938791914895  0.7774482578529813  0.3529328241546139  1.0000
  O   O3        1.0  0.7399437103197144  0.7225494963165602  0.8529318347836892  1.0000
  O   O4        1.0  0.7600572363576105  0.22255056330688913  0.6470676679583747  1.0000
  O   O5        1.0  0.9740356829725628  0.4529015650367965  0.21219449040339813  1.0000
  O   O6        1.0  0.5259611265683118  0.9528969578633589  0.2878039158126029  1.0000
  O   O7        1.0  0.025965851104217598  0.5471020384349289  0.7878054985397897  1.0000
  O   O8        1.0  0.47403490170420076  0.04710186329651119  0.7121965763003857  1.0000
