data_image0
_chemical_formula_structural       Cd8H48C48N32
_chemical_formula_sum              "Cd8 H48 C48 N32"
_cell_length_a       9.840067359
_cell_length_b       10.862507031
_cell_length_c       14.7195
_cell_angle_alpha    90.0
_cell_angle_beta     90.0
_cell_angle_gamma    90.0

_space_group_name_H-M_alt    "P 1"
_space_group_IT_number       1

loop_
  _space_group_symop_operation_xyz
  'x, y, z'

loop_
  _atom_site_type_symbol
  _atom_site_label
  _atom_site_symmetry_multiplicity
  _atom_site_fract_x
  _atom_site_fract_y
  _atom_site_fract_z
  _atom_site_occupancy
  Cd  Cd1       1.0  0.1983390894387469  0.9669563361408535  0.8899663711403252  1.0000
  Cd  Cd2       1.0  0.801661178953722  0.5330426929506871  0.38996705051122404  1.0000
  Cd  Cd3       1.0  0.3016615528840915  0.4669557391792125  0.110033628859675  1.0000
  Cd  Cd4       1.0  0.6983397317615854  0.0330411753912543  0.610032949488776  1.0000
  Cd  Cd5       1.0  0.8016601627005215  0.0330439371846296  0.1100343082305812  1.0000
  Cd  Cd6       1.0  0.1983401056919547  0.4669585009725949  0.610032949488776  1.0000
  Cd  Cd7       1.0  0.6983387155083776  0.5330436135484788  0.8899663711403252  1.0000
  Cd  Cd8       1.0  0.3016585041244752  0.966958177336437  0.3899684092530293  1.0000
  H   H1        1.0  0.46742667831365736  0.10352306302686999  0.7693651278915752  1.0000
  H   H2        1.0  0.5325725738256111  0.3964756927391875  0.2693658072624743  1.0000
  H   H3        1.0  0.0325719315027726  0.6035236599885039  0.2306348721084248  1.0000
  H   H4        1.0  0.967426304383288  0.8964762897008214  0.7306341927375257  1.0000
  H   H5        1.0  0.5325735900788189  0.8964735279074459  0.2306335133666195  1.0000
  H   H6        1.0  0.4674276945668652  0.6035255011840945  0.7306348721084249  1.0000
  H   H7        1.0  0.9674273206364958  0.3964766133369793  0.7693651278915752  1.0000
  H   H8        1.0  0.0325729477559733  0.10352582482024529  0.2693651278915752  1.0000
  H   H9        1.0  0.46566246274818457  0.7965693348051559  0.5944332348245496  1.0000
  H   H10       1.0  0.534339838150693  0.7034287736885858  0.0944332348245496  1.0000
  H   H11       1.0  0.0343381795746538  0.2965687378435149  0.4055674445463495  1.0000
  H   H12       1.0  0.9656610725646146  0.20342909732474368  0.9055667651754504  1.0000
  H   H13       1.0  0.5343306918718439  0.20342633553136116  0.4055667651754504  1.0000
  H   H14       1.0  0.4656614464949839  0.2965714996368973  0.9055667651754504  1.0000
  H   H15       1.0  0.9656620888178225  0.7034306148841765  0.5944345935663549  1.0000
  H   H16       1.0  0.0343391958278545  0.7965711760007395  0.0944345935663549  1.0000
  H   H17       1.0  0.2605500456920211  0.7701085924388024  0.7226420734399923  1.0000
  H   H18       1.0  0.7394512389536558  0.7298904366527381  0.2226434321817976  1.0000
  H   H19       1.0  0.2394516128840252  0.2701089160749532  0.2773586059309068  1.0000
  H   H20       1.0  0.7605486555084439  0.2298907602888889  0.7773572471891015  1.0000
  H   H21       1.0  0.7394461576876309  0.2298916808866807  0.2773599646727121  1.0000
  H   H22       1.0  0.2605490294388133  0.2701098366727521  0.7773572471891015  1.0000
  H   H23       1.0  0.7605496717616518  0.7298913572505299  0.7226420734399923  1.0000
  H   H24       1.0  0.2394516128840252  0.770110433634386  0.2226434321817976  1.0000
  H   H25       1.0  0.3316145998752233  0.7622071015808416  0.0387934372770786  1.0000
  H   H26       1.0  0.6683866847704606  0.7377928481084908  0.5387927579061795  1.0000
  H   H27       1.0  0.1683850261944144  0.2622065046192006  0.9612072420938205  1.0000
  H   H28       1.0  0.8316142259448539  0.2377904099512662  0.4612065627229214  1.0000
  H   H29       1.0  0.6683846522640449  0.2377922511468498  0.9612065627229216  1.0000
  H   H30       1.0  0.3316145998752233  0.2622083458147841  0.4612079214647267  1.0000
  H   H31       1.0  0.8316142259448539  0.7377937687062824  0.0387927579061795  1.0000
  H   H32       1.0  0.16838604244761504  0.7622089427764251  0.5387934372770786  1.0000
  H   H33       1.0  0.08274028726595617  0.48201763967171013  0.9314983525255585  1.0000
  H   H34       1.0  0.9172589648733122  0.0179820366921319  0.4314963144128541  1.0000
  H   H35       1.0  0.41726035505688225  0.9820182366333511  0.0685016474744415  1.0000
  H   H36       1.0  0.5827429620952032  0.5179798718603905  0.5685036855871459  1.0000
  H   H37       1.0  0.91725998112652  0.5179817130559812  0.0685016474744415  1.0000
  H   H38       1.0  0.0827423197723647  0.9820209984267336  0.5685030062162468  1.0000
  H   H39       1.0  0.5827399133355867  0.0179811160943402  0.9314983525255585  1.0000
  H   H40       1.0  0.4172593388036816  0.48201948086730084  0.4314963144128541  1.0000
  H   H41       1.0  0.0317711239765117  0.6995309626327071  0.8396263460035982  1.0000
  H   H42       1.0  0.9682291444159645  0.8004680664588264  0.3396229491490885  1.0000
  H   H43       1.0  0.46822951834632676  0.1995303656710732  0.1603736539964018  1.0000
  H   H44       1.0  0.5317717662993501  0.3004674694971925  0.6603770508509115  1.0000
  H   H45       1.0  0.968231176922373  0.300469310692776  0.1603736539964018  1.0000
  H   H46       1.0  0.0317721402297195  0.1995331274644485  0.6603770508509115  1.0000
  H   H47       1.0  0.5317707500461424  0.8004689870566182  0.8396256666326991  1.0000
  H   H48       1.0  0.46822748583991813  0.6995328038282976  0.3396236285199876  1.0000
  C   C1        1.0  0.4394106099329989  0.0157422222615793  0.7394021536057593  1.0000
  C   C2        1.0  0.5605896584594702  0.48425561290667923  0.2394035123475646  1.0000
  C   C3        1.0  0.060587999883424  0.5157428192232203  0.2605978463942407  1.0000
  C   C4        1.0  0.9394102360026365  0.9842562098683131  0.7605971670233345  1.0000
  C   C5        1.0  0.560586609699854  0.9842543686727296  0.2605978463942407  1.0000
  C   C6        1.0  0.4394106099329989  0.5157446604188038  0.7605971670233345  1.0000
  C   C7        1.0  0.9394102360026365  0.4842574541022628  0.7394021536057593  1.0000
  C   C8        1.0  0.060590032389839586  0.0157449840549617  0.23940283297666554  1.0000
  C   C9        1.0  0.437536639021296  0.855782184855741  0.6506824280716046  1.0000
  C   C10       1.0  0.5624656618775887  0.6442150030402161  0.1506831074425108  1.0000
  C   C11       1.0  0.06246400330154239  0.3557825084918917  0.34931757192839546  1.0000
  C   C12       1.0  0.9375342325845182  0.1442162472741586  0.8493168925574892  1.0000
  C   C13       1.0  0.5624605806115568  0.1442153266763668  0.34931757192839546  1.0000
  C   C14       1.0  0.4375346065148804  0.3557843496874753  0.8493175719283954  1.0000
  C   C15       1.0  0.9375362650909267  0.6442186854313832  0.6506831074425108  1.0000
  C   C16       1.0  0.06246603580795809  0.8557849466491163  0.1506837868134099  1.0000
  C   C17       1.0  0.33408612767200196  0.843570455130596  0.7133965148272665  1.0000
  C   C18       1.0  0.6659131244672594  0.6564267327653539  0.2133958354563674  1.0000
  C   C19       1.0  0.1659155309040372  0.3435716993645457  0.2866034851727335  1.0000
  C   C20       1.0  0.8340857537416397  0.15642705640150467  0.7866041645436326  1.0000
  C   C21       1.0  0.6659141407204671  0.1564279769992964  0.286601447060022  1.0000
  C   C22       1.0  0.33408612767200196  0.3435726199623375  0.7866041645436326  1.0000
  C   C23       1.0  0.8340857537416397  0.6564294945587292  0.7133965148272665  1.0000
  C   C24       1.0  0.16591451465083648  0.8435732169239785  0.2133965148272665  1.0000
  C   C25       1.0  0.2576293339782225  0.7149712288181647  0.9967199972825185  1.0000
  C   C26       1.0  0.7423709344142535  0.7850278002733759  0.4967193179116123  1.0000
  C   C27       1.0  0.24237130834461598  0.21497155245431537  0.0032800027174815006  1.0000
  C   C28       1.0  0.7576309925542688  0.2850262827139431  0.5032806820883877  1.0000
  C   C29       1.0  0.7423709344142535  0.2850281239095267  0.0032800027174815006  1.0000
  C   C30       1.0  0.257631366484631  0.2149733936499061  0.5032813614592868  1.0000
  C   C31       1.0  0.7576289600478531  0.7850278002733759  0.9967199972825185  1.0000
  C   C32       1.0  0.2423702920914153  0.7149730700137482  0.4967193179116123  1.0000
  C   C33       1.0  0.12737311181651728  0.5723623452907134  0.9403967526070858  1.0000
  C   C34       1.0  0.8726281728291595  0.927633001409653  0.4403974319779849  1.0000
  C   C35       1.0  0.3726265142531132  0.0723617483290724  0.059603247392914206  1.0000
  C   C36       1.0  0.6273737541393558  0.4276342456436026  0.5596025680220154  1.0000
  C   C37       1.0  0.8726281728291595  0.427637007436978  0.059603247392914206  1.0000
  C   C38       1.0  0.1273741280697251  0.0723672719158301  0.5596018886511089  1.0000
  C   C39       1.0  0.6273737541393558  0.927637604398619  0.9403974319779849  1.0000
  C   C40       1.0  0.3726285467595217  0.5723660276818805  0.4403967526070859  1.0000
  C   C41       1.0  0.1023184052778987  0.6806568666790866  0.8945657121505521  1.0000
  C   C42       1.0  0.8976818631145703  0.8193449242058293  0.3945657121505519  1.0000
  C   C43       1.0  0.3976822370449398  0.1806562697174456  0.1054349672203543  1.0000
  C   C44       1.0  0.6023190476007372  0.3193424860486047  0.605433608478549  1.0000
  C   C45       1.0  0.8976828793677782  0.3193443272441954  0.1054342878494481  1.0000
  C   C46       1.0  0.1023184052778987  0.1806571903152374  0.605433608478549  1.0000
  C   C47       1.0  0.6023170150943287  0.8193430830102456  0.8945650327796457  1.0000
  C   C48       1.0  0.3976802045385241  0.6806577872768784  0.3945636740378404  1.0000
  N   N1        1.0  0.3360454638530115  0.9456122763084096  0.7693705628587963  1.0000
  N   N2        1.0  0.663953788286257  0.554386752783131  0.2693712422296954  1.0000
  N   N3        1.0  0.1639531459634185  0.44561352054235204  0.2306294371412108  1.0000
  N   N4        1.0  0.8360461061758498  0.05438615582149  0.7306294371412108  1.0000
  N   N5        1.0  0.6639517557798484  0.0543843146259064  0.2306294371412108  1.0000
  N   N6        1.0  0.3360464801062122  0.44561352054235204  0.7306294371412108  1.0000
  N   N7        1.0  0.8360461061758498  0.5543885939787145  0.7693705628587963  1.0000
  N   N8        1.0  0.1639541622166263  0.945614117503993  0.2693705628587892  1.0000
  N   N9        1.0  0.5039945174220861  0.9653204338625585  0.6676911579877044  1.0000
  N   N10       1.0  0.49600575097039007  0.5346767540333914  0.1676911579877043  1.0000
  N   N11       1.0  0.996004360786813  0.4653207574987093  0.3323088420122957  1.0000
  N   N12       1.0  0.0039938750992476  0.0346770776695493  0.8323088420122957  1.0000
  N   N13       1.0  0.496001685957566  0.0346761570717575  0.3323081626413966  1.0000
  N   N14       1.0  0.5039945174220861  0.46532259869429987  0.8323088420122957  1.0000
  N   N15       1.0  0.003994891352448299  0.5346804364245656  0.6676911579877044  1.0000
  N   N16       1.0  0.9960053770400207  0.9653231956559338  0.1676911579877043  1.0000
  N   N17       1.0  0.1853757635441013  0.7706986956241622  0.9309895037195588  1.0000
  N   N18       1.0  0.8146255211015755  0.7293012540651702  0.4309888243486526  1.0000
  N   N19       1.0  0.3146238625255364  0.2706980986625211  0.0690111756513474  1.0000
  N   N20       1.0  0.685375389613732  0.2292997365057374  0.5690111756513474  1.0000
  N   N21       1.0  0.8146255211015755  0.22930157770132098  0.0690098169095421  1.0000
  N   N22       1.0  0.1853777960505099  0.27069901926032  0.5690118550222465  1.0000
  N   N23       1.0  0.685375389613732  0.7293012540651702  0.9309895037195588  1.0000
  N   N24       1.0  0.3146248787787371  0.7706986956241622  0.4309888243486526  1.0000
  N   N25       1.0  0.2256468293348775  0.5948700407336034  0.005501545568805001  1.0000
  N   N26       1.0  0.7743524228043839  0.9051308295535208  0.5055001868269997  1.0000
  N   N27       1.0  0.2743517804815454  0.09486944377196238  0.994498454431195  1.0000
  N   N28       1.0  0.7256495041641315  0.40512839139629625  0.4944991338021012  1.0000
  N   N29       1.0  0.7743534390575915  0.4051302325918869  0.9944991338021012  1.0000
  N   N30       1.0  0.2256488618412931  0.0948722055653448  0.494498454431195  1.0000
  N   N31       1.0  0.7256474716577159  0.905129908955729  0.005501545568805001  1.0000
  N   N32       1.0  0.2743527967347532  0.5948709613313952  0.5055001868269997  1.0000
