data_image0
_chemical_formula_structural       Zn2H38C46N8O18
_chemical_formula_sum              "Zn2 H38 C46 N8 O18"
_cell_length_a       10.879366000682172
_cell_length_b       14.690544182021835
_cell_length_c       16.041890766643473
_cell_angle_alpha    90.56991015030351
_cell_angle_beta     90.94277900805312
_cell_angle_gamma    91.66383160872509

_space_group_name_H-M_alt    "P 1"
_space_group_IT_number       1

loop_
  _space_group_symop_operation_xyz
  'x, y, z'

loop_
  _atom_site_type_symbol
  _atom_site_label
  _atom_site_symmetry_multiplicity
  _atom_site_fract_x
  _atom_site_fract_y
  _atom_site_fract_z
  _atom_site_occupancy
  Zn  Zn1       1.0  0.5012830158448195  0.5959586525195846  0.5077738373827358  1.0000
  Zn  Zn2       1.0  0.49649471726835515  0.40037346839906013  0.4953153498965008  1.0000
  H   H1        1.0  0.3028558249303615  0.579481960123907  0.05250279360685539  1.0000
  H   H2        1.0  0.6802265410145196  0.4308031588340313  0.951357346558403  1.0000
  H   H3        1.0  0.299675649978731  0.08123236754379799  0.5230368197500326  1.0000
  H   H4        1.0  0.6864041729153172  0.9148672469766269  0.4762442324064935  1.0000
  H   H5        1.0  0.2689428457665883  0.16714924855744326  0.2049748102158517  1.0000
  H   H6        1.0  0.6761364809294932  0.7949838820440008  0.7830575760708031  1.0000
  H   H7        1.0  0.2828446266976243  0.8304658247162992  0.5458077995676547  1.0000
  H   H8        1.0  0.08969088552058932  0.8850554628038695  0.5650306443418387  1.0000
  H   H9        1.0  0.1314620821262835  0.9891638713746573  0.5165785444928233  1.0000
  H   H10       1.0  0.16926725518171537  0.9730351675808819  0.623936771053792  1.0000
  H   H11       1.0  0.7058756218359646  0.1658095053630788  0.4569739878592713  1.0000
  H   H12       1.0  0.8986158909808354  0.1105667057177939  0.4407824056974902  1.0000
  H   H13       1.0  0.8249545838047398  0.018014759354670708  0.3846708765932689  1.0000
  H   H14       1.0  0.8545189834523441  0.0097323239893683  0.4939007605513552  1.0000
  H   H15       1.0  0.30043505716076885  0.37913477325937356  0.18546120043826161  1.0000
  H   H16       1.0  0.4837480077907444  0.30558102809256127  0.1582480322625983  1.0000
  H   H17       1.0  0.4495629445872352  0.2234087546708068  0.23555497203081194  1.0000
  H   H18       1.0  0.4840496336141271  0.33818704114737125  0.2665899456074712  1.0000
  H   H19       1.0  0.6629954924145309  0.6049766128097857  0.8038223526311015  1.0000
  H   H20       1.0  0.7253347272156745  0.6678217065074815  0.93416472090518  1.0000
  H   H21       1.0  0.8203097066031333  0.7507214837639965  0.8841852470897749  1.0000
  H   H22       1.0  0.8660931536297697  0.6357092895483872  0.8874551894556291  1.0000
  H   H23       1.0  0.18106562611468752  0.5119383288609712  0.3437306487385854  1.0000
  H   H24       1.0  0.1495129203247316  0.5591957863108377  0.2040864948372132  1.0000
  H   H25       1.0  0.0237707034717189  0.4843746888175603  0.23156508201342518  1.0000
  H   H26       1.0  0.1451004976731483  0.44381086491689103  0.1701597974545734  1.0000
  H   H27       1.0  0.8343715437880804  0.47171637493462276  0.650203027251365  1.0000
  H   H28       1.0  0.9706481585104925  0.500429701502334  0.781577548666526  1.0000
  H   H29       1.0  0.860727078388898  0.4073642981239018  0.7783279530747933  1.0000
  H   H30       1.0  0.8256874818629784  0.5093972888189242  0.8309521852454935  1.0000
  H   H31       1.0  0.0463745245808767  0.30207115099180737  0.5347510976591252  1.0000
  H   H32       1.0  0.9299780947054118  0.6866329884592021  0.4617847375236721  1.0000
  H   H33       1.0  0.1719706023516778  0.0679145575027391  0.3620022114328734  1.0000
  H   H34       1.0  0.78328561481365  0.9108909617850929  0.6357405869635498  1.0000
  H   H35       1.0  0.9376729151411497  0.34700251400682447  0.3556083739033298  1.0000
  H   H36       1.0  0.05588924752208871  0.6391678651842626  0.6419127105532494  1.0000
  H   H37       1.0  0.33778130676458323  0.548881534072109  0.8344444757453431  1.0000
  H   H38       1.0  0.6451096334389349  0.46235897185179914  0.169388202578439  1.0000
  C   C1        1.0  0.5256838897957367  0.48182178006516097  0.6625326959493235  1.0000
  C   C2        1.0  0.4696136798119213  0.525753062042014  0.34140898751482507  1.0000
  C   C3        1.0  0.869977000298398  0.5002027254223124  0.4871124407871008  1.0000
  C   C4        1.0  0.12686292937029717  0.4880956078836363  0.509324874331142  1.0000
  C   C5        1.0  0.9327704421082431  0.5585664674467806  0.5447198541737563  1.0000
  C   C6        1.0  0.06371465508961902  0.4292042217744481  0.4518263835756641  1.0000
  C   C7        1.0  0.38521699623723993  0.5471254651773021  0.0303790389837957  1.0000
  C   C8        1.0  0.5979880539789021  0.463245080210207  0.9735319202717321  1.0000
  C   C9        1.0  0.47535416990590557  0.5188712570400966  0.0876349917298995  1.0000
  C   C10       1.0  0.5079106105048935  0.4916275988159526  0.916271181173272  1.0000
  C   C11       1.0  0.5827479268635188  0.4765792343217613  0.0585065878475035  1.0000
  C   C12       1.0  0.40045750747030706  0.5337105542113179  0.9453360836640458  1.0000
  C   C13       1.0  0.4646449751339717  0.5287116484409893  0.1748330049943476  1.0000
  C   C14       1.0  0.5205579307436353  0.48176047495414315  0.8291584112321146  1.0000
  C   C15       1.0  0.5240799168632791  0.48048722925076254  0.753120142568619  1.0000
  C   C16       1.0  0.4660781904368818  0.528355223914467  0.250944951436594  1.0000
  C   C17       1.0  0.38017467888310114  0.9479463798261348  0.5205797456297674  1.0000
  C   C18       1.0  0.6059260097014275  0.04818470652945451  0.4784833466850174  1.0000
  C   C19       1.0  0.49475808115244035  0.9052119806171248  0.5061009702691734  1.0000
  C   C20       1.0  0.4913155588457059  0.09097391692236562  0.4928194621340367  1.0000
  C   C21       1.0  0.6033014170863709  0.9529856726626137  0.4850240117068267  1.0000
  C   C22       1.0  0.38267193897831925  0.043138875082142605  0.513753546004331  1.0000
  C   C23       1.0  0.26429386481986933  0.48739321026745597  0.5157615933138047  1.0000
  C   C24       1.0  0.7322257265853479  0.49941386526352727  0.48329558880733  1.0000
  C   C25       1.0  0.5004468271830121  0.8101723753569771  0.5148753585531908  1.0000
  C   C26       1.0  0.488285267386523  0.1861451570216133  0.4850982217965125  1.0000
  C   C27       1.0  0.23540333444265124  0.3044163377645432  0.2805144157078914  1.0000
  C   C28       1.0  0.7775140780845147  0.6749934136241009  0.726972135133053  1.0000
  C   C29       1.0  0.1836511548152089  0.37609395461412026  0.3260756620288063  1.0000
  C   C30       1.0  0.8236599283762018  0.6049489850844836  0.6764771508983998  1.0000
  C   C31       1.0  0.1231237703172781  0.3566536685201456  0.4016588381895261  1.0000
  C   C32       1.0  0.872586346361352  0.628150598517337  0.5976385461042995  1.0000
  C   C33       1.0  0.1136317832375937  0.26631817019998044  0.43078913774755984  1.0000
  C   C34       1.0  0.8733528945419949  0.7190047775302516  0.5695937984536242  1.0000
  C   C35       1.0  0.1553657357175027  0.19465875087662002  0.3819076419241085  1.0000
  C   C36       1.0  0.8286253207873457  0.7881748377230408  0.6199909324469317  1.0000
  C   C37       1.0  0.21335947549394524  0.21492129743327845  0.3071673256153887  1.0000
  C   C38       1.0  0.779872649137893  0.7643158712280711  0.6968296023943878  1.0000
  C   C39       1.0  0.9356663601253744  0.436932769479384  0.44025936879106103  1.0000
  C   C40       1.0  0.061084213997496306  0.5514109782908533  0.556003154395782  1.0000
  C   C41       1.0  0.1612651298093581  0.9388904365653516  0.5623953788685654  1.0000
  C   C42       1.0  0.8275773099477634  0.056507597515484106  0.44413310130193645  1.0000
  C   C43       1.0  0.4387197292370145  0.2948519572386631  0.21822229629789544  1.0000
  C   C44       1.0  0.785921968624102  0.6796780242688244  0.8810487477098263  1.0000
  C   C45       1.0  0.1243149282733782  0.4894010440779653  0.2224450891935206  1.0000
  C   C46       1.0  0.8715494954835421  0.4817927609990634  0.7762985234004773  1.0000
  N   N1        1.0  0.4921935248296805  0.2647821066447378  0.4768067300373175  1.0000
  N   N2        1.0  0.5023600401082433  0.7317480526179806  0.5239830359362116  1.0000
  N   N3        1.0  0.2757165747503052  0.8985117173067537  0.5380629469428159  1.0000
  N   N4        1.0  0.710570683658453  0.09722081134638931  0.4612350176447393  1.0000
  N   N5        1.0  0.30654174282416596  0.3147133361348935  0.20759144269795368  1.0000
  N   N6        1.0  0.7142748846370139  0.6642135696218219  0.8034432536970968  1.0000
  N   N7        1.0  0.1959913769545025  0.46626300351981337  0.2970636874276522  1.0000
  N   N8        1.0  0.8144120241656765  0.5130296065927241  0.6990936333240255  1.0000
  O   O1        1.0  0.5304600666239098  0.5609108634665817  0.6307486250118544  1.0000
  O   O2        1.0  0.4817150621110784  0.4471642252848867  0.37292391604535874  1.0000
  O   O3        1.0  0.5190912182911304  0.40531166776028726  0.6254070152003236  1.0000
  O   O4        1.0  0.4629095741037972  0.6012936536035624  0.379615738143336  1.0000
  O   O5        1.0  0.3190148802135014  0.5648454051620534  0.5185518447597134  1.0000
  O   O6        1.0  0.6803670112331375  0.4214354666825387  0.4908560432656587  1.0000
  O   O7        1.0  0.314113776338921  0.4101978252069926  0.5141410909089004  1.0000
  O   O8        1.0  0.680125487925693  0.575354741592726  0.4772345009903276  1.0000
  O   O9        1.0  0.2496137092696742  0.14198365905518529  0.2599461014420257  1.0000
  O   O10       1.0  0.7237046939841106  0.8307823045481089  0.741578540451755  1.0000
  O   O11       1.0  0.06073921510962071  0.2447256859922078  0.5054928753399963  1.0000
  O   O12       1.0  0.9176376897931746  0.7430007565630062  0.49309708586837075  1.0000
  O   O13       1.0  0.13869546466895596  0.10544888459211418  0.4064966301861475  1.0000
  O   O14       1.0  0.8261748612679372  0.8770130440142836  0.5928025486097185  1.0000
  O   O15       1.0  0.8743690767308437  0.38379380119230433  0.3819017724201856  1.0000
  O   O16       1.0  0.12079739191698746  0.604239966093097  0.6151198859192419  1.0000
  O   O17       1.0  0.31116639010636504  0.5616200567285078  0.8914073664807988  1.0000
  O   O18       1.0  0.6718094312114219  0.44854336733159533  0.11258079736964528  1.0000
