data_image0
_chemical_formula_structural       Zn2H46C46N2O14
_chemical_formula_sum              "Zn2 H46 C46 N2 O14"
_cell_length_a       10.813876233729518
_cell_length_b       13.913262602375932
_cell_length_c       15.280504554278465
_cell_angle_alpha    90.03070433490603
_cell_angle_beta     90.07109936083464
_cell_angle_gamma    90.79624019460735

_space_group_name_H-M_alt    "P 1"
_space_group_IT_number       1

loop_
  _space_group_symop_operation_xyz
  'x, y, z'

loop_
  _atom_site_type_symbol
  _atom_site_label
  _atom_site_symmetry_multiplicity
  _atom_site_fract_x
  _atom_site_fract_y
  _atom_site_fract_z
  _atom_site_occupancy
  Zn  Zn1       1.0  0.5056244180034568  0.4015073919150112  0.49420191808359704  1.0000
  Zn  Zn2       1.0  0.5019553439533624  0.5998878078260717  0.4959932750838476  1.0000
  H   H1        1.0  0.40246657391391244  0.3491898269907169  0.9325668820216253  1.0000
  H   H2        1.0  0.3743998418671595  0.6370583782924585  0.05980116899097961  1.0000
  H   H3        1.0  0.5395961112609626  0.35732824291674353  0.0505027767756729  1.0000
  H   H4        1.0  0.5040825957752091  0.6494614566340645  0.9384466479944253  1.0000
  H   H5        1.0  0.42001389402255274  0.3505402410692256  0.7693922773048458  1.0000
  H   H6        1.0  0.3990902413766975  0.6383780664071639  0.22256689963548135  1.0000
  H   H7        1.0  0.5577914017054723  0.35839846126553715  0.21364001928572665  1.0000
  H   H8        1.0  0.517978376700725  0.6496450711389771  0.7751620933880121  1.0000
  H   H9        1.0  0.6977379291879231  0.9345265520523754  0.5319391027765121  1.0000
  H   H10       1.0  0.30977639803078466  0.06813201731709032  0.531147462559133  1.0000
  H   H11       1.0  0.3095694576248746  0.9293423815730152  0.4616444072418561  1.0000
  H   H12       1.0  0.6971325391438015  0.07128647667434511  0.4593181249841508  1.0000
  H   H13       1.0  0.6916009582592083  0.7544766933117445  0.5264304372799131  1.0000
  H   H14       1.0  0.31663050934145076  0.24806970142087445  0.5234943631712597  1.0000
  H   H15       1.0  0.3184830377083189  0.7493291420958811  0.4662806087058372  1.0000
  H   H16       1.0  0.6890454083623822  0.251367323674998  0.4618154985964439  1.0000
  H   H17       1.0  0.9553688305868491  0.5754720373407027  0.7287893551074234  1.0000
  H   H18       1.0  0.9854697531288467  0.6906437623772705  0.6826270006225672  1.0000
  H   H19       1.0  0.1811586079620824  0.7052055133721779  0.773088074128687  1.0000
  H   H20       1.0  0.04866463491832461  0.6876060786703138  0.8411482286065421  1.0000
  H   H21       1.0  0.150264198180615  0.5905382225820331  0.8196417486843901  1.0000
  H   H22       1.0  0.025274959263384703  0.3113957464531297  0.32586395255362544  1.0000
  H   H23       1.0  0.04865423489737  0.42611612752470046  0.2772737802030393  1.0000
  H   H24       1.0  0.8508394404195132  0.40399226754492185  0.1904104691577828  1.0000
  H   H25       1.0  0.9570264981426675  0.31028641392890677  0.16781764142207584  1.0000
  H   H26       1.0  0.8281489990862454  0.28893652334897973  0.23842996041336315  1.0000
  H   H27       1.0  0.0453422376178381  0.4295201134213329  0.740497693890035  1.0000
  H   H28       1.0  0.04562110335592  0.32149246301587203  0.6784454799880067  1.0000
  H   H29       1.0  0.8497597302551156  0.266243121240116  0.7534154376686787  1.0000
  H   H30       1.0  0.9667084171358481  0.29315517397250807  0.8326601151514981  1.0000
  H   H31       1.0  0.8451490676504108  0.3757817480225328  0.8130439867292765  1.0000
  H   H32       1.0  0.962241473137958  0.6795221268105253  0.330149790462393  1.0000
  H   H33       1.0  0.959864640836095  0.5702803055402228  0.2699984766577544  1.0000
  H   H34       1.0  0.15685456498430034  0.6210091528730786  0.19266084585313345  1.0000
  H   H35       1.0  0.036394667365868806  0.7050373507954009  0.17499084127879175  1.0000
  H   H36       1.0  0.1573265317487795  0.7314398423401871  0.2512169776912714  1.0000
  H   H37       1.0  0.921857240484883  0.2494519904868326  0.4442222080069556  1.0000
  H   H38       1.0  0.9148443920927891  0.2561057524738501  0.5602773948122889  1.0000
  H   H39       1.0  0.0828887430918428  0.1329959372741101  0.5718106880218343  1.0000
  H   H40       1.0  0.9560485258277465  0.08691843361517472  0.5095962451983809  1.0000
  H   H41       1.0  0.092485459302047  0.1280101474112385  0.4551753455047135  1.0000
  H   H42       1.0  0.08135353203131498  0.7518075768872948  0.4414655733219349  1.0000
  H   H43       1.0  0.0957873837320804  0.7436541960366797  0.5571159659442985  1.0000
  H   H44       1.0  0.9270837036213282  0.8656137367654537  0.5749482884520491  1.0000
  H   H45       1.0  0.0505396777634814  0.9134205045526897  0.5106134225496888  1.0000
  H   H46       1.0  0.9116855029628326  0.8727657899776704  0.4587551847613512  1.0000
  C   C1        1.0  0.4881453271396836  0.4993509858215006  0.6657420269641037  1.0000
  C   C2        1.0  0.49714735544907285  0.5009679440324818  0.3246776665730664  1.0000
  C   C3        1.0  0.6117644773044475  0.8969498791570488  0.5154439532172008  1.0000
  C   C4        1.0  0.395748735421421  0.1052070337102009  0.5139445607533872  1.0000
  C   C5        1.0  0.39582153997751846  0.8941465177869575  0.4783852358859947  1.0000
  C   C6        1.0  0.611258981450412  0.10698267311099133  0.4759838960808481  1.0000
  C   C7        1.0  0.609140881559874  0.7970523492408647  0.5142262282895943  1.0000
  C   C8        1.0  0.39872089740530475  0.20505843601335275  0.5114808424492168  1.0000
  C   C9        1.0  0.3997988398126964  0.7944460460587167  0.4795224461960714  1.0000
  C   C10       1.0  0.6076699847799532  0.20670419952185173  0.4759027243386883  1.0000
  C   C11       1.0  0.5036834366661083  0.9478309720024427  0.4967800501010161  1.0000
  C   C12       1.0  0.5035686484970583  0.05383233439267342  0.4958035506372057  1.0000
  C   C13       1.0  0.7419919564673664  0.5046800829331843  0.5017469556979324  1.0000
  C   C14       1.0  0.26499152869385506  0.4959756190620724  0.49687172160149373  1.0000
  C   C15       1.0  0.9581892433017386  0.4556335082933529  0.5775862099151041  1.0000
  C   C16       1.0  0.0485235809359352  0.544536737812578  0.43039094685284607  1.0000
  C   C17       1.0  0.037718115844406  0.40416128929266654  0.5037769973857849  1.0000
  C   C18       1.0  0.9696566858035922  0.5959159423631419  0.5043762516467183  1.0000
  C   C19       1.0  0.0520491162686127  0.5445419968113542  0.5767801387864468  1.0000
  C   C20       1.0  0.9558803816326674  0.4553424382500424  0.4311871415458058  1.0000
  C   C21       1.0  0.12769224635194118  0.49321437377222566  0.5030354485671398  1.0000
  C   C22       1.0  0.879577435184501  0.5068364372883707  0.5052904405641743  1.0000
  C   C23       1.0  0.42910429610574846  0.4150763029678971  0.8983307399747603  1.0000
  C   C24       1.0  0.4165050379278128  0.5763336043953586  0.09313571193882812  1.0000
  C   C25       1.0  0.5062480298172645  0.41834588879191864  0.08816800307948823  1.0000
  C   C26       1.0  0.4832542859020847  0.5840927959502126  0.9014890000040412  1.0000
  C   C27       1.0  0.4379484085182525  0.41547065413695355  0.8075251178580914  1.0000
  C   C28       1.0  0.42922685865422494  0.5773401072437067  0.18372859189986462  1.0000
  C   C29       1.0  0.5179727118349504  0.41893341661781147  0.1788263406398301  1.0000
  C   C30       1.0  0.4922667467993236  0.5845357722696035  0.8107300516538984  1.0000
  C   C31       1.0  0.4716880653285713  0.4998480160705654  0.7630130715871318  1.0000
  C   C32       1.0  0.4810885954197772  0.49900638046450757  0.22732824574017496  1.0000
  C   C33       1.0  0.45389626209756534  0.4989820426943084  0.9470769661533256  1.0000
  C   C34       1.0  0.45660797853516744  0.4974474165526176  0.043560726083612215  1.0000
  C   C35       1.0  0.029742120687352307  0.6271659080369505  0.7117750351345438  1.0000
  C   C36       1.0  0.10697366315625352  0.6542375730381097  0.7910497507520095  1.0000
  C   C37       1.0  0.9771684690128168  0.3728638676590776  0.2962710006940768  1.0000
  C   C38       1.0  0.8987315514197363  0.34218998792768224  0.2186923350621087  1.0000
  C   C39       1.0  0.9851617092580652  0.37283785016001064  0.7122289601767592  1.0000
  C   C40       1.0  0.9071252755946234  0.3240660834765309  0.7819407483968136  1.0000
  C   C41       1.0  0.021312784441185804  0.6271797073669989  0.2964153827738016  1.0000
  C   C42       1.0  0.09752197069585118  0.6739126421507533  0.22466411440143472  1.0000
  C   C43       1.0  0.9766348499201739  0.2411550308278478  0.5046945673062597  1.0000
  C   C44       1.0  0.030504010318175304  0.14148611848682444  0.5106775071145151  1.0000
  C   C45       1.0  0.030419276056044  0.759117510891727  0.5036246271631557  1.0000
  C   C46       1.0  0.9765211912943457  0.8585425788944362  0.5125180268897724  1.0000
  N   N1        1.0  0.5045623883315571  0.7470871805613796  0.4968483914600412  1.0000
  N   N2        1.0  0.503345574129952  0.25448362227832183  0.49328703583845634  1.0000
  O   O1        1.0  0.47049977771681734  0.4194762899183147  0.6264685406060624  1.0000
  O   O2        1.0  0.4775958692836895  0.580627381481726  0.3630637410377062  1.0000
  O   O3        1.0  0.5290173560377696  0.42298143162966545  0.3615222357843066  1.0000
  O   O4        1.0  0.5192885203315569  0.5786006051336796  0.6297154963965  1.0000
  O   O5        1.0  0.6910319929112205  0.42289351092319544  0.5142090568295218  1.0000
  O   O6        1.0  0.3153275059273568  0.577727959824635  0.510824264855799  1.0000
  O   O7        1.0  0.31886871868124433  0.4186211781120406  0.4766692117190844  1.0000
  O   O8        1.0  0.688273410721763  0.5830655875437997  0.48466530505986344  1.0000
  O   O9        1.0  0.11182136404350018  0.5846830544521142  0.6483458760697618  1.0000
  O   O10       1.0  0.8950846390242476  0.41463801005640744  0.3602737949608823  1.0000
  O   O11       1.0  0.9009567979405875  0.41471116834244276  0.6497348897656894  1.0000
  O   O12       1.0  0.1065294264484038  0.5858015224896749  0.35866080350056967  1.0000
  O   O13       1.0  0.0781487517334156  0.30969739177937333  0.5041936239378871  1.0000
  O   O14       1.0  0.9292129050294093  0.6903605748994012  0.5054471187619003  1.0000
