data_image0
_chemical_formula_structural       Al6H56C102N14O32
_chemical_formula_sum              "Al6 H56 C102 N14 O32"
_cell_length_a       13.590126529235858
_cell_length_b       13.569776700363326
_cell_length_c       33.57516163639285
_cell_angle_alpha    83.79284582300463
_cell_angle_beta     83.44485840497663
_cell_angle_gamma    63.41815800222681

_space_group_name_H-M_alt    "P 1"
_space_group_IT_number       1

loop_
  _space_group_symop_operation_xyz
  'x, y, z'

loop_
  _atom_site_type_symbol
  _atom_site_label
  _atom_site_symmetry_multiplicity
  _atom_site_fract_x
  _atom_site_fract_y
  _atom_site_fract_z
  _atom_site_occupancy
  Al  Al1       1.0  0.41109061617061127  0.41114756742715036  0.5092141865943915  1.0000
  Al  Al2       1.0  0.6405465971894345  0.42719389808499375  0.49692431643004653  1.0000
  Al  Al3       1.0  0.43212693362665533  0.6385281042228854  0.49798338838270695  1.0000
  Al  Al4       1.0  0.917486151307152  0.9310006265618823  0.98459093924086  1.0000
  Al  Al5       1.0  0.9136270811516667  0.6957211752773489  0.9956310918659382  1.0000
  Al  Al6       1.0  0.6962592810873005  0.898667294121204  0.9965627837297002  1.0000
  H   H1        1.0  0.5692862476184573  0.8462096820402606  0.10665717359731271  1.0000
  H   H2        1.0  0.2889210807744504  0.7753527779003947  0.3940660908626228  1.0000
  H   H3        1.0  0.11271500476897238  0.5529798874025148  0.09198779708382429  1.0000
  H   H4        1.0  0.22403593295150162  0.4941589010631233  0.3327854433573734  1.0000
  H   H5        1.0  0.16709492939475007  0.5276957197696747  0.16268326853093373  1.0000
  H   H6        1.0  0.0428407300396501  0.895236355124858  0.0876661668108554  1.0000
  H   H7        1.0  0.09130112620286471  0.872480986393029  0.15919307564413998  1.0000
  H   H8        1.0  0.7833946949524914  0.2527726592406624  0.3957323854778209  1.0000
  H   H9        1.0  0.45953363406962916  0.266522145645901  0.4086102268538169  1.0000
  H   H10       1.0  0.8468835119531306  0.10188898832753762  0.0804128366667882  1.0000
  H   H11       1.0  0.5463375455929054  0.8224942869188822  0.18163663453353956  1.0000
  H   H12       1.0  0.8018492592013972  0.21320376345924066  0.32331720579023226  1.0000
  H   H13       1.0  0.47729645583860497  0.226882995802491  0.3361439383424951  1.0000
  H   H14       1.0  0.822951191315795  0.15789518742352726  0.1512004598370993  1.0000
  H   H15       1.0  0.5565959723078394  0.04812781967238781  0.10183415159270477  1.0000
  H   H16       1.0  0.5323586138995892  0.10284709115003209  0.17267517143383768  1.0000
  H   H17       1.0  0.45268078725093375  0.7152675671092652  0.6013775453377761  1.0000
  H   H18       1.0  0.8891573503166583  0.5756945023569597  0.896189587753916  1.0000
  H   H19       1.0  0.8191267947278221  0.534500835897383  0.6574496482187157  1.0000
  H   H20       1.0  0.46863914380072913  0.7332418222419789  0.673395356616389  1.0000
  H   H21       1.0  0.8639071158788314  0.5474831924298158  0.8263636429547816  1.0000
  H   H22       1.0  0.5564666395871213  0.8317032265089992  0.9061771782188401  1.0000
  H   H23       1.0  0.5294567267495651  0.8015962892195887  0.836832123374151  1.0000
  H   H24       1.0  0.0582237101385559  0.8809237758953756  0.8736167581511721  1.0000
  H   H25       1.0  0.11000383290995332  0.8517168797796656  0.7999448589599323  1.0000
  H   H26       1.0  0.2498245666553913  0.7895314809156984  0.5989204596348969  1.0000
  H   H27       1.0  0.2559886614543815  0.46902265127400966  0.6175190900153849  1.0000
  H   H28       1.0  0.1557419568526086  0.5152837026721144  0.8220152855577894  1.0000
  H   H29       1.0  0.10291774789948958  0.5462623784126136  0.8952475853612185  1.0000
  H   H30       1.0  0.49376531825353004  0.7866717603010752  0.3889612957957738  1.0000
  H   H31       1.0  0.20690936342153077  0.4966204762675801  0.6910834765590792  1.0000
  H   H32       1.0  0.5451249439674227  0.060896180104727256  0.8952045619598508  1.0000
  H   H33       1.0  0.5135198770154119  0.10924449315777447  0.8220272996064181  1.0000
  H   H34       1.0  0.4490628366922281  0.32196650738976723  0.6159570956082234  1.0000
  H   H35       1.0  0.826452002322057  0.1230699455723182  0.8013720943238809  1.0000
  H   H36       1.0  0.8552305100291592  0.07759032320742408  0.874704472361479  1.0000
  H   H37       1.0  0.8050767747809078  0.12098901333434499  0.6767441594195205  1.0000
  H   H38       1.0  0.7590124222938854  0.45877756595869124  0.3846433351927772  1.0000
  H   H39       1.0  0.8591162411518525  0.531756248326282  0.18060840436857717  1.0000
  H   H40       1.0  0.8818892885916016  0.5580886663993708  0.1059266860396804  1.0000
  H   H41       1.0  0.7833448816937577  0.4856492652383647  0.3103114233092086  1.0000
  H   H42       1.0  0.2649338193963331  0.4681554858046225  0.4053440431158393  1.0000
  H   H43       1.0  0.2876158136811853  0.8156900696521276  0.2845253722840155  1.0000
  H   H44       1.0  0.813448278045321  0.49239044827321277  0.5523639220624686  1.0000
  H   H45       1.0  0.9946537394219491  0.4228201714306011  0.5675543526482726  1.0000
  H   H46       1.0  0.95450003878031  0.527359113068691  0.6020052177362984  1.0000
  H   H47       1.0  0.9493560962591728  0.40005170236113213  0.6180618489514274  1.0000
  H   H48       1.0  0.4404089264175539  0.907003845510559  0.3337312852605407  1.0000
  H   H49       1.0  0.2092871716619342  0.904864765684799  0.6481943495479356  1.0000
  H   H50       1.0  0.3485976886024956  0.3169422487964226  0.673114602269102  1.0000
  H   H51       1.0  0.8873654094885168  0.10053733565470686  0.6169405514031893  1.0000
  H   H52       1.0  0.9454576509748662  0.20642232426597226  0.5654048380876944  1.0000
  H   H53       1.0  0.809400609293398  0.3151991028699399  0.5708150507198013  1.0000
  H   H54       1.0  0.8957398643192037  0.27337492559603055  0.6116643455991094  1.0000
  H   H55       1.0  0.3510300098124404  0.2777898368554119  0.5012149652669748  1.0000
  H   H56       1.0  0.9929580644397192  0.047319400591398074  0.9528290663167168  1.0000
  C   C1        1.0  0.6003209842558589  0.3003963037079628  0.44761931903139635  1.0000
  C   C2        1.0  0.6533267178633083  0.6522271778974156  0.3070639393464205  1.0000
  C   C3        1.0  0.5715159916731806  0.7386324205426504  0.3300396658046266  1.0000
  C   C4        1.0  0.5583265623583742  0.7212319386562599  0.37170777617370726  1.0000
  C   C5        1.0  0.6186532157979343  0.7641621818352036  0.16474505767442335  1.0000
  C   C6        1.0  0.6314022554760044  0.7771623336967507  0.12320495515728419  1.0000
  C   C7        1.0  0.8080102949031415  0.6141200766544089  0.12276514760711166  1.0000
  C   C8        1.0  0.7955256011377188  0.6000175005080662  0.16429485878881417  1.0000
  C   C9        1.0  0.700833678165985  0.675156207063132  0.1859684430969892  1.0000
  C   C10       1.0  0.6874643506386916  0.6636807376191244  0.228336766585528  1.0000
  C   C11       1.0  0.6687247384057073  0.6625386536245372  0.2648359076236915  1.0000
  C   C12       1.0  0.6044996107239982  0.5990604944702156  0.43531556370255226  1.0000
  C   C13       1.0  0.7261972508854909  0.7026530716723728  0.10185807542536199  1.0000
  C   C14       1.0  0.27753288088872813  0.6208607730654875  0.40423740774284056  1.0000
  C   C15       1.0  0.2603625851037492  0.5408737231108345  0.38678487235108605  1.0000
  C   C16       1.0  0.23879965157592412  0.5548679555588052  0.3466144408340597  1.0000
  C   C17       1.0  0.2347755421328799  0.6484467632664277  0.322881239984838  1.0000
  C   C18       1.0  0.2532190351967216  0.7287532460055247  0.3402937677758756  1.0000
  C   C19       1.0  0.2732824122549147  0.7141287391808574  0.3809835669383901  1.0000
  C   C20       1.0  0.1562742930589209  0.6859298512992422  0.2074256502167344  1.0000
  C   C21       1.0  0.2052947412537378  0.6625107372870928  0.2812519454030422  1.0000
  C   C22       1.0  0.13934299872074968  0.6078950524901358  0.1461159376427901  1.0000
  C   C23       1.0  0.3112009261315336  0.599857676931542  0.4462561516049348  1.0000
  C   C24       1.0  0.10984426298909261  0.6217839797019805  0.10687308980342891  1.0000
  C   C25       1.0  0.0700892535191926  0.8155746936122056  0.10463347809521652  1.0000
  C   C26       1.0  0.0973335506974848  0.8026776498763509  0.1440932290140324  1.0000
  C   C27       1.0  0.1314758570217833  0.6987781419856348  0.16525520057851387  1.0000
  C   C28       1.0  0.07446439402509948  0.7257319520713352  0.08605922037325091  1.0000
  C   C29       1.0  0.6199223973974668  0.2625566453190444  0.4062341619699907  1.0000
  C   C30       1.0  0.7171510600823011  0.24638304825570165  0.3824407664979716  1.0000
  C   C31       1.0  0.7274174125994508  0.22449746300120663  0.34226466009319967  1.0000
  C   C32       1.0  0.6400696076359863  0.218944251655273  0.3253522654930804  1.0000
  C   C33       1.0  0.5440916834675277  0.23173094610578465  0.34958800389356526  1.0000
  C   C34       1.0  0.6034638091816972  0.3026178543811611  0.5624090124372287  1.0000
  C   C35       1.0  0.5343832560026485  0.2533615511843763  0.38965522290564536  1.0000
  C   C36       1.0  0.6627832136935864  0.16461237895375547  0.2075901180838144  1.0000
  C   C37       1.0  0.6466880368390805  0.20337708863569745  0.2823211528619679  1.0000
  C   C38       1.0  0.7651300386261611  0.13379341800123962  0.14013304261331425  1.0000
  C   C39       1.0  0.7782402182845092  0.10338945078636627  0.1010159042165952  1.0000
  C   C40       1.0  0.6137876797026961  0.07304487333518486  0.11295337606191677  1.0000
  C   C41       1.0  0.6004940785137621  0.10306016112927097  0.15220734057940888  1.0000
  C   C42       1.0  0.6762739927129716  0.1335062027596975  0.1660958183903105  1.0000
  C   C43       1.0  0.7029320466521085  0.0724898964983466  0.08726126470763519  1.0000
  C   C44       1.0  0.6250829395850417  0.6142270174624117  0.588431331470957  1.0000
  C   C45       1.0  0.6040642625534858  0.5975133895119595  0.5483796025865573  1.0000
  C   C46       1.0  0.7324394851567247  0.5633493992724039  0.6036729183178053  1.0000
  C   C47       1.0  0.7396301394666692  0.5745563071569463  0.6445061523826682  1.0000
  C   C48       1.0  0.6459776862880133  0.6336191709250512  0.6693499902687634  1.0000
  C   C49       1.0  0.5411233919776706  0.6871564618114262  0.6538130967008726  1.0000
  C   C50       1.0  0.5328390187012246  0.6770140845290625  0.6139175913692083  1.0000
  C   C51       1.0  0.6798599313702455  0.656021409623655  0.7862309482714522  1.0000
  C   C52       1.0  0.6571396078057815  0.6380496254695556  0.7121934912381391  1.0000
  C   C53       1.0  0.7966216939541866  0.608644280281162  0.8441598021228599  1.0000
  C   C54       1.0  0.8105563755117586  0.6239682705100333  0.8829942636743835  1.0000
  C   C55       1.0  0.622628179203133  0.7685814583852205  0.8886853190766643  1.0000
  C   C56       1.0  0.300787146897278  0.6026809638904425  0.5616691506877274  1.0000
  C   C57       1.0  0.6078908763054045  0.7524244535267854  0.8500474316355238  1.0000
  C   C58       1.0  0.6949084188770628  0.6724824012007173  0.8273299107066093  1.0000
  C   C59       1.0  0.7238536852012559  0.7041478928188095  0.9055281704717256  1.0000
  C   C60       1.0  0.2569447433459757  0.6271263789041299  0.6038443878757391  1.0000
  C   C61       1.0  0.24263965066116813  0.5454109695889428  0.6299232141093611  1.0000
  C   C62       1.0  0.21510085580047902  0.5609211856767972  0.6705705642306654  1.0000
  C   C63       1.0  0.1993564843358087  0.6593646271289585  0.6867027451549177  1.0000
  C   C64       1.0  0.20962441468390128  0.7440247626166254  0.6599552760751947  1.0000
  C   C65       1.0  0.2392678047717922  0.7258105643404349  0.6191884192435708  1.0000
  C   C66       1.0  0.10860539074828783  0.7855555192696712  0.821164597476283  1.0000
  C   C67       1.0  0.6252535663994934  0.6211715165092497  0.391688450423885  1.0000
  C   C68       1.0  0.08042294426085311  0.8014895291585517  0.8617421550201527  1.0000
  C   C69       1.0  0.10542008848020862  0.6120518357209619  0.8740995585662006  1.0000
  C   C70       1.0  0.1342227080833283  0.5950535826484681  0.8335188296629068  1.0000
  C   C71       1.0  0.1347330895889698  0.6821946154509603  0.8064902566389447  1.0000
  C   C72       1.0  0.1588413342240074  0.6692906366104975  0.7648696609135115  1.0000
  C   C73       1.0  0.1763779678915043  0.6690564884413844  0.7283766502501408  1.0000
  C   C74       1.0  0.07741146678104371  0.7154674904998898  0.8883806825303536  1.0000
  C   C75       1.0  0.6234395398995077  0.25938735088657683  0.6048934539028534  1.0000
  C   C76       1.0  0.7271247264498797  0.19862992268102173  0.622067790055034  1.0000
  C   C77       1.0  0.7261244197363439  0.16553964833588694  0.6632860458037867  1.0000
  C   C78       1.0  0.7075470643623942  0.5369725528759518  0.36913525658087554  1.0000
  C   C79       1.0  0.6294056102316432  0.19148839511412058  0.6884336731171031  1.0000
  C   C80       1.0  0.5264111853916233  0.24894653118552393  0.6708142101291867  1.0000
  C   C81       1.0  0.5273580099259476  0.27945239658760096  0.6298804117317827  1.0000
  C   C82       1.0  0.5880942738616426  0.10189224701014146  0.8338518750532131  1.0000
  C   C83       1.0  0.6053906991324283  0.07581913820620662  0.8744033721927025  1.0000
  C   C84       1.0  0.7808889083516918  0.08516994411496635  0.8626661066037541  1.0000
  C   C85       1.0  0.7649356095329907  0.11001677398132159  0.8220923402216868  1.0000
  C   C86       1.0  0.6684790756813613  0.11798850482029619  0.807062919519403  1.0000
  C   C87       1.0  0.6534167194709326  0.14146895254586414  0.7656200183424317  1.0000
  C   C88       1.0  0.6379766914265802  0.16388239886348524  0.7299917413062146  1.0000
  C   C89       1.0  0.7209507176239072  0.5519667460707183  0.32770308342193016  1.0000
  C   C90       1.0  0.7020225880483579  0.06673698245720067  0.8890588735321073  1.0000
  C   C91       1.0  0.0323154744810665  0.7456102401092293  0.04543748572218221  1.0000
  C   C92       1.0  0.7448675783729258  0.7238385219846889  0.058008805667988404  1.0000
  C   C93       1.0  0.7252689637247303  0.030298685642485116  0.046461958003867196  1.0000
  C   C94       1.0  0.0351697505128925  0.7390036568536544  0.9307950432427318  1.0000
  C   C95       1.0  0.743188038320291  0.7267811520159383  0.9455246788373727  1.0000
  C   C96       1.0  0.7272728728106799  0.028507950742117275  0.9314247951807957  1.0000
  C   C97       1.0  0.2623960373513654  0.824540313740414  0.3170968043510314  1.0000
  C   C98       1.0  0.9359042835480268  0.462483709920825  0.5927109200315641  1.0000
  C   C99       1.0  0.4984116615730799  0.8479730220967027  0.31159301521275745  1.0000
  C   C100      1.0  0.1904196339832041  0.8520187834620143  0.6729495331080955  1.0000
  C   C101      1.0  0.41858231842498134  0.2791028216969594  0.693142010320507  1.0000
  C   C102      1.0  0.8725422047237076  0.244497024611121  0.5863665898368566  1.0000
  N   N1        1.0  0.1936096037294135  0.5832926351097643  0.22623888674332449  1.0000
  N   N2        1.0  0.7564269914281924  0.5736208832911202  0.7270525711482348  1.0000
  N   N3        1.0  0.5659837506595196  0.7009519933513957  0.7351341878307521  1.0000
  N   N4        1.0  0.5773283960317954  0.7097257288869512  0.772839056564514  1.0000
  N   N5        1.0  0.22129900236912187  0.5711003391136984  0.2632961589398377  1.0000
  N   N6        1.0  0.15706465671728148  0.7663111601387766  0.2639003285980124  1.0000
  N   N7        1.0  0.1353399444359411  0.7778597133995858  0.226035292640951  1.0000
  N   N8        1.0  0.7405652093666931  0.18777249793868825  0.22053742590019706  1.0000
  N   N9        1.0  0.7318647065357881  0.20861962828653446  0.25850713367976397  1.0000
  N   N10       1.0  0.5620965955417957  0.19367321785441757  0.2682103010035277  1.0000
  N   N11       1.0  0.5695046032006985  0.1751917887429784  0.23014099994556858  1.0000
  N   N12       1.0  0.7680626713243585  0.5831731527615956  0.7646222713799347  1.0000
  N   N13       1.0  0.8251899430456433  0.5079047654170734  0.5798619618318098  1.0000
  N   N14       1.0  0.8301866614711814  0.16366224999533321  0.6005980132688933  1.0000
  O   O1        1.0  0.32489706307338645  0.5088708505959046  0.464443849051932  1.0000
  O   O2        1.0  0.6756196061914608  0.5122551258002944  0.5297784249337807  1.0000
  O   O3        1.0  0.5124038645087906  0.6651394740510099  0.5339882819293038  1.0000
  O   O4        1.0  0.32144374542256315  0.6765603623103685  0.5397295344239126  1.0000
  O   O5        1.0  0.49553344535301147  0.49323685657804367  0.5009045167394888  1.0000
  O   O6        1.0  0.8147545700556975  0.018599694893687485  0.0272690115046075  1.0000
  O   O7        1.0  0.008739815918531202  0.8390699724280921  0.027504424532700984  1.0000
  O   O8        1.0  0.018040850102472902  0.6671611708635012  0.03236140897848829  1.0000
  O   O9        1.0  0.8358118353322583  0.6577202022356655  0.04021014049096288  1.0000
  O   O10       1.0  0.6718393248872658  0.8104569116796015  0.04086125031744099  1.0000
  O   O11       1.0  0.6538306206148617  0.003869299549485601  0.03426253941310619  1.0000
  O   O12       1.0  0.5089863406712496  0.31697323743036065  0.4666747126556459  1.0000
  O   O13       1.0  0.8189073646447441  0.01559461562683843  0.9420212525673576  1.0000
  O   O14       1.0  0.010808359509283598  0.8337503857998243  0.9418069697206944  1.0000
  O   O15       1.0  0.021226924245212296  0.6617594331613643  0.9532979653365741  1.0000
  O   O16       1.0  0.8344760853251929  0.661652750923821  0.960499554752843  1.0000
  O   O17       1.0  0.6697995296511151  0.8135780613291672  0.9617317341673157  1.0000
  O   O18       1.0  0.65580673530539  0.006171751452868001  0.9544281724866365  1.0000
  O   O19       1.0  0.8413755255917081  0.8406516688147078  0.9924352615967749  1.0000
  O   O20       1.0  0.6754834543203075  0.31969849347689905  0.4606402660146358  1.0000
  O   O21       1.0  0.6720419434217321  0.5068296867612715  0.4514911260130603  1.0000
  O   O22       1.0  0.517965076392926  0.669681663789582  0.4538428220691415  1.0000
  O   O23       1.0  0.3292756453033903  0.6748463429525488  0.46026662571553345  1.0000
  O   O24       1.0  0.3199474431321719  0.5093419546986055  0.5505612570758842  1.0000
  O   O25       1.0  0.5106747528014425  0.3225362156421383  0.5508546809905609  1.0000
  O   O26       1.0  0.6777647268984239  0.3222122270381861  0.5400306921100793  1.0000
  O   O27       1.0  0.24930686417373246  0.9071002899000646  0.3330506414575112  1.0000
  O   O28       1.0  0.49808807696077656  0.8746447120238299  0.2755705349067696  1.0000
  O   O29       1.0  0.1563290072030057  0.8859188222115932  0.706527573675032  1.0000
  O   O30       1.0  0.4010066166062458  0.2664878755639961  0.7295363376816084  1.0000
  O   O31       1.0  0.32885914289564505  0.34000455931942514  0.517419484957095  1.0000
  O   O32       1.0  0.9895247077096981  0.012221631184111648  0.9792193603404298  1.0000
