data_image0
_chemical_formula_structural       Cd4H40C56N8O16
_chemical_formula_sum              "Cd4 H40 C56 N8 O16"
_cell_length_a       10.590297870912485
_cell_length_b       10.59029421024618
_cell_length_c       18.099262633013563
_cell_angle_alpha    89.99987410781357
_cell_angle_beta     89.99993996502558
_cell_angle_gamma    91.48528701376034

_space_group_name_H-M_alt    "P 1"
_space_group_IT_number       1

loop_
  _space_group_symop_operation_xyz
  'x, y, z'

loop_
  _atom_site_type_symbol
  _atom_site_label
  _atom_site_symmetry_multiplicity
  _atom_site_fract_x
  _atom_site_fract_y
  _atom_site_fract_z
  _atom_site_occupancy
  Cd  Cd1       1.0  0.10917830162649979  0.12948861131317096  0.46286349047952774  1.0000
  Cd  Cd2       1.0  0.8705117104019494  0.8908219975683094  0.5371365081041617  1.0000
  Cd  Cd3       1.0  0.37051211638478787  0.3908197417624633  0.9628637209064691  1.0000
  Cd  Cd4       1.0  0.6091797719038964  0.6294880744177929  0.0371362776784423  1.0000
  H   H1        1.0  0.25127183898965205  0.8625707033485313  0.18637380927818006  1.0000
  H   H2        1.0  0.13742992186327999  0.7487288946113182  0.8136265430572607  1.0000
  H   H3        1.0  0.6374263361132009  0.2487262626763069  0.6863729083014576  1.0000
  H   H4        1.0  0.7512737077757664  0.36257337648325455  0.3136261228204518  1.0000
  H   H5        1.0  0.4659749286133775  0.8371663135939329  0.9465036209304643  1.0000
  H   H6        1.0  0.1628340518178888  0.5340250399917393  0.0534973646652901  1.0000
  H   H7        1.0  0.6628328420226026  0.03402809333799439  0.44650194102310786  1.0000
  H   H8        1.0  0.9659725580615018  0.33716892723769826  0.5534966183386558  1.0000
  H   H9        1.0  0.0831522033045999  0.02656603659675479  0.30632680111227717  1.0000
  H   H10       1.0  0.9734332652764408  0.9168477862808329  0.6936737758418374  1.0000
  H   H11       1.0  0.47343208424549493  0.41684797205685703  0.8063263559965036  1.0000
  H   H12       1.0  0.5831533843365762  0.5265658508228269  0.19367311594021427  1.0000
  H   H13       1.0  0.7584901756624803  0.7775061140388001  0.2820925240487995  1.0000
  H   H14       1.0  0.22249355329324064  0.24151017298711247  0.7179080274790763  1.0000
  H   H15       1.0  0.7224936196618329  0.7415086875685902  0.7820924856568822  1.0000
  H   H16       1.0  0.2584919855541159  0.27750480675610584  0.2179080658722086  1.0000
  H   H17       1.0  0.9677698409439516  0.8973221416530985  0.08981106817617497  1.0000
  H   H18       1.0  0.10267704112506239  0.03222961612761569  0.910189513440116  1.0000
  H   H19       1.0  0.6026755875074697  0.5322307077541096  0.5898107912742745  1.0000
  H   H20       1.0  0.46776941830183466  0.39732384272888055  0.41018923783210676  1.0000
  H   H21       1.0  0.0989624321126357  0.04992959693683469  0.0518860288767229  1.0000
  H   H22       1.0  0.9500703821396002  0.9010365123826102  0.9481145455375781  1.0000
  H   H23       1.0  0.45006873795880153  0.40103858660309993  0.5518861736458192  1.0000
  H   H24       1.0  0.598961264050125  0.549932183951441  0.4481132957489535  1.0000
  H   H25       1.0  0.22591884218363137  0.14550694943295636  0.08121198456878889  1.0000
  H   H26       1.0  0.8544923136045598  0.7740804753337539  0.9187880478899545  1.0000
  H   H27       1.0  0.3544906144315974  0.27408243841475866  0.5812117891547856  1.0000
  H   H28       1.0  0.7259186736813987  0.6455096677799331  0.4187871382841236  1.0000
  H   H29       1.0  0.4113727509384333  0.7004485801500305  0.15892854744987514  1.0000
  H   H30       1.0  0.2995535976068737  0.5886291020786983  0.8410724657605542  1.0000
  H   H31       1.0  0.7995491187551168  0.08862655396478657  0.6589270920349717  1.0000
  H   H32       1.0  0.9113736236905154  0.20045112907893528  0.34107204745382086  1.0000
  H   H33       1.0  0.3084477557149584  0.007618577393969901  0.9658397991654154  1.0000
  H   H34       1.0  0.99238183404038  0.6915517170961604  0.0341603074218568  1.0000
  H   H35       1.0  0.4923803667667528  0.19155413143851513  0.46583914389746883  1.0000
  H   H36       1.0  0.8084454618851566  0.5076198597314984  0.5341598576711845  1.0000
  H   H37       1.0  0.17805134433518077  0.10718661115935647  0.20510602161334646  1.0000
  H   H38       1.0  0.8928129902859111  0.8219482048517787  0.7948940076343192  1.0000
  H   H39       1.0  0.3928119947707743  0.3219478298681864  0.7051062964749093  1.0000
  H   H40       1.0  0.678051395282715  0.607186965951115  0.29489318026436  1.0000
  C   C1        1.0  0.03483217073641501  0.977767821937064  0.1941138961360167  1.0000
  C   C2        1.0  0.022231687589020104  0.9651670178488626  0.8058863446673215  1.0000
  C   C3        1.0  0.5222290490598097  0.4651681542206701  0.6941140035770275  1.0000
  C   C4        1.0  0.5348321606090211  0.4777695396580339  0.3058854685199464  1.0000
  C   C5        1.0  0.9049365903890987  0.8975741632701709  0.3845275136203057  1.0000
  C   C6        1.0  0.10242453342840462  0.09506314473609476  0.6154730467796199  1.0000
  C   C7        1.0  0.6024253565710113  0.5950622356656009  0.8845277295172024  1.0000
  C   C8        1.0  0.4049376520907302  0.3975741683641017  0.11547283088272312  1.0000
  C   C9        1.0  0.8582084398676173  0.827251969534345  0.18153090585677484  1.0000
  C   C10       1.0  0.1727470846924746  0.1417910078565683  0.8184691099694986  1.0000
  C   C11       1.0  0.6727464036487377  0.6417917720745265  0.6815315625809006  1.0000
  C   C12       1.0  0.35820912520283343  0.32725214967766886  0.3184690057534567  1.0000
  C   C13       1.0  0.2959032667880593  0.860109504494069  0.132231259901296  1.0000
  C   C14       1.0  0.13989139167716053  0.7040966418788839  0.8677691082724123  1.0000
  C   C15       1.0  0.6398879117465343  0.20409515949380352  0.6322309516687026  1.0000
  C   C16       1.0  0.7959040851865994  0.36011100788597616  0.3677680952917726  1.0000
  C   C17       1.0  0.41478876964198  0.845847052338527  0.9985377951343892  1.0000
  C   C18       1.0  0.15415371331588548  0.5852116666355726  0.0014626178182766  1.0000
  C   C19       1.0  0.6541523973612087  0.08521263405671677  0.4985366271811031  1.0000
  C   C20       1.0  0.9147874369405783  0.3458489390112048  0.5014624645564963  1.0000
  C   C21       1.0  0.7737083829372863  0.7462732582669743  0.1338898168591101  1.0000
  C   C22       1.0  0.2537260865479284  0.22629211725311646  0.8661101977821204  1.0000
  C   C23       1.0  0.7537245545641796  0.7262939861893115  0.6338908682029114  1.0000
  C   C24       1.0  0.27370803436776475  0.2462732376675731  0.3661102514550976  1.0000
  C   C25       1.0  0.018480490386906502  0.9721811878407322  0.2713689857502004  1.0000
  C   C26       1.0  0.027818039056931795  0.9815185984014216  0.7286312514328799  1.0000
  C   C27       1.0  0.5278161959352731  0.481518517823531  0.7713690722599509  1.0000
  C   C28       1.0  0.5184815654036825  0.47218227417145187  0.22863094872606382  1.0000
  C   C29       1.0  0.8378392766195616  0.8294244519342868  0.2577760058089495  1.0000
  C   C30       1.0  0.1705739346238815  0.16216076757689984  0.7422245549448121  1.0000
  C   C31       1.0  0.6705731063145349  0.6621602984820069  0.7577760926630858  1.0000
  C   C32       1.0  0.33784010492890815  0.3294249210291794  0.2422244680906687  1.0000
  C   C33       1.0  0.956064141907177  0.9004824917533367  0.14951350194106536  1.0000
  C   C34       1.0  0.09951624446972572  0.043935322422328185  0.8504870746757334  1.0000
  C   C35       1.0  0.5995165680344884  0.5439362281751412  0.6495132168855163  1.0000
  C   C36       1.0  0.45606477149505054  0.40048349491912905  0.3504868072210598  1.0000
  C   C37       1.0  0.2665187576740706  0.9486347336633189  0.077968227786485  1.0000
  C   C38       1.0  0.051365951012996916  0.7334811262468363  0.9220315482241404  1.0000
  C   C39       1.0  0.5513654151245647  0.2334817988101889  0.5779674234707528  1.0000
  C   C40       1.0  0.7665185254581389  0.44863506685384624  0.4220315838341122  1.0000
  C   C41       1.0  0.9206966576800398  0.9003767242144247  0.30277058512837834  1.0000
  C   C42       1.0  0.09962329610300462  0.07930366425011927  0.6972288746111346  1.0000
  C   C43       1.0  0.599620498573998  0.5793039286085387  0.8027713712446526  1.0000
  C   C44       1.0  0.4206966257961754  0.4003773436386381  0.1972286410038606  1.0000
  C   C45       1.0  0.17649794971772081  0.05485424367402911  0.0925324090031481  1.0000
  C   C46       1.0  0.9451458218949684  0.8235011244360989  0.907467637322263  1.0000
  C   C47       1.0  0.44514503747770817  0.3235011760825656  0.5925326324506627  1.0000
  C   C48       1.0  0.6764987384275045  0.554855136390941  0.4074668613654352  1.0000
  C   C49       1.0  0.3846635831824016  0.7691550276049384  0.11720415964823869  1.0000
  C   C50       1.0  0.23084623025084028  0.6153372384885784  0.8827962689650233  1.0000
  C   C51       1.0  0.7308437316517028  0.11533772197170578  0.6172032968111693  1.0000
  C   C52       1.0  0.8846634331254676  0.2691573982156257  0.3827958105870195  1.0000
  C   C53       1.0  0.3271145150662846  0.9392789003761306  0.009359342733382897  1.0000
  C   C54       1.0  0.0607213115722161  0.6728850787177479  0.9906404568031418  1.0000
  C   C55       1.0  0.5607199597703599  0.1728859911001308  0.5093591398161834  1.0000
  C   C56       1.0  0.8271141627796584  0.4392808622794107  0.4906398910136645  1.0000
  N   N1        1.0  0.12674268225979554  0.058969765957208174  0.1664448250637633  1.0000
  N   N2        1.0  0.9410302648434837  0.8732566034850109  0.8335552031441225  1.0000
  N   N3        1.0  0.4410293461183557  0.3732573193826453  0.6664444524559414  1.0000
  N   N4        1.0  0.6267426692938544  0.5589718629557792  0.3335544707330271  1.0000
  N   N5        1.0  0.4439666581500319  0.7621530041778114  0.05163462381366199  1.0000
  N   N6        1.0  0.23784911029643752  0.5560336583202242  0.9483658270988611  1.0000
  N   N7        1.0  0.7378457943764971  0.056035314466228704  0.5516343633867036  1.0000
  N   N8        1.0  0.9439663894292637  0.2621560706563598  0.4483653188185314  1.0000
  O   O1        1.0  0.6806410522629351  0.6861071086080628  0.1632396988808864  1.0000
  O   O2        1.0  0.31389193567820683  0.3193577150265908  0.8367608572051848  1.0000
  O   O3        1.0  0.8138875321213987  0.8193631896039334  0.6632411565289118  1.0000
  O   O4        1.0  0.18064264786636391  0.18610723962395778  0.3367605045717994  1.0000
  O   O5        1.0  0.9915510840983474  0.946494775115731  0.42712256072669413  1.0000
  O   O6        1.0  0.05350656892796479  0.008450494163355398  0.5728769073307446  1.0000
  O   O7        1.0  0.5535063676271648  0.5084494034715447  0.9271229059397541  1.0000
  O   O8        1.0  0.4915503279550321  0.4464930125276678  0.0728765621198164  1.0000
  O   O9        1.0  0.7958975146409203  0.7399376663792552  0.0643251016769142  1.0000
  O   O10       1.0  0.26006083269014374  0.20410202114150164  0.9356760275757948  1.0000
  O   O11       1.0  0.7600660388398595  0.7041033507030504  0.5643261681461595  1.0000
  O   O12       1.0  0.29589798448339616  0.23993834669862923  0.4356755136121961  1.0000
  O   O13       1.0  0.8070023568501768  0.845300999507934  0.4125182206600896  1.0000
  O   O14       1.0  0.15469969171664394  0.19299868134653755  0.5874817718733211  1.0000
  O   O15       1.0  0.6546985689430188  0.6929966814493865  0.912517740731161  1.0000
  O   O16       1.0  0.30700252647220344  0.3453010904885828  0.08748169929507549  1.0000
