data_image0
_chemical_formula_structural       Ni4H48C60N4O16
_chemical_formula_sum              "Ni4 H48 C60 N4 O16"
_cell_length_a       9.512247498447492
_cell_length_b       18.24470183604459
_cell_length_c       18.57789553300573
_cell_angle_alpha    90.00000986916781
_cell_angle_beta     96.6041830213678
_cell_angle_gamma    90.00025008152106

_space_group_name_H-M_alt    "P 1"
_space_group_IT_number       1

loop_
  _space_group_symop_operation_xyz
  'x, y, z'

loop_
  _atom_site_type_symbol
  _atom_site_label
  _atom_site_symmetry_multiplicity
  _atom_site_fract_x
  _atom_site_fract_y
  _atom_site_fract_z
  _atom_site_occupancy
  Ni  Ni1       1.0  0.31286230420542444  0.7500000753244224  0.7449300083486889  1.0000
  Ni  Ni2       1.0  0.6871376599555746  0.25000105338685336  0.2550708582993977  1.0000
  Ni  Ni3       1.0  0.5668301434352684  0.7500003638816753  0.744863919013696  1.0000
  Ni  Ni4       1.0  0.433169830252254  0.25000021672533984  0.2551374864476159  1.0000
  H   H1        1.0  0.2903841586778597  0.934592283685163  0.903118635469319  1.0000
  H   H2        1.0  0.7096110023065236  0.4345949276732171  0.09688039194981  1.0000
  H   H3        1.0  0.7096177981196518  0.06540884502773281  0.096875341546756  1.0000
  H   H4        1.0  0.2903805815908597  0.5654116820722026  0.9031248642515736  1.0000
  H   H5        1.0  0.20447136006414718  0.9133202263119744  0.5716061071225624  1.0000
  H   H6        1.0  0.7955321235999762  0.41332531970159186  0.4283955212568102  1.0000
  H   H7        1.0  0.795551809480436  0.0866776137994307  0.42839171338243903  1.0000
  H   H8        1.0  0.20445204296597544  0.5866785495136853  0.571608793832219  1.0000
  H   H9        1.0  0.21134548695498268  0.03153003316892721  0.9846111506036622  1.0000
  H   H10       1.0  0.7886557975220327  0.5315316447565979  0.015390282836570209  1.0000
  H   H11       1.0  0.7886576805530935  0.9684694512331761  0.015391504897550598  1.0000
  H   H12       1.0  0.2113431083901389  0.4684711282664512  0.9846105263409086  1.0000
  H   H13       1.0  0.8069656886842936  0.701495586119357  0.6354438117519976  1.0000
  H   H14       1.0  0.19303174511842514  0.20149491364536232  0.3645569078859553  1.0000
  H   H15       1.0  0.1930332171974811  0.29850006154745057  0.3645569974231293  1.0000
  H   H16       1.0  0.8069629182041211  0.7984990897035759  0.6354431325906233  1.0000
  H   H17       1.0  0.05740693830919949  0.7985442789919264  0.6374370020453384  1.0000
  H   H18       1.0  0.9425881487395386  0.2985425689500901  0.3625636093396595  1.0000
  H   H19       1.0  0.9425855989985267  0.20145575350212397  0.3625623846775312  1.0000
  H   H20       1.0  0.05741177730135401  0.7014574635522877  0.6374351020544253  1.0000
  H   H21       1.0  0.6587871692670076  0.9104053782719395  0.6002379946363519  1.0000
  H   H22       1.0  0.34121622281890746  0.4104088858185406  0.399759860121577  1.0000
  H   H23       1.0  0.34123193877133673  0.08959191373140381  0.399769294625223  1.0000
  H   H24       1.0  0.658770889828972  0.5895966277118706  0.600231695859641  1.0000
  H   H25       1.0  0.7308356020856408  0.8782284769863227  0.9159963489891112  1.0000
  H   H26       1.0  0.26916227182456953  0.3782301176794363  0.0840038912066987  1.0000
  H   H27       1.0  0.26916761304335063  0.12176552637283322  0.084009000577332  1.0000
  H   H28       1.0  0.7308322866922196  0.6217666261904643  0.9159902223232875  1.0000
  H   H29       1.0  0.20581306723016005  0.008225679670680098  0.4746822637517099  1.0000
  H   H30       1.0  0.79419117413876  0.5082306874318121  0.5253182490692936  1.0000
  H   H31       1.0  0.7942154126536848  0.9917727085512098  0.5253169217360353  1.0000
  H   H32       1.0  0.20578765351304898  0.4917753741944253  0.4746830845976717  1.0000
  H   H33       1.0  0.8283776116143854  0.8639504544120129  0.747237231803183  1.0000
  H   H34       1.0  0.17162122731288318  0.3639508086699976  0.25276467286408894  1.0000
  H   H35       1.0  0.171618071857921  0.13604574135518996  0.25276071089163576  1.0000
  H   H36       1.0  0.8283767060774566  0.6360459352048056  0.7472409281609202  1.0000
  H   H37       1.0  0.8457106769181735  0.8156411146626328  0.830264900978797  1.0000
  H   H38       1.0  0.1542898377594142  0.3156414140704556  0.169735470252256  1.0000
  H   H39       1.0  0.15428500656113897  0.1843567254175583  0.16973304171656173  1.0000
  H   H40       1.0  0.8457164854631429  0.6843591665437998  0.8302662800359428  1.0000
  H   H41       1.0  0.09442408719779388  0.8163379980396501  0.8323833336800632  1.0000
  H   H42       1.0  0.9055753656411625  0.31633835999279114  0.16761644172717646  1.0000
  H   H43       1.0  0.9055716439211351  0.18365874583219013  0.1676173030819754  1.0000
  H   H44       1.0  0.09442768749957509  0.683656191469652  0.8323797480115047  1.0000
  H   H45       1.0  0.07882330302679459  0.8640992353952442  0.7489668887355095  1.0000
  H   H46       1.0  0.9211754990523461  0.3640991002311367  0.2510328607763341  1.0000
  H   H47       1.0  0.921173505415048  0.1358997008952301  0.25103488312522165  1.0000
  H   H48       1.0  0.07882115692542159  0.6358992879540395  0.7489602900696825  1.0000
  C   C1        1.0  0.4745596640579207  0.8469215562370213  0.844263524791856  1.0000
  C   C2        1.0  0.5254379427376462  0.3469221483486253  0.1557366947059791  1.0000
  C   C3        1.0  0.5254466972520148  0.15307244712557386  0.1557403807478082  1.0000
  C   C4        1.0  0.47455033294377097  0.6530740474101295  0.8442608456907977  1.0000
  C   C5        1.0  0.5065194524200151  0.9016366605224633  0.9037615660410836  1.0000
  C   C6        1.0  0.4934786307348276  0.40163771703100803  0.0962392284435651  1.0000
  C   C7        1.0  0.4934837055568693  0.09836227577525142  0.09624055064653451  1.0000
  C   C8        1.0  0.5065118091282841  0.5983645078780525  0.9037611209645464  1.0000
  C   C9        1.0  0.39890422714069723  0.9427355952655888  0.9279105748327438  1.0000
  C   C10       1.0  0.6010921187478787  0.44273743992817316  0.0720917483214194  1.0000
  C   C11       1.0  0.6010988641411857  0.0572649853446805  0.0720877701615592  1.0000
  C   C12       1.0  0.39890160070955016  0.5572669774024847  0.9279147004483547  1.0000
  C   C13       1.0  0.30340189440738635  0.9344848376665953  0.5556025023918565  1.0000
  C   C14       1.0  0.6966017412476972  0.4344902573274113  0.4443975235397489  1.0000
  C   C15       1.0  0.6966170516450348  0.0655135505443667  0.44439562704214103  1.0000
  C   C16       1.0  0.3033855429243176  0.5655163524127573  0.5556037310831812  1.0000
  C   C17       1.0  0.3202298758194431  0.038481125131824015  0.009404705188259805  1.0000
  C   C18       1.0  0.6797630019242007  0.5384843152177298  0.9905962730788076  1.0000
  C   C19       1.0  0.6797732345131493  0.9615178111655925  0.9905947174323232  1.0000
  C   C20       1.0  0.3202210884085446  0.46151900589273964  0.009403731502772003  1.0000
  C   C21       1.0  0.4282354057009811  0.9951020691980762  0.9838643709000721  1.0000
  C   C22       1.0  0.5717666592080661  0.49510602920986474  0.016137196604248106  1.0000
  C   C23       1.0  0.5717655690715661  0.004899059514102101  0.01613385915212011  1.0000
  C   C24       1.0  0.4282312265824118  0.5049011286468215  0.9838657103571719  1.0000
  C   C25       1.0  0.42989364873360364  0.8491111640039366  0.6481315034376749  1.0000
  C   C26       1.0  0.5701060265679487  0.3491151827731472  0.3518650607573264  1.0000
  C   C27       1.0  0.5701116162448087  0.15089215713074117  0.3518701893802856  1.0000
  C   C28       1.0  0.42988327883651317  0.6508936193861318  0.6481309206745396  1.0000
  C   C29       1.0  0.4325358863022969  0.9065546874603432  0.5910966712485575  1.0000
  C   C30       1.0  0.5674685311852841  0.40655816274890816  0.4089012384347441  1.0000
  C   C31       1.0  0.5674810290075242  0.09344589316605582  0.40890619256454397  1.0000
  C   C32       1.0  0.43252074562325055  0.5934484469928735  0.5910931265561743  1.0000
  C   C33       1.0  0.5605175374814948  0.9322499619317454  0.5724182205141801  1.0000
  C   C34       1.0  0.4394828757467266  0.43225424607253876  0.4275800150858586  1.0000
  C   C35       1.0  0.4395078724499371  0.06774787818286401  0.4275867195074313  1.0000
  C   C36       1.0  0.56049367340281  0.5677518155502457  0.5724120438108643  1.0000
  C   C37       1.0  0.6483605419146627  0.9114999620054365  0.9357272032428626  1.0000
  C   C38       1.0  0.35163765397187763  0.4114990459223691  0.0642752142021905  1.0000
  C   C39       1.0  0.35164055672135663  0.08849842618590743  0.06427803138273451  1.0000
  C   C40       1.0  0.6483623006555845  0.5885009865801935  0.9357251136321239  1.0000
  C   C41       1.0  0.3047822905039652  0.9867454855320406  0.5023038178973422  1.0000
  C   C42       1.0  0.6952217719828154  0.48675146008735504  0.4976951649581949  1.0000
  C   C43       1.0  0.6952461798416678  0.013250710272494403  0.49769482877626814  1.0000
  C   C44       1.0  0.3047569984935024  0.5132540534341958  0.5023029358281406  1.0000
  C   C45       1.0  0.5653772397078285  0.9860584602660158  0.5180391865452805  1.0000
  C   C46       1.0  0.4346278465816481  0.4860632916008569  0.4819582368865909  1.0000
  C   C47       1.0  0.4346512782774141  0.013936639330161402  0.48196215419500993  1.0000
  C   C48       1.0  0.5653508762527154  0.5139427700247128  0.5180371698328801  1.0000
  C   C49       1.0  0.8775124279180629  0.8158225682176337  0.7753842348643688  1.0000
  C   C50       1.0  0.12248594320215027  0.3158211612635924  0.22461440510356573  1.0000
  C   C51       1.0  0.12248431381943448  0.18417581996808963  0.2246137653023226  1.0000
  C   C52       1.0  0.8775129436242467  0.6841750345074262  0.7753853264449264  1.0000
  C   C53       1.0  0.0408284813066828  0.8162595530588775  0.7769107892054593  1.0000
  C   C54       1.0  0.9591709899212617  0.31626004713649547  0.22309006377678742  1.0000
  C   C55       1.0  0.9591693853816494  0.18373719081549922  0.22309104012569492  1.0000
  C   C56       1.0  0.0408289265790742  0.6837372448441956  0.7769081088029922  1.0000
  C   C57       1.0  0.8552783889310475  0.7499979434934546  0.6631725999942121  1.0000
  C   C58       1.0  0.1447194396395091  0.24999825227635605  0.336827074083125  1.0000
  C   C59       1.0  0.0192226306900452  0.7500002822634003  0.6641120760921311  1.0000
  C   C60       1.0  0.9807762561503781  0.24999920213357302  0.335887655457448  1.0000
  N   N1        1.0  0.08815328748790562  0.7499992714493403  0.7400781478765808  1.0000
  N   N2        1.0  0.9118455993501794  0.24999966484330835  0.2599215836728135  1.0000
  N   N3        1.0  0.8165917544626282  0.7499984545938504  0.7378331651090236  1.0000
  N   N4        1.0  0.1834071418949677  0.24999828928154955  0.2621671052530559  1.0000
  O   O1        1.0  0.5518129442410996  0.8231558245169952  0.67321778871829  1.0000
  O   O2        1.0  0.4481897987014775  0.32315462862480626  0.3267853964897398  1.0000
  O   O3        1.0  0.4481922251089756  0.17689737411628673  0.326838266799257  1.0000
  O   O4        1.0  0.5518081640711401  0.6768991180945036  0.6731620701771632  1.0000
  O   O5        1.0  0.34784283767236707  0.8287457228488153  0.8242818890444569  1.0000
  O   O6        1.0  0.6521587994205617  0.3287449623297364  0.1757158542540793  1.0000
  O   O7        1.0  0.652168100425392  0.1712888402353556  0.1756818928587265  1.0000
  O   O8        1.0  0.347834395532729  0.6712912450540288  0.8243207106059245  1.0000
  O   O9        1.0  0.584456583361863  0.8220010192278553  0.817489891554203  1.0000
  O   O10       1.0  0.4155461497391926  0.32200246280647354  0.1825132928912296  1.0000
  O   O11       1.0  0.41556964584565753  0.17794858771133457  0.18256138640458633  1.0000
  O   O12       1.0  0.5844307427632813  0.6779476921717134  0.8174384124525318  1.0000
  O   O13       1.0  0.3121783140385546  0.8295870078769597  0.6676151081085706  1.0000
  O   O14       1.0  0.6878200221078997  0.32959731966397504  0.3323749199486485  1.0000
  O   O15       1.0  0.6878007235902358  0.1703697243557301  0.3323383286198904  1.0000
  O   O16       1.0  0.3122028322868572  0.6703665379827798  0.667664870519829  1.0000
