data_image0
_chemical_formula_structural       Zn2H20C32N2O12
_chemical_formula_sum              "Zn2 H20 C32 N2 O12"
_cell_length_a       9.96365002798453
_cell_length_b       10.857034289093043
_cell_length_c       14.451786936126545
_cell_angle_alpha    89.8188688434725
_cell_angle_beta     88.24525742288876
_cell_angle_gamma    89.55868458725466

_space_group_name_H-M_alt    "P 1"
_space_group_IT_number       1

loop_
  _space_group_symop_operation_xyz
  'x, y, z'

loop_
  _atom_site_type_symbol
  _atom_site_label
  _atom_site_symmetry_multiplicity
  _atom_site_fract_x
  _atom_site_fract_y
  _atom_site_fract_z
  _atom_site_occupancy
  Zn  Zn1       1.0  0.35996309892687617  0.5004606868569754  0.5088651105734598  1.0000
  Zn  Zn2       1.0  0.6466367355324607  0.5066071154000229  0.499763748660925  1.0000
  H   H1        1.0  0.862525823195135  0.5537322296163438  0.7091133260735987  1.0000
  H   H2        1.0  0.3196425387915697  0.09533394610069484  0.67433464440672  1.0000
  H   H3        1.0  0.20651798689306133  0.11172830696150272  0.581322227714729  1.0000
  H   H4        1.0  0.31838205917889445  0.86799253852238  0.6555947904476014  1.0000
  H   H5        1.0  0.6809395387908381  0.786102765501859  0.3448779861740618  1.0000
  H   H6        1.0  0.6828032524968819  0.9235191180102761  0.2788320643628595  1.0000
  H   H7        1.0  0.8025997703685945  0.9006152184653761  0.36501478041397917  1.0000
  H   H8        1.0  0.13831409940002706  0.6633475854547373  0.6999597592734901  1.0000
  H   H9        1.0  0.7814323030496837  0.3640480743046909  0.7741576975158607  1.0000
  H   H10       1.0  0.6634773256070119  0.2413939065327854  0.3532437355548481  1.0000
  H   H11       1.0  0.7957762370231124  0.16147569893614397  0.4053643411171137  1.0000
  H   H12       1.0  0.7259908902164653  0.10219594669934653  0.3035024491474303  1.0000
  H   H13       1.0  0.1367137615204825  0.9203337004753964  0.4903526661825096  1.0000
  H   H14       1.0  0.17871096877335194  0.7719098182710626  0.5309059404916496  1.0000
  H   H15       1.0  0.0804351230315774  0.8745425363154599  0.603396109754314  1.0000
  H   H16       1.0  0.768999577291055  0.5486219948709066  0.3250032454893557  1.0000
  H   H17       1.0  0.18112412806460307  0.5176487434579472  0.2780605536705565  1.0000
  H   H18       1.0  0.2403281215354411  0.3433376218588152  0.6873334581823372  1.0000
  H   H19       1.0  0.12120261775690011  0.33563252447253694  0.7818618893132765  1.0000
  H   H20       1.0  0.08465022021711381  0.2670469164982451  0.6728890597474191  1.0000
  C   C1        1.0  0.5178414048641287  0.7363281003387672  0.4781142148279827  1.0000
  C   C2        1.0  0.4694321998410659  0.4631946323072001  0.22446360371218077  1.0000
  C   C3        1.0  0.4124264314935218  0.9350776099551866  0.524865514119405  1.0000
  C   C4        1.0  0.5091341839561636  0.8731402710365047  0.47080632630273556  1.0000
  C   C5        1.0  0.6014884411787876  0.9459417605627749  0.4180166832761572  1.0000
  C   C6        1.0  0.6022162176433171  0.07608430516312842  0.42754384811231455  1.0000
  C   C7        1.0  0.5103723607857515  0.135820490012776  0.4907260240729556  1.0000
  C   C8        1.0  0.4140600812872108  0.06224165009805201  0.5350861831254221  1.0000
  C   C9        1.0  0.2968678566649174  0.06336146685885072  0.6044707254790537  1.0000
  C   C10       1.0  0.29282582350667496  0.9183407548037725  0.5920986924098557  1.0000
  C   C11       1.0  0.9287013326918299  0.4937327180197571  0.570425678092036  1.0000
  C   C12       1.0  0.4910388215451036  0.5217492020028589  0.685932218610894  1.0000
  C   C13       1.0  0.9424453763496531  0.5332340766595893  0.41771465449870954  1.0000
  C   C14       1.0  0.0839941397122175  0.5380054437339725  0.42101559757038126  1.0000
  C   C15       1.0  0.06814254249732701  0.4930881431782056  0.5736767301124175  1.0000
  C   C16       1.0  0.07161102977236311  0.4669188537545352  0.6766641793167024  1.0000
  C   C17       1.0  0.9057526401513982  0.47314278206665983  0.6728199464211925  1.0000
  C   C18       1.0  0.5125575117580182  0.2700620251709225  0.5106270214858668  1.0000
  C   C19       1.0  0.4754519318030433  0.4690808866090209  0.3237977206580922  1.0000
  C   C20       1.0  0.4885779894741092  0.5095609088711869  0.7852747184983713  1.0000
  C   C21       1.0  0.4826553133214376  0.49633693952694813  0.8696913123214356  1.0000
  C   C22       1.0  0.4767048945025963  0.4831705068143324  0.9619080402911707  1.0000
  C   C23       1.0  0.47227180295355703  0.47295055553815524  0.046983134103165  1.0000
  C   C24       1.0  0.4696265725459128  0.46611163355497376  0.13956880863626248  1.0000
  C   C25       1.0  0.6969060520962815  0.885404606348878  0.348519333826772  1.0000
  C   C26       1.0  0.11974769774303702  0.57446565014034  0.7365367050687934  1.0000
  C   C27       1.0  0.8329486019845975  0.35721553642522264  0.7048889658919036  1.0000
  C   C28       1.0  0.7013293849020598  0.14907784557146192  0.3689022963956532  1.0000
  C   C29       1.0  0.1644591214152769  0.8680600407899776  0.5523160217608023  1.0000
  C   C30       1.0  0.8792879212019641  0.5581228183428382  0.3273994524504076  1.0000
  C   C31       1.0  0.1638046664162331  0.583165803381462  0.335425802894278  1.0000
  C   C32       1.0  0.1329631787110017  0.34472345687061795  0.7063745985053417  1.0000
  N   N1        1.0  0.8611874260530784  0.5097938609042958  0.4936441984679547  1.0000
  N   N2        1.0  0.1498340548977879  0.5146039538199217  0.5007286055020614  1.0000
  O   O1        1.0  0.40840408300150705  0.6767454015235829  0.4792997159599182  1.0000
  O   O2        1.0  0.6345122990409636  0.6885572993141268  0.4879823144972235  1.0000
  O   O3        1.0  0.3777705753836714  0.5400948762605611  0.6489841134641096  1.0000
  O   O4        1.0  0.6053571355905092  0.5120522265009699  0.6444625837391837  1.0000
  O   O5        1.0  0.4027603869558192  0.3212429409302473  0.5391906350592919  1.0000
  O   O6        1.0  0.6241558662213578  0.32613235671524177  0.4987518013170913  1.0000
  O   O7        1.0  0.3693036851750975  0.4434207888760185  0.3711486407945799  1.0000
  O   O8        1.0  0.5872219337110423  0.5006663739836414  0.3560474651699863  1.0000
  O   O9        1.0  0.1302609405312936  0.5638223011395525  0.8196290368126496  1.0000
  O   O10       1.0  0.8339099606514111  0.2625796702234453  0.6600295131188645  1.0000
  O   O11       1.0  0.9482290190908531  0.5871014258277187  0.2590366309146575  1.0000
  O   O12       1.0  0.2065499264531141  0.688013821340107  0.3367992791273338  1.0000
