data_image0
_chemical_formula_structural       Zn4H16C28N16O12
_chemical_formula_sum              "Zn4 H16 C28 N16 O12"
_cell_length_a       8.920612754845077
_cell_length_b       9.298137733499049
_cell_length_c       10.21147445901006
_cell_angle_alpha    89.99995817001417
_cell_angle_beta     90.00015983162223
_cell_angle_gamma    111.39074296038467

_space_group_name_H-M_alt    "P 1"
_space_group_IT_number       1

loop_
  _space_group_symop_operation_xyz
  'x, y, z'

loop_
  _atom_site_type_symbol
  _atom_site_label
  _atom_site_symmetry_multiplicity
  _atom_site_fract_x
  _atom_site_fract_y
  _atom_site_fract_z
  _atom_site_occupancy
  Zn  Zn1       1.0  0.1508453785546564  0.8350199327797867  0.8060030000598177  1.0000
  Zn  Zn2       1.0  0.3491554829779915  0.1649805793232915  0.30600221320308674  1.0000
  Zn  Zn3       1.0  0.8491559331539946  0.16498115688774823  0.19399647053697325  1.0000
  Zn  Zn4       1.0  0.6508449507812699  0.8350182002439225  0.693996278102887  1.0000
  H   H1        1.0  0.9339844518770235  0.4831919936243095  0.616414407832828  1.0000
  H   H2        1.0  0.5660150525178055  0.5168073352749759  0.11641367713590973  1.0000
  H   H3        1.0  0.06601529981008976  0.5168079408575039  0.383587021343459  1.0000
  H   H4        1.0  0.4339842601921617  0.4831914441564036  0.8835857934592115  1.0000
  H   H5        1.0  0.9219172988383945  0.48743979433007223  0.789621503694946  1.0000
  H   H6        1.0  0.5780823436755824  0.512558442245961  0.2896208052145469  1.0000
  H   H7        1.0  0.07808381700279916  0.5125578303235941  0.210379925483764  1.0000
  H   H8        1.0  0.4219158479834633  0.4874403370494278  0.710378665379203  1.0000
  H   H9        1.0  0.7100573724393443  0.3353622455158387  0.8979004681136903  1.0000
  H   H10       1.0  0.7899412666844584  0.6646383401013763  0.3978992056365486  1.0000
  H   H11       1.0  0.2899412581968477  0.6646376888299699  0.10210096106123252  1.0000
  H   H12       1.0  0.2100573639484722  0.33536159424408407  0.6021002649573577  1.0000
  H   H13       1.0  0.15008320925017662  0.9143311082124866  0.5082927829668409  1.0000
  H   H14       1.0  0.3499166603705747  0.08566929607525958  0.008293029853533104  1.0000
  H   H15       1.0  0.8499169814075529  0.0856699813190502  0.491706687628586  1.0000
  H   H16       1.0  0.6500826523393927  0.9143294833561199  0.991706440741581  1.0000
  C   C1        1.0  0.8305357490464901  0.6413608918867552  0.6908481422257824  1.0000
  C   C2        1.0  0.6694628822970045  0.35863846383271175  0.19084776845143386  1.0000
  C   C3        1.0  0.16946244261581708  0.35863788740898156  0.3091532869489839  1.0000
  C   C4        1.0  0.3305357483359258  0.6413614705127485  0.8091517021424721  1.0000
  C   C5        1.0  0.8573525532433307  0.48890110117330465  0.6987932093293454  1.0000
  C   C6        1.0  0.642649224620932  0.5111005677955873  0.1987926691172462  1.0000
  C   C7        1.0  0.14264944054561818  0.5110988335805117  0.30120821984967  1.0000
  C   C8        1.0  0.35735096603679756  0.4889005217359497  0.8012068014781804  1.0000
  C   C9        1.0  0.6334930407706523  0.31257751547488516  0.5700515478939466  1.0000
  C   C10       1.0  0.8665087471271988  0.6874252619206442  0.07005241542272243  1.0000
  C   C11       1.0  0.3665135858488498  0.6874316598142941  0.429943026254101  1.0000
  C   C12       1.0  0.13349188250930413  0.312576982661497  0.9299499930443749  1.0000
  C   C13       1.0  0.6414304710455951  0.2843711894493026  0.8101079867640308  1.0000
  C   C14       1.0  0.8585663155474705  0.7156282091880611  0.31010783695378313  1.0000
  C   C15       1.0  0.3585681595873353  0.7156287448961578  0.18989148382987517  1.0000
  C   C16       1.0  0.14143119403616572  0.284371725021579  0.6898926129292635  1.0000
  C   C17       1.0  0.48446329737267047  0.18502468905121114  0.5821446671206303  1.0000
  C   C18       1.0  0.015536379332416986  0.8149745869316263  0.08214361570612992  1.0000
  C   C19       1.0  0.5155353332602601  0.8149752452942421  0.41785480347327564  1.0000
  C   C20       1.0  0.9844618123250016  0.18502419236358494  0.9178548755971153  1.0000
  C   C21       1.0  0.43072373958355575  0.11658694001864231  0.7042024138513484  1.0000
  C   C22       1.0  0.06927566171937367  0.8834135350815799  0.20420242726493854  1.0000
  C   C23       1.0  0.5692764510741739  0.8834141495128945  0.2957970567440712  1.0000
  C   C24       1.0  0.9307229689135568  0.1165863992638805  0.7957970433289677  1.0000
  C   C25       1.0  0.2578893291341514  0.9943150201412221  0.5551705450468207  1.0000
  C   C26       1.0  0.24211069667400412  0.0056854011232303015  0.05517058233129292  1.0000
  C   C27       1.0  0.7421108615235781  0.005686069390314699  0.44482892554860615  1.0000
  C   C28       1.0  0.7578874949850415  0.9943133781721512  0.9448288882624569  1.0000
  N   N1        1.0  0.7078044352568116  0.3550673362689452  0.6949728592687807  1.0000
  N   N2        1.0  0.7921946488018817  0.6449331759942041  0.19497161534892635  1.0000
  N   N3        1.0  0.2921953164286677  0.6449325982126908  0.3050275906169945  1.0000
  N   N4        1.0  0.20780286077849305  0.3550667582150738  0.805026875953111  1.0000
  N   N5        1.0  0.5060482724418875  0.16566267407593216  0.8207067223690035  1.0000
  N   N6        1.0  0.9939505484616049  0.8343390386357754  0.3207058443741745  1.0000
  N   N7        1.0  0.49395079716655493  0.8343384153197774  0.17929372751556374  1.0000
  N   N8        1.0  0.006048521145203294  0.16566205075975662  0.6792936262198881  1.0000
  N   N9        1.0  0.2877799219836915  0.9950289928732372  0.6851145971736017  1.0000
  N   N10       1.0  0.21221897674832493  0.0049703202642633  0.18511456210873697  1.0000
  N   N11       1.0  0.7122202686756723  0.0049720966584771995  0.3148858527123296  1.0000
  N   N12       1.0  0.7877807749371613  0.9950296142173799  0.8148858877770382  1.0000
  N   N13       1.0  0.3727459225287575  0.1060613113940647  0.488692822716182  1.0000
  N   N14       1.0  0.12725286661660823  0.8939381115480033  0.9886925337335344  1.0000
  N   N15       1.0  0.6272542681289792  0.8939397781374722  0.5113066478792377  1.0000
  N   N16       1.0  0.8727453250440718  0.10606066774755618  0.011307916150727203  1.0000
  O   O1        1.0  0.9509998768660567  0.7670368514144454  0.6975093813237836  1.0000
  O   O2        1.0  0.5490025787977117  0.2329636621754219  0.19750879741471294  1.0000
  O   O3        1.0  0.049002555898411494  0.23296423838962  0.30249302714589293  1.0000
  O   O4        1.0  0.4509994149896174  0.7670362725782169  0.8024916524737977  1.0000
  O   O5        1.0  0.6875582319582207  0.6358607735544126  0.6738563002963363  1.0000
  O   O6        1.0  0.8124441449005532  0.3641397314697913  0.17385725050223755  1.0000
  O   O7        1.0  0.3124448828783954  0.36413916133505336  0.32614317030303414  1.0000
  O   O8        1.0  0.18755828786065357  0.6358613583339191  0.8261431993864222  1.0000
  O   O9        1.0  0.6991221016364052  0.38284738075882535  0.4696204665950108  1.0000
  O   O10       1.0  0.8008752164176798  0.6171520756454071  0.9696178462928348  1.0000
  O   O11       1.0  0.3008778931587628  0.6171502437593688  0.5303839004538631  1.0000
  O   O12       1.0  0.19912185418719025  0.38284670351362143  0.03037966571853451  1.0000
