data_image0
_chemical_formula_structural       Cu4H44Pt4C56N28
_chemical_formula_sum              "Cu4 H44 Pt4 C56 N28"
_cell_length_a       10.635989245138399
_cell_length_b       10.642240892706582
_cell_length_c       14.89
_cell_angle_alpha    74.36276636422403
_cell_angle_beta     74.35333963784396
_cell_angle_gamma    80.38430920683555

_space_group_name_H-M_alt    "P 1"
_space_group_IT_number       1

loop_
  _space_group_symop_operation_xyz
  'x, y, z'

loop_
  _atom_site_type_symbol
  _atom_site_label
  _atom_site_symmetry_multiplicity
  _atom_site_fract_x
  _atom_site_fract_y
  _atom_site_fract_z
  _atom_site_occupancy
  Cu  Cu1       1.0  0.6904990082735623  0.2188006556141033  0.590347230568284  1.0000
  Cu  Cu2       1.0  0.7811520894883159  0.3094690751023208  0.909614294552739  1.0000
  Cu  Cu3       1.0  0.3095076955636031  0.7811983097783893  0.40965302043358787  1.0000
  Cu  Cu4       1.0  0.21884006841593615  0.6905289094336027  0.09038626133042983  1.0000
  H   H1        1.0  0.762488372594859  0.4694104897478937  0.6160169160812218  1.0000
  H   H2        1.0  0.5303879837298524  0.2374300644215168  0.8839583735133945  1.0000
  H   H3        1.0  0.23751637847086465  0.5305884756445991  0.3839823679402272  1.0000
  H   H4        1.0  0.4696006680430853  0.7625639966881295  0.11604764322981964  1.0000
  H   H5        1.0  0.9671478161997483  0.5402479511321658  0.6336023991742579  1.0000
  H   H6        1.0  0.45953431183008314  0.0328557524783832  0.8663945354752657  1.0000
  H   H7        1.0  0.03285545921579569  0.4597559185431663  0.3663935379517795  1.0000
  H   H8        1.0  0.5404550389130945  0.9671314426352849  0.1336200568586109  1.0000
  H   H9        1.0  0.1660978145251306  0.3770726523799226  0.6389555066319801  1.0000
  H   H10       1.0  0.622811776911618  0.8340213594237581  0.8610545446677235  1.0000
  H   H11       1.0  0.8339070142502933  0.6229351407216868  0.36104206175366477  1.0000
  H   H12       1.0  0.3771806805513052  0.1659736825424645  0.1389505499435941  1.0000
  H   H13       1.0  0.15180908720391528  0.1475904687337675  0.6346428083159097  1.0000
  H   H14       1.0  0.8524089926400575  0.8483300950464852  0.8653734637498333  1.0000
  H   H15       1.0  0.8481981936074089  0.8524124200850025  0.36536060523037855  1.0000
  H   H16       1.0  0.1475866713955085  0.1516718129157084  0.1346202880899483  1.0000
  H   H17       1.0  0.11458599683068367  0.9550453279969986  0.6455277146097416  1.0000
  H   H18       1.0  0.044987122633521906  0.8855212335580802  0.8544930587427403  1.0000
  H   H19       1.0  0.8854244128435836  0.0449555991086328  0.3544754740842323  1.0000
  H   H20       1.0  0.9550083416962636  0.114482636117252  0.1455023684199759  1.0000
  H   H21       1.0  0.0596413383760748  0.7403162079991503  0.6404906501809577  1.0000
  H   H22       1.0  0.2598633228462006  0.9404197757026083  0.8595194030890454  1.0000
  H   H23       1.0  0.9403708243638533  0.25968668081961244  0.3595111512663465  1.0000
  H   H24       1.0  0.7401309653920761  0.0595860556858625  0.14047452953972345  1.0000
  H   H25       1.0  0.8360023165753958  0.7264419918363102  0.614179928154428  1.0000
  H   H26       1.0  0.2737367755312619  0.16395704143742046  0.8858283846513191  1.0000
  H   H27       1.0  0.1640094688961611  0.2735550118430439  0.3858257661172574  1.0000
  H   H28       1.0  0.7262558594942448  0.8360458473813493  0.11417113450019666  1.0000
  H   H29       1.0  0.6833255806370246  0.926293479401636  0.5939445972427749  1.0000
  H   H30       1.0  0.07378886222949889  0.3165577255235945  0.9060472457198899  1.0000
  H   H31       1.0  0.316682698703218  0.073699600851441  0.4060638715222638  1.0000
  H   H32       1.0  0.9262048490346257  0.683444182438606  0.09395158346453074  1.0000
  H   H33       1.0  0.5933394845690145  0.1081521878235066  0.4944353279600405  1.0000
  H   H34       1.0  0.8918620731657112  0.40663076507467366  0.005544150369964061  1.0000
  H   H35       1.0  0.40666721926815086  0.8918467775689862  0.5055629082668176  1.0000
  H   H36       1.0  0.10813233706865331  0.5933642768915419  0.9944598964467559  1.0000
  H   H37       1.0  0.4846968948047418  0.2216637759378486  0.5344966400757514  1.0000
  H   H38       1.0  0.7782835189758899  0.5151870658044401  0.9654975879527685  1.0000
  H   H39       1.0  0.5153107854181443  0.7783351894546442  0.4655027512329895  1.0000
  H   H40       1.0  0.2217129438828067  0.48480699530520605  0.03450490920372571  1.0000
  H   H41       1.0  0.5002196443028311  0.0752738756440436  0.6058023205833436  1.0000
  H   H42       1.0  0.9247616954050243  0.4996993405862539  0.8941896444584643  1.0000
  H   H43       1.0  0.49978628285440146  0.9247231280353105  0.39419577160538216  1.0000
  H   H44       1.0  0.0752348673065697  0.500293739666823  0.10581436560740799  1.0000
  Pt  Pt1       1.0  0.3009172949537273  0.49564546038823204  0.7531950286708309  1.0000
  Pt  Pt2       1.0  0.5043783439735421  0.6990348975964977  0.7468075807675945  1.0000
  Pt  Pt3       1.0  0.6990799445849092  0.5043505624345528  0.246805597748768  1.0000
  Pt  Pt4       1.0  0.49562375535050057  0.3009709337919729  0.25318619023281036  1.0000
  C   C1        1.0  0.4555408997379757  0.3853844309422314  0.6975887726105228  1.0000
  C   C2        1.0  0.6146017920089122  0.5443959935607765  0.8023958174780647  1.0000
  C   C3        1.0  0.544461698850526  0.6146164961633928  0.3024098765701098  1.0000
  C   C4        1.0  0.38539642391544493  0.4556000292620084  0.19759790492335583  1.0000
  C   C5        1.0  0.31636387128203575  0.3989565432819475  0.8843897460305001  1.0000
  C   C6        1.0  0.6010895745248916  0.6835815023582085  0.6155877158485838  1.0000
  C   C7        1.0  0.6836328689921415  0.6010443838236837  0.11560734539222044  1.0000
  C   C8        1.0  0.39892071315328076  0.316430214169678  0.3844060302491031  1.0000
  C   C9        1.0  0.1451752121580583  0.6023724636175629  0.8123476940027105  1.0000
  C   C10       1.0  0.3976832485149158  0.854760590710228  0.6876781179391501  1.0000
  C   C11       1.0  0.8548252560964186  0.39762061663551407  0.18765354888229524  1.0000
  C   C12       1.0  0.602323433179059  0.14524818324795058  0.3123189045175252  1.0000
  C   C13       1.0  0.28442496479391366  0.5945599410486649  0.6230409851341251  1.0000
  C   C14       1.0  0.40545063426735334  0.7155633116339715  0.876967966770039  1.0000
  C   C15       1.0  0.715572452307306  0.40544392862666706  0.37695205105065105  1.0000
  C   C16       1.0  0.5945473819512159  0.284434672901952  0.12303011732100799  1.0000
  C   C17       1.0  0.8497367940979073  0.4010496911993399  0.622798617318395  1.0000
  C   C18       1.0  0.598797573107916  0.1502368197558468  0.8771808201251049  1.0000
  C   C19       1.0  0.1502697100334842  0.5989512359062914  0.3771999510480554  1.0000
  C   C20       1.0  0.4011929315835657  0.8497582222103687  0.12282196432245483  1.0000
  C   C21       1.0  0.9641666566742159  0.4394580727125685  0.6315046480875072  1.0000
  C   C22       1.0  0.5603727584930879  0.0358552118651616  0.8684854486950614  1.0000
  C   C23       1.0  0.03583564235560739  0.5605457969627707  0.36849349191501096  1.0000
  C   C24       1.0  0.43961716922424177  0.9641359066747839  0.13152559026651287  1.0000
  C   C25       1.0  0.0742535425743611  0.3483816168918068  0.6354473781470844  1.0000
  C   C26       1.0  0.6515045796604183  0.9258197256790053  0.8645564014393872  1.0000
  C   C27       1.0  0.9257515857597339  0.6516232336400947  0.3645513710083463  1.0000
  C   C28       1.0  0.34848993042684373  0.07417433543064789  0.13544647192002665  1.0000
  C   C29       1.0  0.0664130001447418  0.2200453625996559  0.6329405060028392  1.0000
  C   C30       1.0  0.7798985631981026  0.933672463367209  0.8670672639573881  1.0000
  C   C31       1.0  0.933591251656523  0.7799585070756762  0.36706061575510773  1.0000
  C   C32       1.0  0.22009447123897263  0.0663265020252837  0.1329315909149358  1.0000
  C   C33       1.0  0.948103171164064  0.18708858189470587  0.626072061311497  1.0000
  C   C34       1.0  0.8128588273175621  0.05192458502853009  0.8739367526424717  1.0000
  C   C35       1.0  0.0519032331144302  0.8129133260674875  0.3739276805122601  1.0000
  C   C36       1.0  0.18713498379945287  0.9480763420771012  0.1260622462679848  1.0000
  C   C37       1.0  0.926714552431683  0.055786217339104396  0.623022684140942  1.0000
  C   C38       1.0  0.9442233078210833  0.0732974496583196  0.8769886152261465  1.0000
  C   C39       1.0  0.07329107516687118  0.9442137289099506  0.3769809431947166  1.0000
  C   C40       1.0  0.05576737443298897  0.9267054391604503  0.12300859376160389  1.0000
  C   C41       1.0  0.019186713057749192  0.9465050098541994  0.6347223434792824  1.0000
  C   C42       1.0  0.053553304206865  0.980862453739114  0.8653039616674862  1.0000
  C   C43       1.0  0.9808188146879145  0.0534959172514249  0.3652811141303403  1.0000
  C   C44       1.0  0.9464391311128606  0.0191423967927946  0.13469051689023812  1.0000
  C   C45       1.0  0.9880050164598585  0.8257674513989882  0.6321246952232472  1.0000
  C   C46       1.0  0.17436825701735606  0.0120135312522081  0.8678865543064873  1.0000
  C   C47       1.0  0.012004316975797695  0.17423445656320516  0.36787851184615056  1.0000
  C   C48       1.0  0.8256252545409879  0.987990338423124  0.1321092490591624  1.0000
  C   C49       1.0  0.8660092417615104  0.8174164385739288  0.6176524913472221  1.0000
  C   C50       1.0  0.18272187035721998  0.1339575432867974  0.8823594986167367  1.0000
  C   C51       1.0  0.13399941484710348  0.18258252681855677  0.3823520845934283  1.0000
  C   C52       1.0  0.8172705649625058  0.866047307245104  0.11763699471600825  1.0000
  C   C53       1.0  0.7788524384168979  0.9303100870500528  0.6059058196320566  1.0000
  C   C54       1.0  0.0697707179324425  0.2210723194269804  0.894097138235182  1.0000
  C   C55       1.0  0.22115641789749668  0.06968691662930128  0.39409976735234403  1.0000
  C   C56       1.0  0.9302219170930639  0.7789305693917825  0.10590170932465534  1.0000
  N   N1        1.0  0.5489486021468933  0.3207234233704384  0.6665322308772162  1.0000
  N   N2        1.0  0.6792119349654939  0.4509909842461609  0.8334482076586341  1.0000
  N   N3        1.0  0.4510518439643859  0.6792794654483316  0.33346779823760647  1.0000
  N   N4        1.0  0.32078070006001264  0.5490119045726018  0.16654661035117613  1.0000
  N   N5        1.0  0.32218241751807847  0.3433066650058763  0.9631053044018997  1.0000
  N   N6        1.0  0.6567173921003047  0.677786601750924  0.5368745385062611  1.0000
  N   N7        1.0  0.6778125696904382  0.6566923003866165  0.03689451745084678  1.0000
  N   N8        1.0  0.34329534761376823  0.32222021049411603  0.46312370956873394  1.0000
  N   N9        1.0  0.05317774292031172  0.6623018191024385  0.8512892406157422  1.0000
  N   N10       1.0  0.3377844261241449  0.9467531665660545  0.6487417056908457  1.0000
  N   N11       1.0  0.9468204730040525  0.33769420372034625  0.1487158988441024  1.0000
  N   N12       1.0  0.662217273788329  0.053256588248686385  0.35125205799707976  1.0000
  N   N13       1.0  0.274125703793203  0.656473569371819  0.546893945129419  1.0000
  N   N14       1.0  0.34354769633853977  0.7258936930144628  0.9531223985052789  1.0000
  N   N15       1.0  0.7258772942068673  0.3435234343075351  0.45311075568874787  1.0000
  N   N16       1.0  0.656449842758775  0.2740993872386142  0.046874035950729455  1.0000
  N   N17       1.0  0.8427977907129287  0.2777550396697919  0.6202824558327081  1.0000
  N   N18       1.0  0.7221496850396889  0.15718618854437946  0.8796993615253828  1.0000
  N   N19       1.0  0.15720578426129353  0.7222458874358395  0.37971734842979993  1.0000
  N   N20       1.0  0.27784042024022426  0.8428127768481132  0.12030072924299874  1.0000
  N   N21       1.0  0.8079907987837982  0.0468486522860303  0.6084488378673355  1.0000
  N   N22       1.0  0.9531666201472645  0.1919712858931959  0.8915467936111129  1.0000
  N   N23       1.0  0.1920148288147558  0.9531512939630318  0.3915534462849806  1.0000
  N   N24       1.0  0.046826014878249105  0.8080316029255669  0.10844936758203262  1.0000
  N   N25       1.0  0.5527103447194861  0.1450755524918748  0.554184842769402  1.0000
  N   N26       1.0  0.8549237001342647  0.4472176290267598  0.945798283909241  1.0000
  N   N27       1.0  0.4472964589705696  0.8549224320440487  0.44581423477516324  1.0000
  N   N28       1.0  0.14507188619160863  0.5527754512263243  0.054205914258098224  1.0000
