data_image0
_chemical_formula_structural       Cd4H28C32N8O24
_chemical_formula_sum              "Cd4 H28 C32 N8 O24"
_cell_length_a       6.888234498117182
_cell_length_b       9.743156153902072
_cell_length_c       15.14550523100036
_cell_angle_alpha    90.00002488877124
_cell_angle_beta     89.99999571113014
_cell_angle_gamma    106.25306259369286

_space_group_name_H-M_alt    "P 1"
_space_group_IT_number       1

loop_
  _space_group_symop_operation_xyz
  'x, y, z'

loop_
  _atom_site_type_symbol
  _atom_site_label
  _atom_site_symmetry_multiplicity
  _atom_site_fract_x
  _atom_site_fract_y
  _atom_site_fract_z
  _atom_site_occupancy
  Cd  Cd1       1.0  0.6417010078033839  0.09405236617139683  0.2500002459704262  1.0000
  Cd  Cd2       1.0  0.3583000309465447  0.9059479135560479  0.7499995314553087  1.0000
  Cd  Cd3       1.0  0.4999992696807852  0.500000665455197  0.4999992284510667  1.0000
  Cd  Cd4       1.0  0.49999883062086065  0.49999942228313216  7.216661898999998e-07  1.0000
  H   H1        1.0  0.1562354320255325  0.9225941080314898  0.5112679832339067  1.0000
  H   H2        1.0  0.8437645358587601  0.0774070655382459  0.011266705394632497  1.0000
  H   H3        1.0  0.84376642889476  0.0774083097973275  0.48873377497780257  1.0000
  H   H4        1.0  0.15623650289109753  0.9225932141887441  0.988731751507309  1.0000
  H   H5        1.0  0.0767888380482944  0.11458666197684411  0.30093946378175207  1.0000
  H   H6        1.0  0.9232122064017502  0.8854136532294277  0.8009393844617632  1.0000
  H   H7        1.0  0.9232122007016411  0.8854136177506077  0.6990603136439829  1.0000
  H   H8        1.0  0.0767873771114722  0.11458661756455513  0.19906039296399305  1.0000
  H   H9        1.0  0.7457568129365129  0.3802142431404151  0.30408827848781067  1.0000
  H   H10       1.0  0.2542442318658757  0.6197860742589612  0.8040881477199375  1.0000
  H   H11       1.0  0.2542442258134159  0.619786036587037  0.6959114989379243  1.0000
  H   H12       1.0  0.7457568068840601  0.38021420546849083  0.19591162970579745  1.0000
  H   H13       1.0  0.8872926201214638  0.678277285388134  0.5859475185612409  1.0000
  H   H14       1.0  0.11270694503442512  0.3217228711454538  0.08594831487531  1.0000
  H   H15       1.0  0.1127069633917586  0.32172298540584876  0.4140522588645154  1.0000
  H   H16       1.0  0.8872940937155819  0.6782774085824529  0.9140527830742184  1.0000
  H   H17       1.0  0.6959912478048763  0.7159330345060511  0.6205478915000738  1.0000
  H   H18       1.0  0.3040076881563251  0.28406927529352544  0.12054867073485548  1.0000
  H   H19       1.0  0.3040091578785676  0.28406937438838037  0.3794512256640771  1.0000
  H   H20       1.0  0.6959923064421004  0.7159320645512609  0.8794524272148436  1.0000
  H   H21       1.0  0.9026653674558317  0.6902559037314121  0.41318471278549396  1.0000
  H   H22       1.0  0.09733091275917623  0.3097433938018882  0.9131851608904282  1.0000
  H   H23       1.0  0.09733234973551672  0.3097432890785328  0.5868144043782522  1.0000
  H   H24       1.0  0.9026668044321369  0.6902557990078293  0.08681329601142097  1.0000
  H   H25       1.0  0.15207906179822575  0.5959425798656995  0.3319249603588118  1.0000
  H   H26       1.0  0.847914520831722  0.40405344498636714  0.8319247489208691  1.0000
  H   H27       1.0  0.8479155558159447  0.4040523278096587  0.6680748170662838  1.0000
  H   H28       1.0  0.15208050786753802  0.595942531739105  0.1680743682424719  1.0000
  C   C1        1.0  0.31616283792557454  0.0180007762545102  0.4104498239869584  1.0000
  C   C2        1.0  0.6838342970310054  0.9819931919881242  0.9104471388320972  1.0000
  C   C3        1.0  0.6838346901621649  0.981994149288703  0.5895525944856743  1.0000
  C   C4        1.0  0.3161628199713035  0.018000664502913804  0.08954999754522666  1.0000
  C   C5        1.0  0.41336347616604735  0.9028846663509709  0.4074417929301432  1.0000
  C   C6        1.0  0.5866388134569149  0.09711893018393881  0.907441504541218  1.0000
  C   C7        1.0  0.5866373406025928  0.0971188115942496  0.5925586447579432  1.0000
  C   C8        1.0  0.41336159222655766  0.902883478710713  0.0925582728848227  1.0000
  C   C9        1.0  0.38816493102602595  0.7773203126847719  0.45704593151759804  1.0000
  C   C10       1.0  0.6118379972140033  0.22268118923122426  0.9570443568780431  1.0000
  C   C11       1.0  0.6118361077240166  0.22267996704336926  0.5429558266938271  1.0000
  C   C12       1.0  0.3881634526209795  0.7773201595461076  0.042954100024047585  1.0000
  C   C13       1.0  0.25774755731288934  0.7218303690133966  0.5337327041593978  1.0000
  C   C14       1.0  0.7422520020001071  0.27816975115267445  0.03373214623125878  1.0000
  C   C15       1.0  0.7422538925222779  0.2781709797650792  0.46626905405216934  1.0000
  C   C16       1.0  0.25774758151307253  0.721830519641074  0.9662669709326009  1.0000
  C   C17       1.0  0.6102185639363711  0.7840875196063591  0.3528539604275736  1.0000
  C   C18       1.0  0.38977875367923787  0.2159106757903544  0.8528543722743291  1.0000
  C   C19       1.0  0.38978060849172647  0.21591168213728912  0.647145816998048  1.0000
  C   C20       1.0  0.6102218739855657  0.7840885348867632  0.14714540515127075  1.0000
  C   C21       1.0  0.7590206951020093  0.7416125316552923  0.2970340907269672  1.0000
  C   C22       1.0  0.24098139306255462  0.2583867207137801  0.797033199024568  1.0000
  C   C23       1.0  0.24098179888473936  0.25838775700631095  0.7029676674844367  1.0000
  C   C24       1.0  0.7590198676686979  0.7416103607961232  0.20296657840071217  1.0000
  C   C25       1.0  0.903820237745883  0.6903482904255115  0.34129077570674565  1.0000
  C   C26       1.0  0.09617812272735192  0.30964883680048416  0.8412905635630918  1.0000
  C   C27       1.0  0.09617770142686777  0.30964770416735393  0.658709661980339  1.0000
  C   C28       1.0  0.9038225049374162  0.6903503738763989  0.15870855360060424  1.0000
  C   C29       1.0  0.04500457221877252  0.6388667366338014  0.296008041575675  1.0000
  C   C30       1.0  0.9549937831873833  0.3611303590534972  0.7960084747265836  1.0000
  C   C31       1.0  0.9549937780390322  0.3611303270089438  0.7039910755877655  1.0000
  C   C32       1.0  0.045004978155617416  0.638867773640044  0.20399196296078506  1.0000
  N   N1        1.0  0.5547230641903269  0.9057404343155255  0.3440705143942323  1.0000
  N   N2        1.0  0.44527611876424794  0.09425883294740342  0.8440708903022764  1.0000
  N   N3        1.0  0.44527651932293105  0.09425983647868462  0.6559299232934206  1.0000
  N   N4        1.0  0.5547230536638496  0.9057403687962452  0.15592888712333763  1.0000
  N   N5        1.0  0.5136085205078373  0.7046589456117331  0.42224417492908367  1.0000
  N   N6        1.0  0.48639294860126364  0.2953425231322271  0.9222439454357383  1.0000
  N   N7        1.0  0.48639292932722356  0.2953424031660603  0.5777556024967934  1.0000
  N   N8        1.0  0.5136089123189223  0.704659894695901  0.0777558319902809  1.0000
  O   O1        1.0  0.18076363674794038  0.0156188731614861  0.4710380985955139  1.0000
  O   O2        1.0  0.8192370156509695  0.9843804914665171  0.971038710786466  1.0000
  O   O3        1.0  0.8192374020019526  0.9843814065657313  0.5289610185683313  1.0000
  O   O4        1.0  0.18076465616545787  0.0156176590939552  0.02896172690086019  1.0000
  O   O5        1.0  0.3596929838137369  0.11752855952672552  0.3541889210075765  1.0000
  O   O6        1.0  0.6403055672066029  0.8824728439506162  0.8541888505403533  1.0000
  O   O7        1.0  0.6403074218697782  0.8824738493681608  0.6458115166803609  1.0000
  O   O8        1.0  0.3596929721550736  0.11752848696046675  0.14581158714747025  1.0000
  O   O9        1.0  0.2678055126440597  0.6069002783173544  0.5706604754900865  1.0000
  O   O10       1.0  0.7321955060378471  0.3930998765019851  0.0706599500655543  1.0000
  O   O11       1.0  0.7321973924278566  0.3931010793948175  0.42934194298334916  1.0000
  O   O12       1.0  0.2678084431854586  0.6069004210921705  0.9293391670982414  1.0000
  O   O13       1.0  0.1383571757268385  0.7938100541852435  0.5611850853844231  1.0000
  O   O14       1.0  0.8616442529799357  0.20619116308514412  0.06118516349368259  1.0000
  O   O15       1.0  0.8616475956668378  0.20619238151027733  0.4388160125653399  1.0000
  O   O16       1.0  0.13835865209183146  0.7938101946261115  0.9388146139321661  1.0000
  O   O17       1.0  0.9860065516010792  0.09605508465424613  0.2500002403627305  1.0000
  O   O18       1.0  0.01399407606376726  0.9039441260230989  0.7500001973247591  1.0000
  O   O19       1.0  0.6864331841092053  0.3287879447046508  0.25000027804721  1.0000
  O   O20       1.0  0.31356681048918494  0.6712133951398942  0.7500001596405921  1.0000
  O   O21       1.0  0.7445060403774589  0.633593160642363  0.6025214088651649  1.0000
  O   O22       1.0  0.2554924824816354  0.36640806755278293  0.10252551410881947  1.0000
  O   O23       1.0  0.2554924989840686  0.3664081702678034  0.3974763877750717  1.0000
  O   O24       1.0  0.7445071010318073  0.6335922032425784  0.89747822488831  1.0000
