data_image0
_chemical_formula_structural       Zn2H8C18N2Cl4O8
_chemical_formula_sum              "Zn2 H8 C18 N2 Cl4 O8"
_cell_length_a       8.480501237944182
_cell_length_b       9.297495690854065
_cell_length_c       16.017366255232066
_cell_angle_alpha    90.00154021268717
_cell_angle_beta     91.88571944941305
_cell_angle_gamma    89.99750632325227

_space_group_name_H-M_alt    "P 1"
_space_group_IT_number       1

loop_
  _space_group_symop_operation_xyz
  'x, y, z'

loop_
  _atom_site_type_symbol
  _atom_site_label
  _atom_site_symmetry_multiplicity
  _atom_site_fract_x
  _atom_site_fract_y
  _atom_site_fract_z
  _atom_site_occupancy
  Zn  Zn1       1.0  0.6570266601511107  0.5002512053890484  0.501230187983424  1.0000
  Zn  Zn2       1.0  0.3429774895245145  0.500258458663609  0.49877460867383416  1.0000
  H   H1        1.0  0.5612578078794924  0.7255714188716739  0.9206143651064451  1.0000
  H   H2        1.0  0.3602713495594685  0.6863738814492422  0.9378482938098288  1.0000
  H   H3        1.0  0.6397145729799047  0.6863833336862017  0.06214643418550031  1.0000
  H   H4        1.0  0.43872508825000267  0.7255886291029939  0.0793790119736002  1.0000
  H   H5        1.0  0.5939273023661967  0.2877799622731417  0.0552325778505249  1.0000
  H   H6        1.0  0.31605667872665316  0.330508246521056  0.07584912250482741  1.0000
  H   H7        1.0  0.6839648763455697  0.33049171417395945  0.9241566028940653  1.0000
  H   H8        1.0  0.40609272115317196  0.2877711822848211  0.9447737510575537  1.0000
  C   C1        1.0  0.49999148912377916  0.22114580244137014  0.49999801786676557  1.0000
  C   C2        1.0  0.36764499443189885  0.40025612277213446  0.9497897104737093  1.0000
  C   C3        1.0  0.6323673768340183  0.40026097723756493  0.050213762404745  1.0000
  C   C4        1.0  0.3421455337399378  0.43160082949442813  0.0438469024785135  1.0000
  C   C5        1.0  0.4892934024291192  0.5001321461292536  0.24822570785561746  1.0000
  C   C6        1.0  0.5107131170467126  0.5001000238139002  0.7517797484798905  1.0000
  C   C7        1.0  0.5028111777988967  0.4982457037901398  0.9177762592368667  1.0000
  C   C8        1.0  0.4971906949736677  0.4982585806126778  0.0822265994308751  1.0000
  C   C9        1.0  0.5179872814978096  0.6524321598585558  0.0474142577199856  1.0000
  C   C10       1.0  0.4820037812303538  0.652422899492116  0.9525819308355141  1.0000
  C   C11       1.0  0.4927857348029716  0.4987384406324509  0.1725569634318092  1.0000
  C   C12       1.0  0.5072184607845216  0.4987080328611809  0.8274434414101253  1.0000
  C   C13       1.0  0.5091130791364477  0.5003871647852165  0.661796095012626  1.0000
  C   C14       1.0  0.4909288032539861  0.5003967658744842  0.3382068013452084  1.0000
  C   C15       1.0  0.4999936287004869  0.9349584486107575  0.4999988688882341  1.0000
  C   C16       1.0  0.4999892407384578  0.06552755338605458  0.4999981001230155  1.0000
  C   C17       1.0  0.4999854924303619  0.7793358974824545  0.5000007312431123  1.0000
  C   C18       1.0  0.6578641794081646  0.4315879855351314  0.9561551109679769  1.0000
  N   N1        1.0  0.06536693186765768  0.5004941660652877  0.4997293193170621  1.0000
  N   N2        1.0  0.9346383462169212  0.5004790634859333  0.5002686309235074  1.0000
  Cl  Cl1       1.0  0.19229490180680384  0.40907655681739646  0.8867391841771097  1.0000
  Cl  Cl2       1.0  0.8205711024749713  0.5461376826980954  0.9359106992263905  1.0000
  Cl  Cl3       1.0  0.17942377173967117  0.5461504589800157  0.064086501925992  1.0000
  Cl  Cl4       1.0  0.8077194086915752  0.409081852733749  0.1132631988367763  1.0000
  O   O1        1.0  0.6347313220435139  0.2820735249388449  0.5005280282193213  1.0000
  O   O2        1.0  0.3652086934257141  0.2820788525804971  0.4994688399681594  1.0000
  O   O3        1.0  0.6427190924865228  0.499228511255673  0.6272874894940017  1.0000
  O   O4        1.0  0.3732695563942129  0.5015301202972112  0.6248303572792083  1.0000
  O   O5        1.0  0.6267392122158313  0.5015318436856405  0.37516766318329087  1.0000
  O   O6        1.0  0.3572922136757127  0.49922468503434214  0.3727223996723907  1.0000
  O   O7        1.0  0.6348078099822912  0.7184157803354908  0.5016293451851723  1.0000
  O   O8        1.0  0.3652108820145158  0.7184242820860547  0.4983757301500589  1.0000
