data_image0
_chemical_formula_structural       Zn2H20C36Br4N2O8
_chemical_formula_sum              "Zn2 H20 C36 Br4 N2 O8"
_cell_length_a       11.130903267707621
_cell_length_b       16.2228203949613
_cell_length_c       17.571709311036145
_cell_angle_alpha    96.02227741141883
_cell_angle_beta     89.77274802206554
_cell_angle_gamma    92.42009176338162

_space_group_name_H-M_alt    "P 1"
_space_group_IT_number       1

loop_
  _space_group_symop_operation_xyz
  'x, y, z'

loop_
  _atom_site_type_symbol
  _atom_site_label
  _atom_site_symmetry_multiplicity
  _atom_site_fract_x
  _atom_site_fract_y
  _atom_site_fract_z
  _atom_site_occupancy
  Zn  Zn1       1.0  0.4950901595199823  0.4150109877663936  0.4960799642274336  1.0000
  Zn  Zn2       1.0  0.5056210852746972  0.5857186109910799  0.5040014699595119  1.0000
  H   H1        1.0  0.38102044611497377  0.710583166896768  0.42618056637955687  1.0000
  H   H2        1.0  0.3833673024862492  0.8640852552131263  0.4270550688540168  1.0000
  H   H3        1.0  0.6610752866171836  0.8783831911586188  0.6006203094192841  1.0000
  H   H4        1.0  0.6470349253749744  0.7229704031299915  0.5911405448545821  1.0000
  H   H5        1.0  0.35075610303977806  0.12175262699786059  0.392078964662879  1.0000
  H   H6        1.0  0.6029463843007575  0.1364048514708358  0.5806393127061895  1.0000
  H   H7        1.0  0.6036185222883931  0.2900935659127696  0.5828182120788126  1.0000
  H   H8        1.0  0.3686488459047795  0.27707452169586577  0.3999637399661893  1.0000
  H   H9        1.0  0.5978211130429826  0.004742005745249899  0.5619762679784372  1.0000
  H   H10       1.0  0.4024009913551154  0.9955294330055297  0.43728321163229106  1.0000
  H   H11       1.0  0.5117014631988397  0.6173219497036012  0.26570328340731203  1.0000
  H   H12       1.0  0.51096504759181  0.61098833613768  0.12423810496019876  1.0000
  H   H13       1.0  0.48341274394927314  0.34358703998968554  0.11002642614627686  1.0000
  H   H14       1.0  0.4792042053363375  0.3519948111139824  0.2526321474676435  1.0000
  H   H15       1.0  0.5059960690177476  0.6547095521648387  0.8896579760033416  1.0000
  H   H16       1.0  0.5006162297596078  0.38734532129534216  0.8760692781435963  1.0000
  H   H17       1.0  0.5042805095899325  0.38056322939222287  0.7346344018281384  1.0000
  H   H18       1.0  0.5047090669125466  0.6458373169172446  0.7469650918071196  1.0000
  H   H19       1.0  0.49412772561478135  0.4039053752270902  0.9960976852194319  1.0000
  H   H20       1.0  0.5047271675824232  0.5945107680419354  0.003857727462211391  1.0000
  C   C1        1.0  0.49443304962126416  0.4903344431942997  0.35313816127312947  1.0000
  C   C2        1.0  0.26682005719082713  0.5023837599763681  0.5030304075375085  1.0000
  C   C3        1.0  0.505593514045337  0.5079358418600108  0.646860447535957  1.0000
  C   C4        1.0  0.7339511339515922  0.5014459495673831  0.49704288316909373  1.0000
  C   C5        1.0  0.4417485943212113  0.7508043143396461  0.46347570302468444  1.0000
  C   C6        1.0  0.44387776609852375  0.8364076338753959  0.4647577261700063  1.0000
  C   C7        1.0  0.5233031725569502  0.8855430535866441  0.5146118432608872  1.0000
  C   C8        1.0  0.5975476247767729  0.8436571950068055  0.561049824114775  1.0000
  C   C9        1.0  0.590319321367616  0.7575953635583801  0.5565224089644685  1.0000
  C   C10       1.0  0.5319620118684085  0.9758250840073329  0.520370383811013  1.0000
  C   C11       1.0  0.46743231315755207  0.024441524112475594  0.479433119708453  1.0000
  C   C12       1.0  0.4091956820293134  0.1565433867302772  0.4347889404688273  1.0000
  C   C13       1.0  0.4762070258685752  0.11471842010829647  0.4853129328748338  1.0000
  C   C14       1.0  0.5485822321782194  0.16399795742826478  0.5394078894096381  1.0000
  C   C15       1.0  0.5504974038645968  0.24964269765839472  0.5410300980386962  1.0000
  C   C16       1.0  0.41768873853565935  0.24258386385012892  0.4389296844163012  1.0000
  C   C17       1.0  0.4944525350355633  0.4851357739289525  0.2678009121008102  1.0000
  C   C18       1.0  0.5042113242473077  0.5577509101679964  0.23072327203990275  1.0000
  C   C19       1.0  0.5042636983736556  0.5535884916937801  0.15148654788617924  1.0000
  C   C20       1.0  0.496718196614637  0.4763688278111926  0.10608300130298427  1.0000
  C   C21       1.0  0.4882955586027009  0.40393186785856017  0.14412538234757477  1.0000
  C   C22       1.0  0.4861169264673676  0.4081150012386343  0.22355220971923018  1.0000
  C   C23       1.0  0.49770929183042517  0.4680057404687048  0.022799831735625296  1.0000
  C   C24       1.0  0.5021385127273275  0.5304019605531278  0.9771993142649648  1.0000
  C   C25       1.0  0.5050817681711094  0.5942910976872539  0.8557104374995603  1.0000
  C   C26       1.0  0.503343938048033  0.5219560386527248  0.8939142578367552  1.0000
  C   C27       1.0  0.5026144383015847  0.4446555038621227  0.8486652647478578  1.0000
  C   C28       1.0  0.5045113521369515  0.44028058708429535  0.7694113403074141  1.0000
  C   C29       1.0  0.5052677229989655  0.5127837848225453  0.7321804067704534  1.0000
  C   C30       1.0  0.5049128789814574  0.5898951461280432  0.7762865539545485  1.0000
  C   C31       1.0  0.12950456174501568  0.5015671422921881  0.5027904442048124  1.0000
  C   C32       1.0  0.871134667906702  0.5008112182540642  0.4971996962616315  1.0000
  C   C33       1.0  0.0672276342946816  0.5759873063939551  0.5068941753084173  1.0000
  C   C34       1.0  0.9326195409591732  0.4270788979795838  0.5008500009515513  1.0000
  C   C35       1.0  0.9421034896417098  0.5747712158406556  0.4957218254466013  1.0000
  C   C36       1.0  0.05900344096791337  0.4267589322327224  0.4964254001409074  1.0000
  Br  Br1       1.0  0.14748620251448588  0.680890654377549  0.5342058331665028  1.0000
  Br  Br2       1.0  0.8480420333168508  0.3255624072759388  0.5156332781053263  1.0000
  Br  Br3       1.0  0.8726867290742177  0.6743384349152206  0.472122070060692  1.0000
  Br  Br4       1.0  0.13010237017235937  0.32189671230464967  0.4775042375370332  1.0000
  N   N1        1.0  0.513588964079119  0.7120039881819124  0.5086180420497326  1.0000
  N   N2        1.0  0.4868197247419133  0.28838538955516657  0.4913605435066584  1.0000
  O   O1        1.0  0.4578518126884958  0.4258420087042578  0.3839205363577704  1.0000
  O   O2        1.0  0.5314367374473861  0.5590252809931258  0.3891774759051642  1.0000
  O   O3        1.0  0.32174081644377855  0.5636513094077599  0.4773110903645728  1.0000
  O   O4        1.0  0.3163433358692345  0.44179364802564436  0.5280511894541249  1.0000
  O   O5        1.0  0.4770769131655682  0.5727499444326297  0.6169252212288824  1.0000
  O   O6        1.0  0.5340966971585458  0.43941612111866846  0.609989253112765  1.0000
  O   O7        1.0  0.6770217698428738  0.4374258310074877  0.46629646900740335  1.0000
  O   O8        1.0  0.6868938344524692  0.5661840994997788  0.5285913962269859  1.0000
