data_image0
_chemical_formula_structural       Cd8H24C24I4N36
_chemical_formula_sum              "Cd8 H24 C24 I4 N36"
_cell_length_a       7.831642465001489
_cell_length_b       10.47886526700066
_cell_length_c       18.83301397700241
_cell_angle_alpha    89.99999343063006
_cell_angle_beta     89.99994219994478
_cell_angle_gamma    90.00004027316116

_space_group_name_H-M_alt    "P 1"
_space_group_IT_number       1

loop_
  _space_group_symop_operation_xyz
  'x, y, z'

loop_
  _atom_site_type_symbol
  _atom_site_label
  _atom_site_symmetry_multiplicity
  _atom_site_fract_x
  _atom_site_fract_y
  _atom_site_fract_z
  _atom_site_occupancy
  Cd  Cd1       1.0  0.40910772998622486  0.2500003998279113  0.5756109054624332  1.0000
  Cd  Cd2       1.0  0.09089051793298349  0.7500001163084421  0.0756118585882248  1.0000
  Cd  Cd3       1.0  0.5908912159572991  0.7500002119747436  0.4243886409725589  1.0000
  Cd  Cd4       1.0  0.9091084280088066  0.24999954119229528  0.9243887498117046  1.0000
  Cd  Cd5       1.0  0.020892913727784904  0.7500000301930498  0.7317341496156402  1.0000
  Cd  Cd6       1.0  0.4791075106061342  0.2499994994307927  0.2317344401522163  1.0000
  Cd  Cd7       1.0  0.979107309086011  0.2499996273080783  0.26826592780156483  1.0000
  Cd  Cd8       1.0  0.5208914353363028  0.7500001580700086  0.7682656372652588  1.0000
  H   H1        1.0  0.061041382879892594  0.03234314914552531  0.6162874276384898  1.0000
  H   H2        1.0  0.43895932047332303  0.9676573585991689  0.1162876893526672  1.0000
  H   H3        1.0  0.93895863571813  0.5323421986692409  0.3837126636474153  1.0000
  H   H4        1.0  0.5610411065562458  0.4676566085883352  0.8837123741958378  1.0000
  H   H5        1.0  0.9389588399343507  0.9676574626574067  0.3837126497786869  1.0000
  H   H6        1.0  0.5610409023398331  0.03234229890190931  0.8837129190469923  1.0000
  H   H7        1.0  0.06104158709630521  0.4676574588319512  0.6162868827873352  1.0000
  H   H8        1.0  0.43895911625774886  0.532342094611053  0.1162871722389411  1.0000
  H   H9        1.0  0.5685721306490095  0.0448446288566942  0.6891328034139832  1.0000
  H   H10       1.0  0.9314280818972167  0.9551551728484143  0.18913360007827856  1.0000
  H   H11       1.0  0.4314291765508073  0.5448443804546272  0.31086675609260783  1.0000
  H   H12       1.0  0.0685710565310131  0.4551560871443315  0.8108669952495119  1.0000
  H   H13       1.0  0.4314280921658806  0.9551559829462944  0.310866743020739  1.0000
  H   H14       1.0  0.06857214091594699  0.0448444846526641  0.8108670083213808  1.0000
  H   H15       1.0  0.5685710462636352  0.45515527704655784  0.6891327903421426  1.0000
  H   H16       1.0  0.931429166282591  0.5448445246585507  0.1891336131501191  1.0000
  H   H17       1.0  0.036538507471576095  0.2500003132419835  0.4640510390847581  1.0000
  H   H18       1.0  0.46346135538407646  0.7499991684500459  0.9640516241611364  1.0000
  H   H19       1.0  0.9634629922142252  0.7499993442595355  0.5359485073497225  1.0000
  H   H20       1.0  0.5365375905583606  0.2500004890507483  0.0359484532563386  1.0000
  H   H21       1.0  0.5594927288113993  0.2500004562410468  0.4125827996039533  1.0000
  H   H22       1.0  0.9405069436876656  0.7500002536635364  0.9125833943456528  1.0000
  H   H23       1.0  0.440507494003043  0.7499992012601453  0.5874167468307974  1.0000
  H   H24       1.0  0.05949200225521879  0.2500003581390615  0.0874166830717868  1.0000
  C   C1        1.0  0.17986443504157984  0.009746265288597998  0.6433213130827653  1.0000
  C   C2        1.0  0.3201349261030443  0.9902542368781085  0.143321623390122  1.0000
  C   C3        1.0  0.8201342854840874  0.5097462121211151  0.3566787796432109  1.0000
  C   C4        1.0  0.6798642452559632  0.490253555015528  0.8566789697012781  1.0000
  C   C5        1.0  0.8201345109013047  0.9902543465140002  0.3566787643346743  1.0000
  C   C6        1.0  0.6798640198387531  0.009745420622635902  0.8566789850098075  1.0000
  C   C7        1.0  0.17986466045988436  0.4902553539833435  0.6433207667917527  1.0000
  C   C8        1.0  0.32013470068601896  0.5097451481834696  0.14332110771622547  1.0000
  C   C9        1.0  0.43645169315605864  0.016764264377876304  0.6812711058930743  1.0000
  C   C10       1.0  0.0635475762685616  0.9832352756571865  0.1812715246886114  1.0000
  C   C11       1.0  0.5635470339541512  0.5167640839255228  0.3187289863857359  1.0000
  C   C12       1.0  0.9364515885060951  0.4832356910410099  0.8187285378675354  1.0000
  C   C13       1.0  0.5635472527870179  0.9832353931229749  0.3187284405419462  1.0000
  C   C14       1.0  0.9364513696732286  0.0167643818435579  0.8187290837113179  1.0000
  C   C15       1.0  0.4364519119882856  0.4832355735752786  0.6812710910317391  1.0000
  C   C16       1.0  0.0635486343081482  0.516764920761922  0.1812715395496411  1.0000
  C   C17       1.0  0.15615840617146404  0.2500003477706585  0.4346430816027933  1.0000
  C   C18       1.0  0.3438402508877444  0.7499991399885034  0.9346437170476632  1.0000
  C   C19       1.0  0.8438418166436178  0.7499993097305835  0.5653559338495028  1.0000
  C   C20       1.0  0.6561586950542448  0.2499995632104941  0.06535636036984017  1.0000
  C   C21       1.0  0.42119096614185036  0.25000042029049757  0.40809284108022575  1.0000
  C   C22       1.0  0.07881413944276257  0.7500000272499961  0.908093588120735  1.0000
  C   C23       1.0  0.5788092566725921  0.7499992372106875  0.5919067053545248  1.0000
  C   C24       1.0  0.9211899139849322  0.2500005845538951  0.09190702027808577  1.0000
  I   I1        1.0  0.7640715831459203  0.2500004931338111  0.577095988657426  1.0000
  I   I2        1.0  0.7359276233074538  0.7500002859883281  0.07709634973031848  1.0000
  I   I3        1.0  0.23592863966896968  0.7500001186691847  0.42290355777729616  1.0000
  I   I4        1.0  0.2640713226347841  0.2500003258142129  0.9229042586695826  1.0000
  N   N1        1.0  0.32593345064159246  0.07886447517363851  0.6378845507695416  1.0000
  N   N2        1.0  0.17406592364285697  0.9211360281147807  0.13788492698611068  1.0000
  N   N3        1.0  0.6740666116058663  0.5788643439672754  0.36211500656963114  1.0000
  N   N4        1.0  0.8259331828670042  0.4211354220480957  0.8621151395269138  1.0000
  N   N5        1.0  0.6740667721722032  0.9211351823274967  0.3621155266476634  1.0000
  N   N6        1.0  0.8259330222993879  0.07886458368776772  0.8621156814137904  1.0000
  N   N7        1.0  0.3259336112096634  0.4211362678357631  0.6378840088826365  1.0000
  N   N8        1.0  0.1740657630754257  0.5788642354526985  0.1378849378905613  1.0000
  N   N9        1.0  0.19953883883667334  0.9110509167191694  0.6871883957609412  1.0000
  N   N10       1.0  0.30046169315809107  0.08894862209537993  0.1871887717815923  1.0000
  N   N11       1.0  0.8004615350816451  0.4110504105714626  0.3128122023768682  1.0000
  N   N12       1.0  0.6995383785494552  0.5889484113143483  0.8128118468799527  1.0000
  N   N13       1.0  0.8004613839771223  0.0889487407819658  0.3128116816562709  1.0000
  N   N14       1.0  0.6995385296561593  0.9110519897075593  0.8128113056355843  1.0000
  N   N15       1.0  0.19953868773215083  0.5889492469296724  0.6871878750403368  1.0000
  N   N16       1.0  0.3004605673925341  0.4110502918846493  0.1871882305375578  1.0000
  N   N17       1.0  0.3642960774013558  0.9159579774311407  0.7117096616803095  1.0000
  N   N18       1.0  0.1357031184574424  0.0840415563238182  0.2117101073881003  1.0000
  N   N19       1.0  0.6357017473782277  0.4159573895835109  0.2882909361453656  1.0000
  N   N20       1.0  0.8642969486465618  0.5840423916630187  0.7882905115860837  1.0000
  N   N21       1.0  0.6357028685410809  0.0840416800696602  0.28829041573716546  1.0000
  N   N22       1.0  0.8642958274849947  0.9159581011769831  0.7882899700293748  1.0000
  N   N23       1.0  0.36429592169220365  0.5840422679168995  0.7117096722548267  1.0000
  N   N24       1.0  0.1357032741672342  0.4159572658381166  0.21170956583112135  1.0000
  N   N25       1.0  0.16634409430808006  0.250000357731068  0.3640866617961152  1.0000
  N   N26       1.0  0.33365601014762797  0.7499991445856793  0.864087301529558  1.0000
  N   N27       1.0  0.8336548516349963  0.749999299769783  0.6359128846389055  1.0000
  N   N28       1.0  0.6663442126657202  0.24999955861365925  0.13591277588767528  1.0000
  N   N29       1.0  0.3364361494365227  0.25000040427970294  0.3469794332447762  1.0000
  N   N30       1.0  0.1635639963658164  0.7500010101702088  0.8469801445986676  1.0000
  N   N31       1.0  0.6635640733783674  0.7500002075232858  0.653020113189946  1.0000
  N   N32       1.0  0.8364349495764286  0.2499996016323323  0.1530204638012336  1.0000
  N   N33       1.0  0.3138647520884773  0.250000386194337  0.4646849737494918  1.0000
  N   N34       1.0  0.1861351092364387  0.750001003970553  0.9646851446168653  1.0000
  N   N35       1.0  0.6861354707259651  0.749999271306855  0.5353145726852588  1.0000
  N   N36       1.0  0.8138638367068933  0.25000056213384875  0.03531493280054579  1.0000
