data_image0
_chemical_formula_structural       Cd6H102C150N42O24
_chemical_formula_sum              "Cd6 H102 C150 N42 O24"
_cell_length_a       20.00391519354963
_cell_length_b       20.003902125672656
_cell_length_c       21.201241541324674
_cell_angle_alpha    78.71613617483948
_cell_angle_beta     78.71667080657835
_cell_angle_gamma    83.60908642107195

_space_group_name_H-M_alt    "P 1"
_space_group_IT_number       1

loop_
  _space_group_symop_operation_xyz
  'x, y, z'

loop_
  _atom_site_type_symbol
  _atom_site_label
  _atom_site_symmetry_multiplicity
  _atom_site_fract_x
  _atom_site_fract_y
  _atom_site_fract_z
  _atom_site_occupancy
  Cd  Cd1       1.0  0.9766755124420995  0.2205251250679581  0.5548040279793155  1.0000
  Cd  Cd2       1.0  0.7794734928413902  0.02332583533742391  0.945196851093705  1.0000
  Cd  Cd3       1.0  0.0233254296719281  0.7794763805475283  0.4451979764396726  1.0000
  Cd  Cd4       1.0  0.2205212704526716  0.9766816991992398  0.054802352132746514  1.0000
  Cd  Cd5       1.0  0.5052951833464333  0.4947002706094423  0.250000799547621  1.0000
  Cd  Cd6       1.0  0.49470217527370147  0.5052953601239879  0.7500011578007745  1.0000
  H   H1        1.0  0.1426313184226728  0.9404792440937797  0.2848625748731664  1.0000
  H   H2        1.0  0.059522125115364595  0.8573646188855406  0.2151395002575569  1.0000
  H   H3        1.0  0.8573639788947102  0.059525209108045415  0.715138539016408  1.0000
  H   H4        1.0  0.9404742389788225  0.1426362258236367  0.7848654100916903  1.0000
  H   H5        1.0  0.083241891408278  0.9695951824501634  0.3931536093808176  1.0000
  H   H6        1.0  0.030404225206915204  0.9167563011765552  0.10684897235438479  1.0000
  H   H7        1.0  0.916756466793757  0.03041159421684369  0.606846457167144  1.0000
  H   H8        1.0  0.9695911266160593  0.08324871759334229  0.8931572098472316  1.0000
  H   H9        1.0  0.9900301840005311  0.1543754341511416  0.29284462219860063  1.0000
  H   H10       1.0  0.845625023652147  0.009966292518164697  0.20715698562672458  1.0000
  H   H11       1.0  0.0099697052778538  0.8456322493375337  0.7071549701400741  1.0000
  H   H12       1.0  0.1543646985959626  0.9900294229104746  0.7928492709525656  1.0000
  H   H13       1.0  0.054921948346994  0.12689936980273586  0.1850856563410943  1.0000
  H   H14       1.0  0.873102190513478  0.9450738068342871  0.31491622902959904  1.0000
  H   H15       1.0  0.9450779523400783  0.8731078139997875  0.8149149744179098  1.0000
  H   H16       1.0  0.1268931638509514  0.054924059226379995  0.6850899288486758  1.0000
  H   H17       1.0  0.8608911501674895  0.9916614025451053  0.4725635838877622  1.0000
  H   H18       1.0  0.0083470489533042  0.13910092673913246  0.027437424318094393  1.0000
  H   H19       1.0  0.13910718648340037  0.0083479080275595  0.5274345787990526  1.0000
  H   H20       1.0  0.9916590166197637  0.860889481340934  0.972564327028195  1.0000
  H   H21       1.0  0.9350429117241179  0.9556423154004605  0.42517891959852255  1.0000
  H   H22       1.0  0.04436064337979669  0.06494752452000799  0.07482394879703241  1.0000
  H   H23       1.0  0.06495493527378218  0.0443644988738825  0.5748212390705021  1.0000
  H   H24       1.0  0.9556403050833779  0.9350412102103717  0.9251781799548057  1.0000
  H   H25       1.0  0.8840265460468542  0.023289977327294792  0.3871297412894776  1.0000
  H   H26       1.0  0.9767155343519391  0.11596665442987589  0.11287115661814785  1.0000
  H   H27       1.0  0.11597385063336671  0.9767171536643744  0.6128693881025313  1.0000
  H   H28       1.0  0.023292581104406896  0.8840276969990626  0.8871308441054638  1.0000
  H   H29       1.0  0.2774289186741612  0.5025409901559215  0.34527963655662575  1.0000
  H   H30       1.0  0.49745968169911947  0.7225638333333747  0.15471621647832023  1.0000
  H   H31       1.0  0.7225658129406796  0.49745475766442143  0.6547162049160846  1.0000
  H   H32       1.0  0.5025442820085502  0.27743535667237035  0.8452809334200069  1.0000
  H   H33       1.0  0.1648289468856916  0.4712752899813566  0.4164916754708443  1.0000
  H   H34       1.0  0.5287205986881033  0.8351665195591166  0.08350517446520199  1.0000
  H   H35       1.0  0.8351704451422961  0.5287206900088962  0.5835088749729492  1.0000
  H   H36       1.0  0.47127977264766224  0.1648324086726092  0.9164913099576922  1.0000
  H   H37       1.0  0.2656683727184089  0.28869284334734857  0.5119020884441738  1.0000
  H   H38       1.0  0.7113075020766715  0.734336091928334  0.9880945056053676  1.0000
  H   H39       1.0  0.7343361262770144  0.7113068442120964  0.48809721915326065  1.0000
  H   H40       1.0  0.2886928515120388  0.2656638407435494  0.011900371725509703  1.0000
  H   H41       1.0  0.3775058817163169  0.3200823170714528  0.4381971766805606  1.0000
  H   H42       1.0  0.6799235510761433  0.6224955129384995  0.06179625310371508  1.0000
  H   H43       1.0  0.6224954778034402  0.679915990648894  0.56179593418274  1.0000
  H   H44       1.0  0.320077827456906  0.3775033248750361  0.938198637831114  1.0000
  H   H45       1.0  0.18759201250234975  0.42667629173789823  0.5962169973864918  1.0000
  H   H46       1.0  0.5733157456418141  0.8124153092392276  0.9037811451886955  1.0000
  H   H47       1.0  0.8124130446036019  0.5733167609373737  0.4037863225812899  1.0000
  H   H48       1.0  0.42667641092647557  0.18759440701088445  0.09621389521311842  1.0000
  H   H49       1.0  0.10073782594724182  0.44975963212196757  0.6295420355863115  1.0000
  H   H50       1.0  0.5502341612000025  0.8992704513701996  0.8704574665208469  1.0000
  H   H51       1.0  0.8992687761780118  0.5502348524003365  0.3704621204950769  1.0000
  H   H52       1.0  0.44976214837959816  0.100740049546836  0.12954274579873018  1.0000
  H   H53       1.0  0.13832408534489823  0.4889575926116904  0.5493451173445365  1.0000
  H   H54       1.0  0.5110385056861732  0.8616838938110124  0.9506549309373895  1.0000
  H   H55       1.0  0.8616820220516461  0.5110405236099992  0.4506607871398387  1.0000
  H   H56       1.0  0.488954720191387  0.13832528301315958  0.04934425188313437  1.0000
  H   H57       1.0  0.1304409871528662  0.1352719118218388  0.3358061821241379  1.0000
  H   H58       1.0  0.8647235553037476  0.8695552609856492  0.1641989675139541  1.0000
  H   H59       1.0  0.869559452633247  0.8647260626481311  0.6641966068772122  1.0000
  H   H60       1.0  0.1352682409148542  0.1304408442425355  0.8358096401498969  1.0000
  H   H61       1.0  0.21531833445283158  0.2230225866079111  0.3119776980077447  1.0000
  H   H62       1.0  0.7769752461885843  0.7846765041959713  0.18802112095010398  1.0000
  H   H63       1.0  0.7846810525012343  0.7769774770248715  0.6880225308003531  1.0000
  H   H64       1.0  0.2230210519985007  0.21531609721055392  0.8119773864408798  1.0000
  H   H65       1.0  0.20645943389661886  0.308325896133347  0.38473937224450344  1.0000
  H   H66       1.0  0.691674663741331  0.7935376246017682  0.11525666533297847  1.0000
  H   H67       1.0  0.7935414473734496  0.6916755486680658  0.6152569951907552  1.0000
  H   H68       1.0  0.30832824840951645  0.2064549673242126  0.8847377270692363  1.0000
  H   H69       1.0  0.7507485573655328  0.293371721026439  0.5404217499445139  1.0000
  H   H70       1.0  0.7066303021214252  0.2492499023424202  0.9595791619491295  1.0000
  H   H71       1.0  0.24925492175588457  0.7066290664591861  0.45957801379761076  1.0000
  H   H72       1.0  0.2933691393382317  0.7507507268584349  0.04042613517100331  1.0000
  H   H73       1.0  0.6467887668546483  0.3557482758368379  0.4989774470671549  1.0000
  H   H74       1.0  0.6442487918109236  0.35321059466124166  0.0010181488108358307  1.0000
  H   H75       1.0  0.35321414276192803  0.6442432913776273  0.5010166734324955  1.0000
  H   H76       1.0  0.35574964878981047  0.6467896202038049  0.9989893104690494  1.0000
  H   H77       1.0  0.777782035512814  0.46465020621953107  0.33393804876420324  1.0000
  H   H78       1.0  0.5353485624602783  0.2222167702159297  0.1660597777266233  1.0000
  H   H79       1.0  0.2222240123078123  0.5353473393662469  0.6660623176594882  1.0000
  H   H80       1.0  0.4646441737750849  0.7777776441787978  0.8339409567372726  1.0000
  H   H81       1.0  0.8809754726614967  0.3983908382607879  0.37451821562736853  1.0000
  H   H82       1.0  0.6016126725085797  0.11902262971803881  0.1254842694449252  1.0000
  H   H83       1.0  0.1190291074520076  0.6016171078048341  0.6254889041742544  1.0000
  H   H84       1.0  0.39838313221603266  0.8809751379212188  0.8745161593285644  1.0000
  H   H85       1.0  0.6061274993864599  0.5819780053474658  0.4734662172063225  1.0000
  H   H86       1.0  0.41802711094903333  0.3938796607534982  0.026524679421072447  1.0000
  H   H87       1.0  0.3938774639139027  0.4180200644607411  0.5265285975527334  1.0000
  H   H88       1.0  0.5819737690476074  0.6061284269353139  0.9734718112605592  1.0000
  H   H89       1.0  0.6789409582574706  0.5219510657646395  0.4787655387659413  1.0000
  H   H90       1.0  0.47805255153716786  0.3210668287779725  0.021227040829451493  1.0000
  H   H91       1.0  0.32106454540276985  0.4780454623099217  0.5212318293843907  1.0000
  H   H92       1.0  0.5219488206485252  0.6789427355654851  0.9787676517160618  1.0000
  H   H93       1.0  0.5969122068246762  0.49915764482547337  0.5215381672397044  1.0000
  H   H94       1.0  0.5008465993476464  0.4030936701838285  0.9784546098231175  1.0000
  H   H95       1.0  0.40309174547610377  0.5008400005112392  0.47845787018181335  1.0000
  H   H96       1.0  0.49915377578322045  0.5969139503583208  0.021542541651271556  1.0000
  H   H97       1.0  0.7216118461418759  0.33475920770372614  0.33377743688878775  1.0000
  H   H98       1.0  0.6652417378039672  0.2783862424018579  0.1662213653924169  1.0000
  H   H99       1.0  0.2783956440234192  0.6652401781941178  0.6662142717525867  1.0000
  H   H100      1.0  0.3347525041524904  0.7216131421857098  0.833776694231922  1.0000
  H   H101      1.0  0.7400924566086359  0.25991928963722444  0.2499948639283787  1.0000
  H   H102      1.0  0.2599134264181799  0.7400872908420979  0.7499905689185128  1.0000
  C   C1        1.0  0.14151900137644446  0.018093693375725195  0.1643472661376393  1.0000
  C   C2        1.0  0.9819067407873375  0.8584759573278691  0.33565488806383564  1.0000
  C   C3        1.0  0.8584777940592403  0.9819126558844076  0.835650357204699  1.0000
  C   C4        1.0  0.018087598771621995  0.14152505808200294  0.664352269764251  1.0000
  C   C5        1.0  0.10261700235014358  0.0326573759485527  0.22909365310216154  1.0000
  C   C6        1.0  0.967343400624628  0.8973768419099885  0.270907006742334  1.0000
  C   C7        1.0  0.8973777723526055  0.9673496589019523  0.7709065885446263  1.0000
  C   C8        1.0  0.0326514323932088  0.10262309597752049  0.7290983778162001  1.0000
  C   C9        1.0  0.10994947779363429  0.987578777025341  0.2872473284446356  1.0000
  C   C10       1.0  0.0124215249656459  0.8900439902803042  0.21275462059847428  1.0000
  C   C11       1.0  0.8900458068470272  0.012426685684481195  0.7127526481015635  1.0000
  C   C12       1.0  0.9875738281289584  0.10995642995738564  0.7872515124132349  1.0000
  C   C13       1.0  0.076178800162559  0.0031195378017514  0.3472903415199937  1.0000
  C   C14       1.0  0.9968799919745878  0.9238174813910974  0.15271010004335744  1.0000
  C   C15       1.0  0.9238185318289068  0.9968867991902433  0.6527095384445046  1.0000
  C   C16       1.0  0.0031153509775592005  0.0761849730661055  0.8472951675275341  1.0000
  C   C17       1.0  0.0337587838502387  0.06340895530566121  0.3481125522935784  1.0000
  C   C18       1.0  0.9365914411729931  0.9662380658054488  0.1518904715924947  1.0000
  C   C19       1.0  0.9662400817518347  0.9365993132195175  0.6518871253641833  1.0000
  C   C20       1.0  0.0634044218577117  0.0337628266467433  0.8481154703751059  1.0000
  C   C21       1.0  0.023775009225865097  0.10784448269432542  0.2904552722271774  1.0000
  C   C22       1.0  0.8921573392078487  0.9762251272446177  0.20954518642396638  1.0000
  C   C23       1.0  0.9762274183279447  0.8921619728426506  0.7095421783576796  1.0000
  C   C24       1.0  0.1078369813378259  0.023775358072064996  0.7904601913325919  1.0000
  C   C25       1.0  0.0592464461367115  0.09256701144710179  0.23104731505647183  1.0000
  C   C26       1.0  0.9074340618784407  0.9407518941904558  0.2689543280228647  1.0000
  C   C27       1.0  0.9407534482119999  0.9074406771094135  0.7689527470308448  1.0000
  C   C28       1.0  0.092560772407424  0.05924753387522231  0.731051155458708  1.0000
  C   C29       1.0  0.9039976806065367  0.0033278305014335075  0.43251515582451106  1.0000
  C   C30       1.0  0.9966750868796267  0.09599362575968232  0.06748678646607689  1.0000
  C   C31       1.0  0.0960001524484113  0.996678458747553  0.5674836925216269  1.0000
  C   C32       1.0  0.003324350784922099  0.9039983111307561  0.9325178436025681  1.0000
  C   C33       1.0  0.9424579622377038  0.05487319857726186  0.4484143590355102  1.0000
  C   C34       1.0  0.9451284851343613  0.0575374104817357  0.051586976105007065  1.0000
  C   C35       1.0  0.05754194352149972  0.9451319459379162  0.5515866674156626  1.0000
  C   C36       1.0  0.05486891024611399  0.9424577459047329  0.9484183684069336  1.0000
  C   C37       1.0  0.0179480718870124  0.1289018165325544  0.44145851275160203  1.0000
  C   C38       1.0  0.8710969151578638  0.9820506537688519  0.05854553640727284  1.0000
  C   C39       1.0  0.9820544317253378  0.8711006263116446  0.5585458359499711  1.0000
  C   C40       1.0  0.1288994654171347  0.017947651966828498  0.9414608080544724  1.0000
  C   C41       1.0  0.4000745371340527  0.4301667841448875  0.3433216369327354  1.0000
  C   C42       1.0  0.5698329106949913  0.5999230602634923  0.15667430027567517  1.0000
  C   C43       1.0  0.599925853214998  0.5698326741800344  0.6566766275617013  1.0000
  C   C44       1.0  0.4301663583770506  0.4000733079204437  0.8433148772776208  1.0000
  C   C45       1.0  0.3332059098135858  0.41265240291682653  0.38775512883906776  1.0000
  C   C46       1.0  0.5873481044980196  0.666791860944734  0.11224087657807054  1.0000
  C   C47       1.0  0.6667939503198356  0.5873445185670505  0.6122413736484233  1.0000
  C   C48       1.0  0.41265329431634257  0.33320699714016644  0.8877558933513329  1.0000
  C   C49       1.0  0.27383293860020075  0.4559529231253236  0.3819204543952424  1.0000
  C   C50       1.0  0.5440473237468736  0.7261651067075477  0.1180755795410704  1.0000
  C   C51       1.0  0.7261664103290925  0.5440440359658893  0.6180761402133185  1.0000
  C   C52       1.0  0.4559540699953644  0.273835790664691  0.8819207946961711  1.0000
  C   C53       1.0  0.21169493973460615  0.4387716699569922  0.421536714310065  1.0000
  C   C54       1.0  0.5612266147426722  0.7883042298629732  0.07845928973406299  1.0000
  C   C55       1.0  0.7883054442778814  0.5612262487667365  0.5784609074562042  1.0000
  C   C56       1.0  0.4387737730721142  0.21169420375044007  0.9215387028578091  1.0000
  C   C57       1.0  0.2097154396808988  0.37827437242997763  0.46754120778986424  1.0000
  C   C58       1.0  0.6217245719628792  0.7902848723341195  0.032454225037937934  1.0000
  C   C59       1.0  0.7902849481320898  0.6217261055386132  0.5324568588584812  1.0000
  C   C60       1.0  0.3782767964295032  0.2097139553437373  0.9675397263996004  1.0000
  C   C61       1.0  0.2688372614542658  0.33544189340150876  0.47532105097011623  1.0000
  C   C62       1.0  0.6645591843957064  0.7311646424934111  0.024676453214361446  1.0000
  C   C63       1.0  0.731163136499383  0.6645585947027683  0.5246779551755124  1.0000
  C   C64       1.0  0.33544320893742  0.2688371790364742  0.9753176599400817  1.0000
  C   C65       1.0  0.3304244772197293  0.35263858796863445  0.4347395316806343  1.0000
  C   C66       1.0  0.6473634484370692  0.6695742513010288  0.06525623555453555  1.0000
  C   C67       1.0  0.6695748793141547  0.6473594009019266  0.5652578045791258  1.0000
  C   C68       1.0  0.35263947384724753  0.33042652818137697  0.9347393925708546  1.0000
  C   C69       1.0  0.135942132179359  0.4409195172675099  0.5849511310180873  1.0000
  C   C70       1.0  0.5590764777839822  0.8640643715322581  0.915044703008526  1.0000
  C   C71       1.0  0.8640603448186965  0.5590772769937756  0.41505054784779827  1.0000
  C   C72       1.0  0.4409213032978342  0.13594442121535621  0.08494942298460734  1.0000
  C   C73       1.0  0.11118526551710768  0.3858626361901258  0.559810636980913  1.0000
  C   C74       1.0  0.614133237889554  0.8888189052748173  0.9401858043610574  1.0000
  C   C75       1.0  0.8888162004813721  0.6141337335996654  0.4401922645474415  1.0000
  C   C76       1.0  0.3858645736178374  0.11118582916945739  0.0598109920109877  1.0000
  C   C77       1.0  0.1060564943750961  0.3092548881658317  0.4999416186101158  1.0000
  C   C78       1.0  0.6907422244371375  0.8939468609943263  5.673197760095685e-05  1.0000
  C   C79       1.0  0.8939475301783306  0.6907423182988026  0.5000610942154609  1.0000
  C   C80       1.0  0.30925865429866667  0.106053559095578  0.9999393635551002  1.0000
  C   C81       1.0  0.0745943206088242  0.17361388982924097  0.4220894188357107  1.0000
  C   C82       1.0  0.8263825769622956  0.9254042679645095  0.07791467702055134  1.0000
  C   C83       1.0  0.9254076730692162  0.8263860364452713  0.5779150468534906  1.0000
  C   C84       1.0  0.1736137719244937  0.07459247283077991  0.9220886759698175  1.0000
  C   C85       1.0  0.1270783843095273  0.172587144822792  0.3675078367261476  1.0000
  C   C86       1.0  0.8274074075163468  0.8729178649135109  0.13249778784996377  1.0000
  C   C87       1.0  0.8729225818917072  0.8274108072433601  0.6324962694000648  1.0000
  C   C88       1.0  0.1725874255050925  0.12707798426362868  0.8675074485956243  1.0000
  C   C89       1.0  0.1745885676179952  0.22167495843620344  0.354584277808577  1.0000
  C   C90       1.0  0.7783215992798774  0.8254098717591987  0.14541769357620635  1.0000
  C   C91       1.0  0.8254133778910172  0.7783259418714225  0.6454157622967429  1.0000
  C   C92       1.0  0.2216757453973059  0.17458523394887493  0.8545829534492881  1.0000
  C   C93       1.0  0.17019680411895877  0.2692709203562842  0.3955123275979844  1.0000
  C   C94       1.0  0.7307262509200781  0.8298016180266149  0.10448788959987348  1.0000
  C   C95       1.0  0.8298061511233923  0.7307288698894823  0.6044863168653621  1.0000
  C   C96       1.0  0.26927413056174027  0.17019118727522914  0.8955093121508924  1.0000
  C   C97       1.0  0.11788817921463848  0.26483068074002597  0.4507269677499366  1.0000
  C   C98       1.0  0.7351673415068732  0.8821132358427234  0.0492718246668886  1.0000
  C   C99       1.0  0.8821132766413838  0.7351677232692707  0.549275068337593  1.0000
  C   C100      1.0  0.2648340661819192  0.11788409784450243  0.9507257117802864  1.0000
  C   C101      1.0  0.8836782657205761  0.3044196315406111  0.4834287981888465  1.0000
  C   C102      1.0  0.6955881937857669  0.11632379958246726  0.01657201979719502  1.0000
  C   C103      1.0  0.11632731525544672  0.6955846401504502  0.5165760113400779  1.0000
  C   C104      1.0  0.30441985321123605  0.8836817273841576  0.9834240466303257  1.0000
  C   C105      1.0  0.8212830092013803  0.3425681081407959  0.4595351143098938  1.0000
  C   C106      1.0  0.6574355814473662  0.1787159467719803  0.04046526645585401  1.0000
  C   C107      1.0  0.1787200030790359  0.6574353167397435  0.540468944424525  1.0000
  C   C108      1.0  0.3425637902939087  0.8212861460124684  0.9595336271627773  1.0000
  C   C109      1.0  0.755639054286668  0.3304654335191658  0.49501413990142845  1.0000
  C   C110      1.0  0.6695342527882957  0.2443619446117395  0.004983562152652637  1.0000
  C   C111      1.0  0.2443664721891565  0.6695321395382692  0.504985379146035  1.0000
  C   C112      1.0  0.3304636182986158  0.7556392717580775  0.9950186241671304  1.0000
  C   C113      1.0  0.6982246084038906  0.36520320735837686  0.4722132427283938  1.0000
  C   C114      1.0  0.6347962305904246  0.3017743100081276  0.02778168666468867  1.0000
  C   C115      1.0  0.301779838625599  0.63479080627895  0.5277810462901371  1.0000
  C   C116      1.0  0.3652011584480945  0.6982254398427087  0.9722232372885103  1.0000
  C   C117      1.0  0.7071439548226836  0.41306928905513024  0.4142482483785416  1.0000
  C   C118      1.0  0.5869279732842756  0.2928552287225515  0.08574971586796916  1.0000
  C   C119      1.0  0.29286101101553896  0.5869257167542159  0.5857466901701258  1.0000
  C   C120      1.0  0.4130658385951236  0.7071422302026065  0.9142558777992633  1.0000
  C   C121      1.0  0.7723719656589411  0.42657798079495984  0.3787681522441844  1.0000
  C   C122      1.0  0.5734211202793348  0.2276271197863622  0.12122922358329898  1.0000
  C   C123      1.0  0.22763200818938864  0.5734212193464644  0.6212299371514263  1.0000
  C   C124      1.0  0.42657365696847194  0.772368673644543  0.8787708456272015  1.0000
  C   C125      1.0  0.8292500701234999  0.3903894438923317  0.4012239365858576  1.0000
  C   C126      1.0  0.609611621825472  0.1707499269366153  0.09877563763031817  1.0000
  C   C127      1.0  0.17075550578219634  0.6096148227308902  0.5987804031944322  1.0000
  C   C128      1.0  0.3903836653566444  0.8292483830639771  0.9012243145925466  1.0000
  C   C129      1.0  0.6243208137353449  0.5279984353912753  0.4759672589226369  1.0000
  C   C130      1.0  0.47200223365902616  0.375685434170748  0.024026876711800982  1.0000
  C   C131      1.0  0.37568673220717136  0.4719969175424339  0.5240294688408724  1.0000
  C   C132      1.0  0.5279986400010515  0.6243211139168706  0.9759689712416771  1.0000
  C   C133      1.0  0.6113137066114334  0.5041832216170833  0.4177851837769566  1.0000
  C   C134      1.0  0.495820119450613  0.3886906707784447  0.08220601200564198  1.0000
  C   C135      1.0  0.38869075182494583  0.4958123366892763  0.5822102177183766  1.0000
  C   C136      1.0  0.5041817854939623  0.6113122333416499  0.9177903441670026  1.0000
  C   C137      1.0  0.6195530867826663  0.4450162598002194  0.33911515969273853  1.0000
  C   C138      1.0  0.5549799603282324  0.3804418401934768  0.1608847375962483  1.0000
  C   C139      1.0  0.3804457839023243  0.5549777033065055  0.6608844693183613  1.0000
  C   C140      1.0  0.4450133289419327  0.6195520673147997  0.8391197616587789  1.0000
  C   C141      1.0  0.6366478309705171  0.395266052629765  0.294769138893173  1.0000
  C   C142      1.0  0.6047258602965755  0.36334537170026243  0.20523269010588763  1.0000
  C   C143      1.0  0.3633510536592297  0.6047263911471318  0.7052317263843476  1.0000
  C   C144      1.0  0.39526485267339234  0.636646659218144  0.7947703167034206  1.0000
  C   C145      1.0  0.689230544087998  0.34260368791611745  0.2969693966501197  1.0000
  C   C146      1.0  0.6573926643223301  0.3107681593804017  0.20303330894593333  1.0000
  C   C147      1.0  0.3107744382274475  0.6573928676300937  0.7030271241239916  1.0000
  C   C148      1.0  0.3426010765706522  0.6892312729501812  0.796965782296759  1.0000
  C   C149      1.0  0.6992195728480154  0.3007811858920205  0.2500005996178487  1.0000
  C   C150      1.0  0.3007828458385617  0.6992186166218843  0.7499957882233375  1.0000
  N   N1        1.0  0.0006162851468544994  0.08136676189113963  0.40966089558894225  1.0000
  N   N2        1.0  0.9186317330348643  0.999382731410435  0.09034185745017707  1.0000
  N   N3        1.0  0.999384655697341  0.9186372979013696  0.5903410839634802  1.0000
  N   N4        1.0  0.08136413126567278  0.0006156068647342998  0.9096641093839963  1.0000
  N   N5        1.0  0.9254830303670332  0.0844009933393295  0.5007977888143811  1.0000
  N   N6        1.0  0.9156004572783588  0.07451487074578715  0.9992040457798196  1.0000
  N   N7        1.0  0.07451639587984002  0.9156016650131987  0.49920617311629195  1.0000
  N   N8        1.0  0.0843979503679293  0.9254822446455223  0.0008002490491775578  1.0000
  N   N9        1.0  0.9725269133933238  0.13019322710282213  0.49617804292811474  1.0000
  N   N10       1.0  0.8698072302761802  0.027470580339624507  0.003823395765984055  1.0000
  N   N11       1.0  0.027474580489276004  0.8698062370928668  0.5038275533024859  1.0000
  N   N12       1.0  0.1301911748358435  0.9725255103401763  0.9961806271604488  1.0000
  N   N13       1.0  0.14549483655422077  0.3588167775052469  0.5063099895434675  1.0000
  N   N14       1.0  0.6411817768682511  0.8545044250543797  0.9936871485885632  1.0000
  N   N15       1.0  0.8545055968935246  0.6411817017187147  0.49369223078619484  1.0000
  N   N16       1.0  0.3588216249337819  0.14549270752511487  0.006305321887914808  1.0000
  N   N17       1.0  0.05435388398759498  0.35460570520982765  0.5848167877217348  1.0000
  N   N18       1.0  0.645391517091234  0.9456478381916111  0.9151825882803665  1.0000
  N   N19       1.0  0.9456491257657476  0.6453885175384573  0.4151867028842275  1.0000
  N   N20       1.0  0.3546078863400552  0.05435377517804339  0.0848192227531754  1.0000
  N   N21       1.0  0.051495909032141206  0.30727712446268646  0.5473347390538309  1.0000
  N   N22       1.0  0.6927194193826267  0.9485076934357224  0.9526678959933432  1.0000
  N   N23       1.0  0.948506598387901  0.6927197002056359  0.4526697583039195  1.0000
  N   N24       1.0  0.3072764144905378  0.05149674749797129  0.047335474518384005  1.0000
  N   N25       1.0  0.07188174692203832  0.2180819384111743  0.46250018427604545  1.0000
  N   N26       1.0  0.7819172796061054  0.9281166317486863  0.03750179968816523  1.0000
  N   N27       1.0  0.9281222522761465  0.7819193314246318  0.5375003279192543  1.0000
  N   N28       1.0  0.2180836675854394  0.07187670151390081  0.9625003782535728  1.0000
  N   N29       1.0  0.6484937413865808  0.4505057112917966  0.39155761897452385  1.0000
  N   N30       1.0  0.5494957608511298  0.3515052198909813  0.10844104430616146  1.0000
  N   N31       1.0  0.35150765742958606  0.5494911024379192  0.6084390768984136  1.0000
  N   N32       1.0  0.4504990683662129  0.6484921587516652  0.8915638953702967  1.0000
  N   N33       1.0  0.5630466071299409  0.5302277319026844  0.38311807642148904  1.0000
  N   N34       1.0  0.4697755114837107  0.4369589713271155  0.11687305765105548  1.0000
  N   N35       1.0  0.43695637727355313  0.4697644211512113  0.6168829913847845  1.0000
  N   N36       1.0  0.5302284116541358  0.5630483555566528  0.8831206304840009  1.0000
  N   N37       1.0  0.5684939554322456  0.49324858938943794  0.3346041859303099  1.0000
  N   N38       1.0  0.5067526617474697  0.4315058474735806  0.16539099972907675  1.0000
  N   N39       1.0  0.4315064450610607  0.5067467903607935  0.6653948699484643  1.0000
  N   N40       1.0  0.49324722246597463  0.5684956978816942  0.8346079006915305  1.0000
  N   N41       1.0  0.5959734972563736  0.4040210510353717  0.2500013647316379  1.0000
  N   N42       1.0  0.4040213167517734  0.5959742680485718  0.7500020916424148  1.0000
  O   O1        1.0  0.1746473295939595  0.9595437212461633  0.16368827998948626  1.0000
  O   O2        1.0  0.040454132499689904  0.8253445502068927  0.33631815409476223  1.0000
  O   O3        1.0  0.8253500340893111  0.04046009197584512  0.8363144433334355  1.0000
  O   O4        1.0  0.9595417051811667  0.1746542725509173  0.6636853650731495  1.0000
  O   O5        1.0  0.13989049435120648  0.06402576274693672  0.1140024077806814  1.0000
  O   O6        1.0  0.9359766822212235  0.8601081134172477  0.3859984414431922  1.0000
  O   O7        1.0  0.860107839765419  0.9359825231142196  0.8859954830035762  1.0000
  O   O8        1.0  0.06401763452034709  0.1398939013649425  0.6140066395442361  1.0000
  O   O9        1.0  0.3990027679255376  0.4895650849972242  0.3064144524310636  1.0000
  O   O10       1.0  0.5104371171727776  0.6009897569560252  0.19358266778468905  1.0000
  O   O11       1.0  0.6009986676473743  0.5104353430958994  0.693585778718372  1.0000
  O   O12       1.0  0.489569435517211  0.39900416706604613  0.806416889733306  1.0000
  O   O13       1.0  0.4509307345726725  0.3873570916204514  0.3446516122279347  1.0000
  O   O14       1.0  0.6126463096473743  0.5490687028895921  0.15534317621383306  1.0000
  O   O15       1.0  0.5490644993754755  0.6126360542798608  0.6553432224929879  1.0000
  O   O16       1.0  0.38735285801807606  0.4509275639375545  0.8446366063665849  1.0000
  O   O17       1.0  0.8728411358425066  0.26947742277778264  0.5418001898383693  1.0000
  O   O18       1.0  0.7305233426718728  0.1271613402407397  0.958197509684851  1.0000
  O   O19       1.0  0.12715829547828858  0.7305211519322086  0.4582040937280071  1.0000
  O   O20       1.0  0.2694862315937883  0.8728507117234371  0.04179793387720574  1.0000
  O   O21       1.0  0.9407141537334595  0.3088055068648429  0.445981579078996  1.0000
  O   O22       1.0  0.6912126855902015  0.0592875046360533  0.054020829427678135  1.0000
  O   O23       1.0  0.059293527827343005  0.6912048032086774  0.5540282513701696  1.0000
  O   O24       1.0  0.3088055905616542  0.9407152308965508  0.9459737902706848  1.0000
