data_image0
_chemical_formula_structural       Cu2H40C32N4O12
_chemical_formula_sum              "Cu2 H40 C32 N4 O12"
_cell_length_a       8.604055659002487
_cell_length_b       9.354644132383946
_cell_length_c       10.056058004784287
_cell_angle_alpha    100.36279577516437
_cell_angle_beta     90.00008101889306
_cell_angle_gamma    89.99995356510814

_space_group_name_H-M_alt    "P 1"
_space_group_IT_number       1

loop_
  _space_group_symop_operation_xyz
  'x, y, z'

loop_
  _atom_site_type_symbol
  _atom_site_label
  _atom_site_symmetry_multiplicity
  _atom_site_fract_x
  _atom_site_fract_y
  _atom_site_fract_z
  _atom_site_occupancy
  Cu  Cu1       1.0  9.428693488e-07  0.500000168658758  1.3632585898492254e-07  1.0000
  Cu  Cu2       1.0  0.4999990656718438  0.9999987349735807  0.4999977267715609  1.0000
  H   H1        1.0  0.44052962244016675  0.159128629464476  0.2792909853184184  1.0000
  H   H2        1.0  0.9405297464076626  0.3408696753098467  0.22070112626211374  1.0000
  H   H3        1.0  0.559467785406774  0.8408706765736724  0.72070455103205  1.0000
  H   H4        1.0  0.0594688236851653  0.6591296487071502  0.7792983907652983  1.0000
  H   H5        1.0  0.7097572092537447  0.5547274608323249  0.3683763724422704  1.0000
  H   H6        1.0  0.20976240063239263  0.945272426802049  0.13162389306065592  1.0000
  H   H7        1.0  0.29023903635470566  0.4452718676800772  0.6316241397529154  1.0000
  H   H8        1.0  0.7902384939469442  0.054727992908318895  0.8683777920354034  1.0000
  H   H9        1.0  0.806550147266691  0.4670300099481181  0.5780248938771066  1.0000
  H   H10       1.0  0.3065561817210991  0.03296874176447769  0.9219738929008089  1.0000
  H   H11       1.0  0.19344493609867905  0.5329682273653944  0.42197444541915285  1.0000
  H   H12       1.0  0.6934447128579108  0.9670327646502982  0.07802796992446295  1.0000
  H   H13       1.0  0.7084790973653697  0.23204517306311345  0.6258505472058076  1.0000
  H   H14       1.0  0.20848368410347723  0.2679503617674968  0.8741456064831254  1.0000
  H   H15       1.0  0.2915171482416028  0.7679508818517035  0.3741464462945387  1.0000
  H   H16       1.0  0.7915195349618785  0.7320500624370395  0.12585707378330818  1.0000
  H   H17       1.0  0.5319269791962213  0.5266524431471423  0.1856178645999904  1.0000
  H   H18       1.0  0.031928962148001  0.973348616893155  0.3143803896249295  1.0000
  H   H19       1.0  0.4680715908962796  0.4733479675742557  0.8143818301566271  1.0000
  H   H20       1.0  0.9680719324310091  0.026652889521621093  0.6856214732003352  1.0000
  H   H21       1.0  0.37047410504112577  0.41252452639589876  0.1931387124998381  1.0000
  H   H22       1.0  0.8704745941696855  0.08747818497274551  0.3068590075789004  1.0000
  H   H23       1.0  0.6295267895349212  0.5874758753353007  0.8068589919199313  1.0000
  H   H24       1.0  0.1295251381670539  0.9125222347379277  0.6931426775165123  1.0000
  H   H25       1.0  0.4516469723113943  0.3316961391530597  0.9732350299991526  1.0000
  H   H26       1.0  0.9516480884723748  0.1683025263107608  0.5267619285362386  1.0000
  H   H27       1.0  0.5483550845087349  0.6683020936638114  0.02676331413192659  1.0000
  H   H28       1.0  0.04835280610581089  0.831698975609221  0.4732389391199519  1.0000
  H   H29       1.0  0.5420640910736267  0.20423343498046614  0.0534741152877132  1.0000
  H   H30       1.0  0.0420641244077729  0.29576837803855227  0.44652604567772164  1.0000
  H   H31       1.0  0.4579379657474902  0.7957669802348021  0.9465265746399254  1.0000
  H   H32       1.0  0.9579367701704129  0.70423312388143  0.5534748219784761  1.0000
  H   H33       1.0  0.058004489658870305  0.3266404972332637  0.7138640702489953  1.0000
  H   H34       1.0  0.5580060313157205  0.17336056472860406  0.7861357894852007  1.0000
  H   H35       1.0  0.9419940804344551  0.6733599179829283  0.2861366196766967  1.0000
  H   H36       1.0  0.4419948632624653  0.826640937191378  0.21386507817098988  1.0000
  H   H37       1.0  0.8902957668277194  0.337109550980891  0.7857728710998516  1.0000
  H   H38       1.0  0.3902978561875869  0.1628913250542965  0.7142253695236107  1.0000
  H   H39       1.0  0.10970396550704462  0.6628919464446097  0.21422700138661807  1.0000
  H   H40       1.0  0.6097042006330398  0.8371079989617769  0.28577414750574803  1.0000
  C   C1        1.0  0.5209742629689132  0.2327365260902994  0.34133661750455263  1.0000
  C   C2        1.0  0.020975006395502805  0.26725983766755945  0.1586566602398136  1.0000
  C   C3        1.0  0.47902314488115383  0.7672606200234  0.6586615488947274  1.0000
  C   C4        1.0  0.9790247259404196  0.7327405775483199  0.8413440296865318  1.0000
  C   C5        1.0  0.5664341331789728  0.364705259517109  0.3065196571118208  1.0000
  C   C6        1.0  0.06643156339322331  0.13529435363296466  0.19347719011210532  1.0000
  C   C7        1.0  0.43356792364197355  0.6352929777945491  0.6934796821883327  1.0000
  C   C8        1.0  0.9335681689426991  0.8647060615829217  0.8065234998142332  1.0000
  C   C9        1.0  0.6714823011266802  0.45100684709785804  0.39201769438941625  1.0000
  C   C10       1.0  0.1714866388057814  0.04899271460959649  0.1079802653644961  1.0000
  C   C11       1.0  0.32851626896697184  0.5489924814139329  0.6079828178070628  1.0000
  C   C12       1.0  0.8285154180166502  0.9510087962996606  0.8920225926304967  1.0000
  C   C13       1.0  0.724183146056511  0.40471933459366477  0.5081749315831986  1.0000
  C   C14       1.0  0.22418575488846668  0.0952794609782543  0.9918237631745512  1.0000
  C   C15       1.0  0.27581426179371965  0.5952799894236378  0.49182458544356683  1.0000
  C   C16       1.0  0.7758163019331406  0.9047220454362089  0.008178099651367215  1.0000
  C   C17       1.0  0.671447631555985  0.2727927847972538  0.536222713704163  1.0000
  C   C18       1.0  0.17145240261521622  0.22720276525686234  0.9637724034452191  1.0000
  C   C19       1.0  0.32854861405115804  0.7272054480211594  0.463775630423669  1.0000
  C   C20       1.0  0.8285508164501466  0.7727976589476739  0.03623027682121463  1.0000
  C   C21       1.0  0.49801046435237584  0.4133937053066744  0.18435191997726014  1.0000
  C   C22       1.0  0.9980109688101706  0.0866067692379602  0.31564658229243053  1.0000
  C   C23       1.0  0.5019904302259733  0.586604532005296  0.8156474193222465  1.0000
  C   C24       1.0  0.0019899257680152  0.9133947326820219  0.6843542853637672  1.0000
  C   C25       1.0  0.5418060175933376  0.3207435075330664  0.04803827864230209  1.0000
  C   C26       1.0  0.0418084866590434  0.17925830112793048  0.4519608868671129  1.0000
  C   C27       1.0  0.4581937147417604  0.6792569031880333  0.9519614161149692  1.0000
  C   C28       1.0  0.9581935701625639  0.8207432052865328  0.5480409759588056  1.0000
  C   C29       1.0  0.6954261947691904  0.3540454015918186  0.9848607600717331  1.0000
  C   C30       1.0  0.1954279689829264  0.14595557371192314  0.5151362676793029  1.0000
  C   C31       1.0  0.3045746998081711  0.6459560958333698  0.015139112415390326  1.0000
  C   C32       1.0  0.8045740878365423  0.8540448325137575  0.48486243191019446  1.0000
  N   N1        1.0  0.572260654626092  0.18816206848606504  0.45353673884131507  1.0000
  N   N2        1.0  0.07226233520086112  0.311833185753187  0.04645741363924571  1.0000
  N   N3        1.0  0.42773559098055364  0.8118350731331603  0.5464604323882372  1.0000
  N   N4        1.0  0.9277397216205828  0.688166142757673  0.9535430985591873  1.0000
  O   O1        1.0  0.780316739098467  0.45396639301456065  0.051686401565333995  1.0000
  O   O2        1.0  0.2803181567739728  0.04603418396203549  0.4483088719959199  1.0000
  O   O3        1.0  0.21968415548037964  0.5460329354966119  0.9483141106324524  1.0000
  O   O4        1.0  0.7196804133180379  0.9539651355601747  0.5516896498624179  1.0000
  O   O5        1.0  0.727104214875837  0.28105261361853445  0.8688344994431674  1.0000
  O   O6        1.0  0.2271049551215114  0.218947262608097  0.6311633811370073  1.0000
  O   O7        1.0  0.27289667970037357  0.7189499660162751  0.1311645556040872  1.0000
  O   O8        1.0  0.7728971016996056  0.7810531526071641  0.3688373087906315  1.0000
  O   O9        1.0  0.974128272145684  0.3939759727307007  0.7516205706952094  1.0000
  O   O10       1.0  0.4741293057751221  0.1060248676555844  0.7483797539212844  1.0000
  O   O11       1.0  0.0258726224320043  0.6060244379900791  0.24837912406270854  1.0000
  O   O12       1.0  0.5258715888058703  0.8939755610443567  0.2516239215129232  1.0000
