data_image0
_chemical_formula_structural       ZnH24C22N6O2
_chemical_formula_sum              "Zn1 H24 C22 N6 O2"
_cell_length_a       7.498652057714227
_cell_length_b       7.738088812813507
_cell_length_c       9.982460527994775
_cell_angle_alpha    74.33348519080646
_cell_angle_beta     79.21745551664033
_cell_angle_gamma    75.6937165006907

_space_group_name_H-M_alt    "P 1"
_space_group_IT_number       1

loop_
  _space_group_symop_operation_xyz
  'x, y, z'

loop_
  _atom_site_type_symbol
  _atom_site_label
  _atom_site_symmetry_multiplicity
  _atom_site_fract_x
  _atom_site_fract_y
  _atom_site_fract_z
  _atom_site_occupancy
  Zn  Zn1       1.0  0.5000013911848454  0.4999985805675706  4.3912348964108793e-07  1.0000
  H   H1        1.0  0.31342338503846884  0.5731341562121628  0.25359573162659643  1.0000
  H   H2        1.0  0.6865751033570008  0.42686613556200836  0.7464044538874646  1.0000
  H   H3        1.0  0.506988206602692  0.8647269872937574  0.13349682463737617  1.0000
  H   H4        1.0  0.49301249430369853  0.13526917945338116  0.8665019148824201  1.0000
  H   H5        1.0  0.2944260086111753  0.8595745361031393  0.2498711488683513  1.0000
  H   H6        1.0  0.7055754840401177  0.14042436819131154  0.750127910726782  1.0000
  H   H7        1.0  0.29852536249741485  0.8782588932058817  0.06626804338559104  1.0000
  H   H8        1.0  0.7014744899217148  0.1217413905522307  0.9337309539289579  1.0000
  H   H9        1.0  0.2998983178880863  0.07750959768872429  0.3778380667646318  1.0000
  H   H10       1.0  0.70010860106521  0.9224892785437223  0.6221622538850298  1.0000
  H   H11       1.0  0.7158623227516826  0.11740972988506121  0.38219459137306444  1.0000
  H   H12       1.0  0.2841342860837131  0.8825864609102612  0.6178077127452608  1.0000
  H   H13       1.0  0.46633767784401664  0.3555476806358159  0.4322313076026206  1.0000
  H   H14       1.0  0.5336651689000576  0.6444512169766555  0.5677685684105284  1.0000
  H   H15       1.0  0.390317718614817  0.18104064927247523  0.5733733391289562  1.0000
  H   H16       1.0  0.6096834878970938  0.8189596278036645  0.4266264746036087  1.0000
  H   H17       1.0  0.4284234695452227  0.3786352888485284  0.6093087984137143  1.0000
  H   H18       1.0  0.5715736597920228  0.6213650102746726  0.39069157299110197  1.0000
  H   H19       1.0  0.87091017391797  0.8554324194091267  0.22546094473315037  1.0000
  H   H20       1.0  0.129089959675099  0.14456649223434684  0.7745383007527309  1.0000
  H   H21       1.0  0.8066043977756865  0.6648734023340523  0.19573554299201132  1.0000
  H   H22       1.0  0.19339681370166778  0.33512687407503716  0.8042632684317894  1.0000
  H   H23       1.0  0.04107482646184475  0.6916381917408005  0.14904020766011428  1.0000
  H   H24       1.0  0.9589269374325085  0.3083593417730839  0.8509611047238793  1.0000
  C   C1        1.0  0.8634068860026004  0.2798944650080487  0.14704325552081346  1.0000
  C   C2        1.0  0.1365882850479707  0.7201154375835872  0.852953374067134  1.0000
  C   C3        1.0  0.009140385000584693  0.11237066648277513  0.36103871219846434  1.0000
  C   C4        1.0  0.9908619064835522  0.8876241274710994  0.6389701126895345  1.0000
  C   C5        1.0  0.18279076818296155  0.2741932514232559  0.14576869113328428  1.0000
  C   C6        1.0  0.8172231704930509  0.7258110705077244  0.8542315261040656  1.0000
  C   C7        1.0  0.37626278037064503  0.8166650417937192  0.15673675436675444  1.0000
  C   C8        1.0  0.6237370770139278  0.18333524129735687  0.8432612406390376  1.0000
  C   C9        1.0  0.1675716687362296  0.043928838990503004  0.4311041946097731  1.0000
  C   C10       1.0  0.83240674190953  0.9560633403483009  0.5689044634193436  1.0000
  C   C11       1.0  0.018829982611578096  0.22454434131190484  0.21683853201907508  1.0000
  C   C12       1.0  0.9811646062293489  0.775468308177189  0.7831616104612492  1.0000
  C   C13       1.0  0.8412882615224788  0.06604964003273038  0.4335068270882373  1.0000
  C   C14       1.0  0.15871948889925855  0.9339519684106962  0.5664857951666704  1.0000
  C   C15       1.0  0.9615226135952711  0.5996518405187742  0.37001485130301864  1.0000
  C   C16       1.0  0.038477786275414906  0.4003457010111688  0.629987649280487  1.0000
  C   C17       1.0  0.37746578585112184  0.32999882143688825  0.5327325527768849  1.0000
  C   C18       1.0  0.6225356968692851  0.670000084191642  0.4672685114357761  1.0000
  C   C19       1.0  0.17992046006199303  0.42101527788365445  0.5156062991418082  1.0000
  C   C20       1.0  0.8200777670213029  0.5789863833370037  0.4843896289658715  1.0000
  C   C21       1.0  0.918401921269755  0.7083677915750642  0.22707496772529379  1.0000
  C   C22       1.0  0.08159415004497109  0.29163114011434044  0.7729218285065541  1.0000
  N   N1        1.0  0.3255787436052913  0.31069450682615246  0.08851568036514829  1.0000
  N   N2        1.0  0.6744140075215839  0.6893071891269145  0.9114890097756286  1.0000
  N   N3        1.0  0.7281228341442232  0.3194777618783036  0.09233470478819332  1.0000
  N   N4        1.0  0.271895785900348  0.6805169412191605  0.9076678801757652  1.0000
  N   N5        1.0  0.1390030936715121  0.5209427318509299  0.3881680666860845  1.0000
  N   N6        1.0  0.8609997530725622  0.4790561657615342  0.6118318093270645  1.0000
  O   O1        1.0  0.4178951125502905  0.6195264633764668  0.18335689269701308  1.0000
  O   O2        1.0  0.5821050260082146  0.3804724475999636  0.8166413504801113  1.0000
