data_image0
_chemical_formula_structural       CuH12C14N2O6
_chemical_formula_sum              "Cu1 H12 C14 N2 O6"
_cell_length_a       7.025879925512316
_cell_length_b       7.383157554859701
_cell_length_c       7.436792071883114
_cell_angle_alpha    93.61130833012474
_cell_angle_beta     107.38510990134552
_cell_angle_gamma    110.62148873934385

_space_group_name_H-M_alt    "P 1"
_space_group_IT_number       1

loop_
  _space_group_symop_operation_xyz
  'x, y, z'

loop_
  _atom_site_type_symbol
  _atom_site_label
  _atom_site_symmetry_multiplicity
  _atom_site_fract_x
  _atom_site_fract_y
  _atom_site_fract_z
  _atom_site_occupancy
  Cu  Cu1       1.0  0.9999854880348452  0.5000064868357228  7.144102866679918e-06  1.0000
  H   H1        1.0  0.7540936669285897  0.82872245043432  0.11040778110098165  1.0000
  H   H2        1.0  0.24589223471837576  0.17124080000366595  0.8896109797117333  1.0000
  H   H3        1.0  0.6848761443488343  0.020640946657429996  0.1938734538367726  1.0000
  H   H4        1.0  0.31515832611113126  0.9793362559691158  0.8061145949336532  1.0000
  H   H5        1.0  0.6955821564718508  0.07408866891569939  0.5025374526107811  1.0000
  H   H6        1.0  0.30437426057913813  0.9258818586658533  0.49746212284282615  1.0000
  H   H7        1.0  0.7512132483935049  0.5679941409116153  0.2830168424185757  1.0000
  H   H8        1.0  0.24878381002274347  0.43197308408448976  0.7169771574196062  1.0000
  H   H9        1.0  0.8671120731069877  0.4890677834823194  0.6055650375455243  1.0000
  H   H10       1.0  0.13289830699859811  0.5109483027149366  0.3944498504333254  1.0000
  H   H11       1.0  0.8030940504204622  0.0121602523710536  0.8344273675987282  1.0000
  H   H12       1.0  0.1968397993483678  0.9878235576794835  0.1655634071841874  1.0000
  C   C1        1.0  0.4162316363551426  0.7429317705617535  0.0714034121665392  1.0000
  C   C2        1.0  0.5837668423129827  0.2570766845814276  0.9285887819108751  1.0000
  C   C3        1.0  0.6559482794049244  0.8635265337278992  0.1868096549580471  1.0000
  C   C4        1.0  0.3440737844051966  0.1364745763319917  0.8131945919470668  1.0000
  C   C5        1.0  0.7338522317759982  0.9464712200695472  0.534092859234562  1.0000
  C   C6        1.0  0.26613810700355606  0.05353850515859899  0.465882181761387  1.0000
  C   C7        1.0  0.7696889131417776  0.6635023606240863  0.41049236723425503  1.0000
  C   C8        1.0  0.23036044010155624  0.3365209526284971  0.5895303616914943  1.0000
  C   C9        1.0  0.8318546745204359  0.62036651675092  0.5900035356119987  1.0000
  C   C10       1.0  0.16818672989634115  0.3796551570810678  0.4100046592449117  1.0000
  C   C11       1.0  0.8471996018586552  0.7438151633930588  0.7538031888598482  1.0000
  C   C12       1.0  0.1528226357355678  0.2561906945593364  0.2462228371755728  1.0000
  C   C13       1.0  0.791520030289533  0.9094858277971126  0.7165234585150841  1.0000
  C   C14       1.0  0.2084651247313261  0.09050960641038587  0.28347900757069056  1.0000
  N   N1        1.0  0.7238083519385229  0.8260975754087381  0.38199333510438294  1.0000
  N   N2        1.0  0.27622307928295  0.1739079180608627  0.6180125373008636  1.0000
  O   O1        1.0  0.2899989825465212  0.6884746149571583  0.16995567450887708  1.0000
  O   O2        1.0  0.7099694942742119  0.3115189156967304  0.8300108274318915  1.0000
  O   O3        1.0  0.3595314218678141  0.7088228925280902  0.8923652267561835  1.0000
  O   O4        1.0  0.6405049860954436  0.2912177418783912  0.10762752303102023  1.0000
  O   O5        1.0  0.9110833154381555  0.7163867746234729  0.9283634670069886  1.0000
  O   O6        1.0  0.0888685824309903  0.2836379049042889  0.07160889840972118  1.0000
