data_image0
_chemical_formula_structural       Mn8H32C40N16O40
_chemical_formula_sum              "Mn8 H32 C40 N16 O40"
_cell_length_a       7.074510314
_cell_length_b       13.557336866
_cell_length_c       14.25
_cell_angle_alpha    90.0
_cell_angle_beta     90.0
_cell_angle_gamma    90.0

_space_group_name_H-M_alt    "P 1"
_space_group_IT_number       1

loop_
  _space_group_symop_operation_xyz
  'x, y, z'

loop_
  _atom_site_type_symbol
  _atom_site_label
  _atom_site_symmetry_multiplicity
  _atom_site_fract_x
  _atom_site_fract_y
  _atom_site_fract_z
  _atom_site_occupancy
  Mn  Mn1       1.0  0.5651486565915249  0.641165007989116  0.4160933333333361  1.0000
  Mn  Mn2       1.0  0.9348491565433292  0.3588366983932119  0.9160940350877169  1.0000
  Mn  Mn3       1.0  0.4348512990237764  0.1411641547979485  0.0839066666666639  1.0000
  Mn  Mn4       1.0  0.0651493855465759  0.8588368139763816  0.5839066666666639  1.0000
  Mn  Mn5       1.0  0.4348470584475876  0.35883596078522106  0.5839052631578951  1.0000
  Mn  Mn6       1.0  0.0651493855465759  0.6411635327731346  0.0839045614035072  1.0000
  Mn  Mn7       1.0  0.5651500701169211  0.8588360763683909  0.9160954385964928  1.0000
  Mn  Mn8       1.0  0.9348519835941287  0.14116341718995778  0.4160947368421049  1.0000
  H   H1        1.0  0.4636363302077696  0.8233357414016493  0.4949410526315816  1.0000
  H   H2        1.0  0.03636435436257559  0.1766659649806783  0.9949417543859624  1.0000
  H   H3        1.0  0.5363650389329278  0.3233341506024914  0.0050589473684183985  1.0000
  H   H4        1.0  0.9636356012527256  0.6766660805638478  0.5050589473684184  1.0000
  H   H5        1.0  0.5363636254075316  0.1766659649806783  0.5050589473684184  1.0000
  H   H6        1.0  0.9636356012527256  0.8233342661856682  0.0050589473684183985  1.0000
  H   H7        1.0  0.46363774373317307  0.6766660805638478  0.9949410526315816  1.0000
  H   H8        1.0  0.03636294083717929  0.3233348882104821  0.4949403508771937  1.0000
  H   H9        1.0  0.646713312573169  0.7846415638367572  0.5511312280701759  1.0000
  H   H10       1.0  0.8532873276124846  0.21536014254556324  0.0511312280701759  1.0000
  H   H11       1.0  0.35328664304213214  0.2846392354296157  0.948869473684212  1.0000
  H   H12       1.0  0.1467112144774205  0.7153602581287399  0.4488687719298241  1.0000
  H   H13       1.0  0.3532880565675284  0.2153594049375727  0.4488680701754362  1.0000
  H   H14       1.0  0.14671262800282384  0.7846408262287666  0.9488687719298241  1.0000
  H   H15       1.0  0.646713312573169  0.7153595205207494  0.05113192982456379  1.0000
  H   H16       1.0  0.8532873276124846  0.2846399730376064  0.5511312280701759  1.0000
  H   H17       1.0  0.8578233306113745  0.6628263418412244  0.6769115789473688  1.0000
  H   H18       1.0  0.6421730689980902  0.337173151717124  0.1769143859649134  1.0000
  H   H19       1.0  0.14217238442773805  0.16282622625805485  0.8230884210526312  1.0000
  H   H20       1.0  0.357826886617218  0.8371717920843196  0.3230856140350866  1.0000
  H   H21       1.0  0.1421780385293232  0.337173151717124  0.3230856140350866  1.0000
  H   H22       1.0  0.35782264604102204  0.6628263418412244  0.8230884210526312  1.0000
  H   H23       1.0  0.8578261576621671  0.837173267300301  0.1769122807017567  1.0000
  H   H24       1.0  0.6421773095742791  0.1628269638660456  0.6769150877193013  1.0000
  H   H25       1.0  0.9318849937858713  0.622468120650147  0.8469571929824582  1.0000
  H   H26       1.0  0.5681128193489826  0.3775350609481548  0.346958596491227  1.0000
  H   H27       1.0  0.0681135483040336  0.1224665298509962  0.6530435087719297  1.0000
  H   H28       1.0  0.4318871362663188  0.8775329637073596  0.153042105263161  1.0000
  H   H29       1.0  0.0681220294564113  0.3775328481241829  0.1530399999999972  1.0000
  H   H30       1.0  0.4318758280631413  0.6224673830421563  0.6530428070175418  1.0000
  H   H31       1.0  0.9318835802604751  0.8775329637073596  0.3469571929824582  1.0000
  H   H32       1.0  0.5681227140267635  0.1224665298509962  0.8469600000000028  1.0000
  C   C1        1.0  0.8987788154633234  0.567975117540314  0.7937263157894705  1.0000
  C   C2        1.0  0.6012175841461342  0.4320251136260254  0.2937291228070151  1.0000
  C   C3        1.0  0.10121972662658149  0.0679750019571443  0.7062750877192983  1.0000
  C   C4        1.0  0.3987823714691672  0.9320222787772393  0.2062708771929849  1.0000
  C   C5        1.0  0.10122396720277037  0.4320243760180418  0.2062715789473657  1.0000
  C   C6        1.0  0.3987767173675819  0.5679765927562954  0.7062722807017536  1.0000
  C   C7        1.0  0.8987802289887197  0.9320252292092019  0.2937256140350897  1.0000
  C   C8        1.0  0.6012260652985189  0.067975739565135  0.7937291228070151  1.0000
  C   C9        1.0  0.7516901897049095  0.5106666647313816  0.5571298245614003  1.0000
  C   C10       1.0  0.7483033828537557  0.4893328288269742  0.0571305263157882  1.0000
  C   C11       1.0  0.248305525334203  0.010666549148204797  0.9428715789473685  1.0000
  C   C12       1.0  0.251697986286942  0.9893307315861717  0.4428694736842118  1.0000
  C   C13       1.0  0.2483026982834105  0.4893328288269742  0.4428687719298239  1.0000
  C   C14       1.0  0.2516951592361494  0.5106681399473629  0.9428687719298239  1.0000
  C   C15       1.0  0.7516986708572941  0.9893336820181347  0.0571284210526315  1.0000
  C   C16       1.0  0.7483033828537557  0.0106687619721768  0.5571312280701761  1.0000
  C   C17       1.0  0.815860002151382  0.5060514515358676  0.6556722807017508  1.0000
  C   C18       1.0  0.6841363974580827  0.4939480420224882  0.1556722807017579  1.0000
  C   C19       1.0  0.18413712641312688  0.006051335952690799  0.8443298245614059  1.0000
  C   C20       1.0  0.315866385208018  0.9939474199976671  0.3443277192982421  1.0000
  C   C21       1.0  0.1841342993623343  0.4939502548464602  0.3443256140350854  1.0000
  C   C22       1.0  0.3158621446318221  0.5060507139278769  0.8443277192982421  1.0000
  C   C23       1.0  0.8158656562529671  0.9939496328216391  0.1556715789473699  1.0000
  C   C24       1.0  0.684137810983479  0.0060505983447001  0.6556743859649146  1.0000
  C   C25       1.0  0.8207564541265029  0.4312543132761277  0.7234252631578926  1.0000
  C   C26       1.0  0.6792413590083581  0.5687466554982022  0.2234252631578926  1.0000
  C   C27       1.0  0.1792420879634022  0.9312544288593044  0.7765761403508762  1.0000
  C   C28       1.0  0.3207600101323393  0.0687443270910606  0.2765747368421074  1.0000
  C   C29       1.0  0.1792378473872134  0.568745180282221  0.2765740350877195  1.0000
  C   C30       1.0  0.32075576955615037  0.4312543132761277  0.7765740350877195  1.0000
  C   C31       1.0  0.8207606947026915  0.068745802307042  0.22342456140351163  1.0000
  C   C32       1.0  0.6792427725337544  0.9312544288593044  0.7234266666666684  1.0000
  C   C33       1.0  0.7675188471002341  0.3256989218195016  0.7253185964912277  1.0000
  C   C34       1.0  0.7324817930854195  0.6743020469548283  0.2253150877192951  1.0000
  C   C35       1.0  0.23248252204046335  0.8256982997946876  0.7746821052631603  1.0000
  C   C36       1.0  0.2675209895806816  0.1743004561556774  0.2746807017543844  1.0000
  C   C37       1.0  0.23247828146427443  0.6743027845628189  0.2746778947368398  1.0000
  C   C38       1.0  0.2675181625298819  0.3256974466035203  0.7746814035087723  1.0000
  C   C39       1.0  0.7675202606256304  0.1743026689796494  0.2253192982456156  1.0000
  C   C40       1.0  0.7324803795600232  0.8256982997946876  0.7253221052631602  1.0000
  N   N1        1.0  0.8749722207274713  0.4716663798505039  0.8080729824561388  1.0000
  N   N2        1.0  0.6250255924073824  0.528335326531824  0.3080736842105267  1.0000
  N   N3        1.0  0.1250249078370373  0.9716657578256829  0.69192842105263  1.0000
  N   N4        1.0  0.37497436320791877  0.0283337357326658  0.1919270175438612  1.0000
  N   N5        1.0  0.1250277348878299  0.5283345889238333  0.19192491228070443  1.0000
  N   N6        1.0  0.3749701226317299  0.4716649046345224  0.6919263157894733  1.0000
  N   N7        1.0  0.8749750477782712  0.028334473340656495  0.3080729824561388  1.0000
  N   N8        1.0  0.6250298329835715  0.9716650202176922  0.8080750877192955  1.0000
  N   N9        1.0  0.8674112733790551  0.5906595136750212  0.7028568421052626  1.0000
  N   N10       1.0  0.6325851262304028  0.4093399798833346  0.20285824561403834  1.0000
  N   N11       1.0  0.1325858551854537  0.0906593980918515  0.7971438596491254  1.0000
  N   N12       1.0  0.3674162429102949  0.9093378826425321  0.2971424561403495  1.0000
  N   N13       1.0  0.1325886822362463  0.4093407174913253  0.2971403508771928  1.0000
  N   N14       1.0  0.36741200233409893  0.5906595136750212  0.7971431578947374  1.0000
  N   N15       1.0  0.8674141004298477  0.9093415706824857  0.2028568421052626  1.0000
  N   N16       1.0  0.6325893668065985  0.0906601356998422  0.7028596491228072  1.0000
  O   O1        1.0  0.7815565678175955  0.5922475836782083  0.513138947368418  1.0000
  O   O2        1.0  0.7184398317918692  0.4077519098801473  0.0131403508771939  1.0000
  O   O3        1.0  0.2184419742723094  0.0922474680950387  0.9868624561403507  1.0000
  O   O4        1.0  0.28156153734882844  0.9077512878553263  0.486861052631582  1.0000
  O   O5        1.0  0.2184405607469131  0.4077526474881381  0.4868589473684182  1.0000
  O   O6        1.0  0.2815587102980359  0.5922468460702177  0.9868596491228061  1.0000
  O   O7        1.0  0.7815579813429918  0.9077535006792983  0.013138947368418  1.0000
  O   O8        1.0  0.7184412453172655  0.0922482057030294  0.5131410526315818  1.0000
  O   O9        1.0  0.5455939462497739  0.7653737679132744  0.5070371929824589  1.0000
  O   O10       1.0  0.9544081074612762  0.23462793846904614  0.0070378947368397  1.0000
  O   O11       1.0  0.4544060093655276  0.2653714395061328  0.9929635087719291  1.0000
  O   O12       1.0  0.045591848154032284  0.7346280540522229  0.49296280701754097  1.0000
  O   O13       1.0  0.4544074228909237  0.23462793846904614  0.49296280701754097  1.0000
  O   O14       1.0  0.045593261679428586  0.7653730303052837  0.9929628070175411  1.0000
  O   O15       1.0  0.5455925327243776  0.7346280540522229  0.0070385964912276  1.0000
  O   O16       1.0  0.9544066939358797  0.2653721771141235  0.5070371929824589  1.0000
  O   O17       1.0  0.6636007004908321  0.4384843467973738  0.5215859649122834  1.0000
  O   O18       1.0  0.8363928720678402  0.5615158843689656  0.0215866666666642  1.0000
  O   O19       1.0  0.3363964280736765  0.9384844623805504  0.9784147368421046  1.0000
  O   O20       1.0  0.16360708354746825  0.0615142935698145  0.4784133333333358  1.0000
  O   O21       1.0  0.336393601022884  0.5615166219769563  0.47841192982455977  1.0000
  O   O22       1.0  0.16360284297127234  0.4384836091893831  0.9784133333333358  1.0000
  O   O23       1.0  0.6636063545924171  0.0615172440017773  0.0215859649122834  1.0000
  O   O24       1.0  0.8363956991186328  0.9384844623805504  0.5215880701754401  1.0000
  O   O25       1.0  0.6957287192386729  0.2849652581613427  0.6518645614035066  1.0000
  O   O26       1.0  0.8042705074215845  0.7150334977890223  0.1518624561403499  1.0000
  O   O27       1.0  0.3042712363766285  0.784966111352503  0.8481368421052622  1.0000
  O   O28       1.0  0.1957308617191202  0.215032644597855  0.3481368421052622  1.0000
  O   O29       1.0  0.3042698228512322  0.7150342353970132  0.3481361403508743  1.0000
  O   O30       1.0  0.1957280346683206  0.2849652581613427  0.8481368421052622  1.0000
  O   O31       1.0  0.6957287192386729  0.215034857421827  0.1518631578947378  1.0000
  O   O32       1.0  0.8042705074215845  0.784966111352503  0.6518645614035066  1.0000
  O   O33       1.0  0.7900674042327792  0.280363321909654  0.8024252631578932  1.0000
  O   O34       1.0  0.7099346494782706  0.7196383844726668  0.3024231578947365  1.0000
  O   O35       1.0  0.20993396490791835  0.7803641751008215  0.6975761403508756  1.0000
  O   O36       1.0  0.2900681331878232  0.21963531845753434  0.1975761403508756  1.0000
  O   O37       1.0  0.2099311378571258  0.7196369092566854  0.1975747368421068  1.0000
  O   O38       1.0  0.29006530613703047  0.2803625843016633  0.6975761403508756  1.0000
  O   O39       1.0  0.7900688177581755  0.2196375312815064  0.3024224561403486  1.0000
  O   O40       1.0  0.7099346494782706  0.7803634374928308  0.8024252631578932  1.0000
