data_image0
_chemical_formula_structural       Zn2H24C50SN4O11
_chemical_formula_sum              "Zn2 H24 C50 S1 N4 O11"
_cell_length_a       12.523685919440627
_cell_length_b       13.273641252467145
_cell_length_c       15.916526591434145
_cell_angle_alpha    81.30691157482886
_cell_angle_beta     80.85896795740344
_cell_angle_gamma    83.59507812334233

_space_group_name_H-M_alt    "P 1"
_space_group_IT_number       1

loop_
  _space_group_symop_operation_xyz
  'x, y, z'

loop_
  _atom_site_type_symbol
  _atom_site_label
  _atom_site_symmetry_multiplicity
  _atom_site_fract_x
  _atom_site_fract_y
  _atom_site_fract_z
  _atom_site_occupancy
  Zn  Zn1       1.0  0.38909228468739343  0.47597713490252863  0.4922809319633217  1.0000
  Zn  Zn2       1.0  0.6019575988229563  0.5167040963872936  0.5198075683833423  1.0000
  H   H1        1.0  0.32886410687515877  0.27254256528607373  0.05670467018249071  1.0000
  H   H2        1.0  0.7855087148324956  0.6366829897367128  0.08817632676110074  1.0000
  H   H3        1.0  0.7676039773972222  0.21793510332547333  0.4846227424834381  1.0000
  H   H4        1.0  0.7892723000519339  0.8719713483289696  0.42189280334579843  1.0000
  H   H5        1.0  0.8314683586794445  0.04125792960046231  0.4505771456979986  1.0000
  H   H6        1.0  0.44365718184235453  0.17354982588037873  0.4544769538779789  1.0000
  H   H7        1.0  0.2662547982039882  0.7864092300448395  0.4249042660753162  1.0000
  H   H8        1.0  0.22944667539255895  0.9710859926494637  0.36510213256005397  1.0000
  H   H9        1.0  0.650987275662189  0.7525662603429739  0.4287726677002723  1.0000
  H   H10       1.0  0.3177831939105999  0.35439185607151563  0.3738291766579778  1.0000
  H   H11       1.0  0.4745688262595068  0.44015816756282805  0.22714930575215664  1.0000
  H   H12       1.0  0.9404007067234302  0.35051823552903016  0.34891641753691266  1.0000
  H   H13       1.0  0.14409900478505475  0.319851230829599  0.331323671939991  1.0000
  H   H14       1.0  0.16185371622344746  0.5452196339156006  0.5465580184240224  1.0000
  H   H15       1.0  0.6716889826500321  0.6505247264127336  0.6216235711113357  1.0000
  H   H16       1.0  0.020473317379995113  0.6237904213194128  0.5971838593092471  1.0000
  H   H17       1.0  0.8412608719044384  0.7014936528591706  0.6609186124288726  1.0000
  H   H18       1.0  0.7701469605309936  0.43054480834484127  0.4213342101335655  1.0000
  H   H19       1.0  0.7495337642915063  0.6134417210231151  0.944731447499521  1.0000
  H   H20       1.0  0.2850043433270315  0.2632937407413395  0.9139714313377496  1.0000
  H   H21       1.0  0.30843583158218024  0.3230680321028034  0.7556362630137059  1.0000
  H   H22       1.0  0.42005592237393335  0.3494809633769906  0.1527362717124632  1.0000
  H   H23       1.0  0.6337611969842029  0.5558741777042755  0.8547651202207193  1.0000
  H   H24       1.0  0.4857146476129586  0.6747887560617231  0.9001097111507832  1.0000
  C   C1        1.0  0.4467908605065674  0.6905837210973048  0.47432493818330107  1.0000
  C   C2        1.0  0.45137959073801437  0.4554245765521119  0.9063509243244569  1.0000
  C   C3        1.0  0.3874669939735115  0.371598033727878  0.9410587476588362  1.0000
  C   C4        1.0  0.520720865640314  0.48669366080687854  0.9604619941349668  1.0000
  C   C5        1.0  0.5045805718023645  0.4538329558812536  0.05030288168533303  1.0000
  C   C6        1.0  0.430623244234866  0.3783557779547025  0.08439679631225523  1.0000
  C   C7        1.0  0.3788227890207665  0.33554261349780035  0.030870668272641004  1.0000
  C   C8        1.0  0.6126729741910922  0.5421170319592364  0.9242445470950785  1.0000
  C   C9        1.0  0.6784581796348945  0.5735973193432075  0.9744125122428359  1.0000
  C   C10       1.0  0.655315480337265  0.554456282012808  0.0655646149892704  1.0000
  C   C11       1.0  0.5676657686386762  0.4944841017208861  0.10404476007771275  1.0000
  C   C12       1.0  0.4219695982621303  0.4751554373938875  0.6687094568731666  1.0000
  C   C13       1.0  0.7173667416374557  0.5929695468665985  0.11813633871471299  1.0000
  C   C14       1.0  0.6919868203370713  0.5781533561281053  0.2072495990660528  1.0000
  C   C15       1.0  0.5432049672497001  0.4811799130796503  0.1943002166076156  1.0000
  C   C16       1.0  0.746687500354412  0.07107025240697602  0.4496921332710642  1.0000
  C   C17       1.0  0.6008738362985683  0.20419737636009933  0.4719171496440993  1.0000
  C   C18       1.0  0.32789029546842846  0.8398911779997605  0.4185209168659725  1.0000
  C   C19       1.0  0.3062595443056111  0.9430873112664958  0.38798419212172763  1.0000
  C   C20       1.0  0.383869600436931  0.011804463538418004  0.386461528741883  1.0000
  C   C21       1.0  0.4862064057244809  0.9769521369481499  0.41423739362100065  1.0000
  C   C22       1.0  0.5141815782307546  0.8690432960644474  0.42904771055732027  1.0000
  C   C23       1.0  0.5595315410745628  0.3059482652697128  0.49965286720915  1.0000
  C   C24       1.0  0.5624260982785003  0.04474908876769491  0.4290172515162567  1.0000
  C   C25       1.0  0.6727363805487345  0.005828861988035805  0.4332149471608204  1.0000
  C   C26       1.0  0.703555739264857  0.9001582856786003  0.42586967862162334  1.0000
  C   C27       1.0  0.6269835486507916  0.8336362175280744  0.4290677514531254  1.0000
  C   C28       1.0  0.5286206555879289  0.14375675719939812  0.450003343029259  1.0000
  C   C29       1.0  0.7117880076996813  0.168608083064271  0.4688352380358011  1.0000
  C   C30       1.0  0.4302062799459989  0.8019409794590475  0.4387886639197802  1.0000
  C   C31       1.0  0.14350624846704113  0.37109850916814935  0.3788894994310041  1.0000
  C   C32       1.0  0.7510721003145732  0.6193500423127247  0.5931374067063331  1.0000
  C   C33       1.0  0.8467324726299668  0.6469796602452862  0.615355222167139  1.0000
  C   C34       1.0  0.5627038135126982  0.5121100867362717  0.3404449127326998  1.0000
  C   C35       1.0  0.945801772846096  0.6035512948730715  0.579530409179526  1.0000
  C   C36       1.0  0.9494239720570049  0.5338693191032393  0.52016093294111  1.0000
  C   C37       1.0  0.8490336873406932  0.5113396560490601  0.499268608701378  1.0000
  C   C38       1.0  0.04908305962177909  0.4843992155428652  0.4793583976559859  1.0000
  C   C39       1.0  0.04503660584995829  0.4180448363196236  0.41751518056238984  1.0000
  C   C40       1.0  0.9423398519939995  0.4004523880586109  0.39708674736320393  1.0000
  C   C41       1.0  0.848071334249923  0.4446989312798807  0.4366974203082137  1.0000
  C   C42       1.0  0.1518604182322321  0.497385123963568  0.49885186920356966  1.0000
  C   C43       1.0  0.24021531187204204  0.3894097203333617  0.4019780685068782  1.0000
  C   C44       1.0  0.3995046989140291  0.44797791483862437  0.7651284827773921  1.0000
  C   C45       1.0  0.6009751052495176  0.5231204256985295  0.24566701542305952  1.0000
  C   C46       1.0  0.3335359356019225  0.32684012397422185  0.8863965411622915  1.0000
  C   C47       1.0  0.34421545500374157  0.36077393491120097  0.7992980789516366  1.0000
  C   C48       1.0  0.4442148054104038  0.49931804003447444  0.8198172947433237  1.0000
  C   C49       1.0  0.3607831307237319  0.11387735563828735  0.34639510896997194  1.0000
  C   C50       1.0  0.7591663231722521  0.6211624946360673  0.25492522931597966  1.0000
  S   S1        1.0  0.4633607350529942  0.6327315077586351  0.7797269933050686  1.0000
  N   N1        1.0  0.2435442702035999  0.45152643485034366  0.4617535185055885  1.0000
  N   N2        1.0  0.7520522561452836  0.5531176261790592  0.5376793696732991  1.0000
  N   N3        1.0  0.33944133241583074  0.19385860332419474  0.3076791756160588  1.0000
  N   N4        1.0  0.8211884765178253  0.659264100262782  0.2850519440481776  1.0000
  O   O1        1.0  0.3777871135146782  0.6325986516980253  0.4619445856977507  1.0000
  O   O2        1.0  0.5266832578244802  0.6628445164622718  0.5151764457682617  1.0000
  O   O3        1.0  0.3467050924243367  0.47602106875177713  0.6240072744074894  1.0000
  O   O4        1.0  0.5217679170515411  0.48669601779749194  0.6419585943139198  1.0000
  O   O5        1.0  0.4572052970165287  0.32753393184016505  0.5129672343247975  1.0000
  O   O6        1.0  0.6310007426710553  0.36441071962104843  0.5069429094465292  1.0000
  O   O7        1.0  0.474612417379511  0.47127336534892117  0.36725440484130434  1.0000
  O   O8        1.0  0.6217820406684995  0.545777237084309  0.3861520029677549  1.0000
  O   O9        1.0  0.574944878199844  0.6524127718323244  0.748793521261142  1.0000
  O   O10       1.0  0.3804315642222988  0.668838587786489  0.7271785870748104  1.0000
  O   O11       1.0  0.42545476987615416  0.6855321396910342  0.8658657074312971  1.0000
