data_image0
_chemical_formula_structural       Ag8H24C24N16
_chemical_formula_sum              "Ag8 H24 C24 N16"
_cell_length_a       6.035917008109272
_cell_length_b       6.504075958913759
_cell_length_c       20.523414911267444
_cell_angle_alpha    90.00673706711281
_cell_angle_beta     90.00040600908196
_cell_angle_gamma    89.99946142678996

_space_group_name_H-M_alt    "P 1"
_space_group_IT_number       1

loop_
  _space_group_symop_operation_xyz
  'x, y, z'

loop_
  _atom_site_type_symbol
  _atom_site_label
  _atom_site_symmetry_multiplicity
  _atom_site_fract_x
  _atom_site_fract_y
  _atom_site_fract_z
  _atom_site_occupancy
  Ag  Ag1       1.0  0.22662157595916452  0.3260215772725631  0.0028899782410363  1.0000
  Ag  Ag2       1.0  0.2733461836781927  0.6739564928411854  0.5028864629855292  1.0000
  Ag  Ag3       1.0  0.7733486753645238  0.8260269834992545  0.4971160068752241  1.0000
  Ag  Ag4       1.0  0.7266312443239472  0.17399075617552032  0.9971080102947525  1.0000
  Ag  Ag5       1.0  0.7733406657675416  0.6739924709336762  0.9971100073541733  1.0000
  Ag  Ag6       1.0  0.7266757032267821  0.32601143198331073  0.4971125484267418  1.0000
  Ag  Ag7       1.0  0.22668315155637234  0.17394555461709868  0.502884953723523  1.0000
  Ag  Ag8       1.0  0.2733508786007874  0.8260171427634406  0.0028924627589788  1.0000
  H   H1        1.0  0.16306392622561108  0.4817523598860023  0.8445534305665063  1.0000
  H   H2        1.0  0.3368767485514255  0.5181338455941146  0.3445469160370891  1.0000
  H   H3        1.0  0.8368741984786966  0.9818457590962879  0.6554553977740412  1.0000
  H   H4        1.0  0.6630731640573444  0.018257692178401907  0.1554398406233304  1.0000
  H   H5        1.0  0.8368983152372281  0.5182540019604076  0.1554509401758679  1.0000
  H   H6        1.0  0.6631600483356763  0.4818494547777377  0.6554525830099323  1.0000
  H   H7        1.0  0.16315100171115662  0.018132927808679304  0.344541664814777  1.0000
  H   H8        1.0  0.3368940484615379  0.9817532804307594  0.8445572215167232  1.0000
  H   H9        1.0  0.4860114535541912  0.3712101049698263  0.7558536478612723  1.0000
  H   H10       1.0  0.0139770815455336  0.6287165973560038  0.2558444483130842  1.0000
  H   H11       1.0  0.5139796970140225  0.87126974868076  0.7441541119991442  1.0000
  H   H12       1.0  0.9859877310138073  0.1288116578828493  0.2441438652455759  1.0000
  H   H13       1.0  0.513977294655767  0.6288162457655702  0.2441531597257054  1.0000
  H   H14       1.0  0.9860613722290308  0.37126362807076424  0.7441550507221208  1.0000
  H   H15       1.0  0.4860471595761028  0.1287197005054352  0.2558419762395374  1.0000
  H   H16       1.0  0.0139977057464478  0.8711977779015285  0.7558536843824157  1.0000
  H   H17       1.0  0.8034260540616743  0.17966393911311943  0.8319227107452178  1.0000
  H   H18       1.0  0.6965865520837725  0.8203411323554662  0.3319157418880394  1.0000
  H   H19       1.0  0.19658896547931445  0.6796561829992243  0.6680855361960027  1.0000
  H   H20       1.0  0.3034024359274241  0.3203591572219367  0.1680774451404687  1.0000
  H   H21       1.0  0.196566006823339  0.8203731748300386  0.1680865332534509  1.0000
  H   H22       1.0  0.3034436187007116  0.17962832983950244  0.6680818079136799  1.0000
  H   H23       1.0  0.8034196650891304  0.32035479210654944  0.3319163990120586  1.0000
  H   H24       1.0  0.6965796875264728  0.6796625770645123  0.8319147448496906  1.0000
  C   C1        1.0  0.3190857759481815  0.40282238261059433  0.8523024648667885  1.0000
  C   C2        1.0  0.1808742794022606  0.597118544382454  0.352293841895694  1.0000
  C   C3        1.0  0.6808727088282893  0.9028701386008537  0.6477035818384778  1.0000
  C   C4        1.0  0.8190718410317431  0.09717859090700642  0.1476927731437101  1.0000
  C   C5        1.0  0.680893032251589  0.5971932053442544  0.1477043424567199  1.0000
  C   C6        1.0  0.819154233876354  0.40286321811790066  0.6477051697684787  1.0000
  C   C7        1.0  0.3191359235925191  0.09711623516834321  0.3522929933561727  1.0000
  C   C8        1.0  0.1809086252693959  0.9028400693368683  0.8523033147746802  1.0000
  C   C9        1.0  0.4839957387950236  0.34528431922407077  0.8079557631714495  1.0000
  C   C10       1.0  0.0159882465998678  0.6546568706041429  0.307946726872899  1.0000
  C   C11       1.0  0.5159861478823159  0.845329597235619  0.6920562753715984  1.0000
  C   C12       1.0  0.9839626343611131  0.15472194928604208  0.1920494887085837  1.0000
  C   C13       1.0  0.5159880383560278  0.6547404954929166  0.192057378556342  1.0000
  C   C14       1.0  0.9840402659940181  0.345332580009604  0.6920547211210106  1.0000
  C   C15       1.0  0.4840324251685146  0.15465677658166044  0.3079393254666343  1.0000
  C   C16       1.0  0.016007891924104498  0.8452920976659686  0.807944650023323  1.0000
  C   C17       1.0  0.6466660510774034  0.24876406763912945  0.8457416017038994  1.0000
  C   C18       1.0  0.853319518314784  0.7512050594871482  0.3457408852450854  1.0000
  C   C19       1.0  0.35330464400152556  0.7487770701016601  0.6542618924946666  1.0000
  C   C20       1.0  0.14667071971292958  0.2512588375674696  0.1542546175004773  1.0000
  C   C21       1.0  0.35330447262015235  0.751263820422061  0.1542666673885407  1.0000
  C   C22       1.0  0.1467288763679875  0.24876747862582965  0.6542581265940655  1.0000
  C   C23       1.0  0.6467106151445989  0.25120930436761313  0.34573663178690595  1.0000
  C   C24       1.0  0.8533047768195416  0.748755209533826  0.8457395213015743  1.0000
  N   N1        1.0  0.3799671975019123  0.3443379564500051  0.9126844190482969  1.0000
  N   N2        1.0  0.12000091493678869  0.6556232548751596  0.41268370020800665  1.0000
  N   N3        1.0  0.6199899261802387  0.8443617710877052  0.587312492536185  1.0000
  N   N4        1.0  0.879976387939557  0.15566667523429356  0.0873130248697223  1.0000
  N   N5        1.0  0.6199983568363905  0.6556822429727447  0.0873199518992109  1.0000
  N   N6        1.0  0.8800358821607404  0.34435235826008176  0.5873167732477285  1.0000
  N   N7        1.0  0.3800236770341813  0.15561998971224264  0.4126816464340592  1.0000
  N   N8        1.0  0.1199924809853243  0.844348910167412  0.9126850118432087  1.0000
  N   N9        1.0  0.5814924225724596  0.24801415113167746  0.9086707467348631  1.0000
  N   N10       1.0  0.9184872436273963  0.7519627292261365  0.4086670143977997  1.0000
  N   N11       1.0  0.418478339354742  0.7480294651203396  0.5913366283104436  1.0000
  N   N12       1.0  0.081496300692649  0.251997151495523  0.0913241201415502  1.0000
  N   N13       1.0  0.41847975842339485  0.7520060491163959  0.0913360605479241  1.0000
  N   N14       1.0  0.08154955394729768  0.2480098082879892  0.5913310227809845  1.0000
  N   N15       1.0  0.5815302927301431  0.25195383453078796  0.40866335758746425  1.0000
  N   N16       1.0  0.9184692550036574  0.7480199706778095  0.9086714803004695  1.0000
