data_image0
_chemical_formula_structural       Zn4H32C58N14O13
_chemical_formula_sum              "Zn4 H32 C58 N14 O13"
_cell_length_a       19.198277944586454
_cell_length_b       19.188532279023917
_cell_length_c       19.25852723683916
_cell_angle_alpha    85.5435999532437
_cell_angle_beta     89.4959626261763
_cell_angle_gamma    85.33626561994173

_space_group_name_H-M_alt    "P 1"
_space_group_IT_number       1

loop_
  _space_group_symop_operation_xyz
  'x, y, z'

loop_
  _atom_site_type_symbol
  _atom_site_label
  _atom_site_symmetry_multiplicity
  _atom_site_fract_x
  _atom_site_fract_y
  _atom_site_fract_z
  _atom_site_occupancy
  Zn  Zn1       1.0  0.44260388816729795  0.440934870159488  0.5605250020503476  1.0000
  Zn  Zn2       1.0  0.5633790341096869  0.441970538152006  0.44399115959976837  1.0000
  Zn  Zn3       1.0  0.5539047502240848  0.552471207644153  0.559971071265238  1.0000
  Zn  Zn4       1.0  0.44018343367830687  0.5659034238657837  0.434480316087189  1.0000
  H   H1        1.0  0.40765692645813795  0.5265729716357016  0.08757088627382358  1.0000
  H   H2        1.0  0.4938824181326354  0.7534880136358736  0.6124974651729501  1.0000
  H   H3        1.0  0.9221512909427857  0.4058654015331697  0.5023857589347642  1.0000
  H   H4        1.0  0.24159875161947042  0.4015920607169861  0.547855342284194  1.0000
  H   H5        1.0  0.7200081782999989  0.515866995523183  0.17332028887904014  1.0000
  H   H6        1.0  0.7108875927158493  0.4241542307647422  0.18102584835843055  1.0000
  H   H7        1.0  0.7627171757204252  0.4611034002721297  0.11342307940360999  1.0000
  H   H8        1.0  0.649542254497007  0.4350015657703921  0.0640895132213899  1.0000
  H   H9        1.0  0.6587263229559069  0.524711369423194  0.0554010487686583  1.0000
  H   H10       1.0  0.8443664303149063  0.6837101936150631  0.5734869807585382  1.0000
  H   H11       1.0  0.9326092091150995  0.6470118980341795  0.5774560524878254  1.0000
  H   H12       1.0  0.399067677041316  0.4291620719538614  0.775537049997446  1.0000
  H   H13       1.0  0.912466945354879  0.7334556572606915  0.5385102883375836  1.0000
  H   H14       1.0  0.9366052505103254  0.6496740928957081  0.44612006375309216  1.0000
  H   H15       1.0  0.8488283001590204  0.6861531038359772  0.4421153055174827  1.0000
  H   H16       1.0  0.5992483259749762  0.8656050935926487  0.6596955047688198  1.0000
  H   H17       1.0  0.5733642990573954  0.9535820484373689  0.6288703946287553  1.0000
  H   H18       1.0  0.5610163641001691  0.9254619470881877  0.718113043912858  1.0000
  H   H19       1.0  0.44809423552636923  0.9337166792499685  0.6521664480482698  1.0000
  H   H20       1.0  0.4717235192300678  0.8464546325157587  0.6860842592742598  1.0000
  H   H21       1.0  0.879092922590182  0.3017071533795601  0.4889084732455442  1.0000
  H   H22       1.0  0.8753343044164694  0.3175336871483622  0.5785263915979683  1.0000
  H   H23       1.0  0.619974618525717  0.48441750323724636  0.23477402230216873  1.0000
  H   H24       1.0  0.819497451317723  0.2591510746182024  0.5448294678017405  1.0000
  H   H25       1.0  0.7493314946700025  0.3697051890400047  0.5610767580394692  1.0000
  H   H26       1.0  0.7558756025082402  0.357142045681222  0.47233412371333106  1.0000
  H   H27       1.0  0.5691454244216986  0.5553987386784983  0.9028852361761535  1.0000
  H   H28       1.0  0.5750184765586468  0.5546396987275345  0.7723791958167181  1.0000
  H   H29       1.0  0.44949487021766993  0.08705342408898531  0.5880916873813433  1.0000
  H   H30       1.0  0.4681335845701681  0.9218323033929324  0.40367200257631436  1.0000
  H   H31       1.0  0.5490645925283602  0.23852540831688177  0.39694044783836796  1.0000
  H   H32       1.0  0.5395948906767742  0.11015797269018889  0.3832449353997872  1.0000
  C   C1        1.0  0.5072487784238505  0.506484920883068  0.3110796616510001  1.0000
  C   C2        1.0  0.8831762663180883  0.45044796427424677  0.49747052759423127  1.0000
  C   C3        1.0  0.48757934764706323  0.49174213677641626  0.7667190706071024  1.0000
  C   C4        1.0  0.49169502297488776  0.4917729091069419  0.6892548515391254  1.0000
  C   C5        1.0  0.5355910056986063  0.5275353818055494  0.8023783301334575  1.0000
  C   C6        1.0  0.5324663028390902  0.5280652774316439  0.8742602216033716  1.0000
  C   C7        1.0  0.48078227499772913  0.4933119963131673  0.9117785204487417  1.0000
  C   C8        1.0  0.4314160629120778  0.4584151287875072  0.8759807678267392  1.0000
  C   C9        1.0  0.4358011656079699  0.45705762654785786  0.8034328128085801  1.0000
  C   C10       1.0  0.45398387767468773  0.518478529250082  0.12036497924709269  1.0000
  C   C11       1.0  0.4481962122508137  0.520362912737575  0.192586443877687  1.0000
  C   C12       1.0  0.090578604956093  0.4845929740096793  0.47871906215617327  1.0000
  C   C13       1.0  0.5195463483430416  0.5058092229793161  0.08910521497575266  1.0000
  C   C14       1.0  0.5094965377101701  0.5075275906258908  0.23349725196727175  1.0000
  C   C15       1.0  0.5743172199571589  0.49464823162584526  0.20132742066213882  1.0000
  C   C16       1.0  0.5070267101147152  0.3120718086422444  0.5028835075296739  1.0000
  C   C17       1.0  0.5816081307256765  0.49466281532270523  0.12920112981577597  1.0000
  C   C18       1.0  0.4837113343925451  0.7650513805812552  0.5016742655512586  1.0000
  C   C19       1.0  0.48714832861735147  0.7910940502903755  0.5671598082945265  1.0000
  C   C20       1.0  0.4821528622192801  0.8627912899027878  0.5761749968565224  1.0000
  C   C21       1.0  0.4771227333324433  0.9093915084179119  0.5154465597875982  1.0000
  C   C22       1.0  0.47296705897336005  0.884391822180227  0.44914931800845176  1.0000
  C   C23       1.0  0.11920392118735634  0.5415765885270076  0.44059776988417093  1.0000
  C   C24       1.0  0.4751450957240166  0.8124027971390505  0.44151016576348917  1.0000
  C   C25       1.0  0.4705121613210536  0.1206461939402175  0.5461892289052839  1.0000
  C   C26       1.0  0.4744423194447691  0.1921891345851989  0.5534549635731592  1.0000
  C   C27       1.0  0.49403519398224927  0.0916048332339869  0.4846861505185416  1.0000
  C   C28       1.0  0.4889975410224635  0.6872764694019721  0.4983888516809997  1.0000
  C   C29       1.0  0.5031467679505255  0.23505143765677158  0.4987679190837254  1.0000
  C   C30       1.0  0.5268953040364509  0.20490381957778683  0.43813634232419935  1.0000
  C   C31       1.0  0.5217832172519151  0.13406543330166443  0.4304778654271857  1.0000
  C   C32       1.0  0.6877579031322797  0.49543756823565127  0.5031806752344109  1.0000
  C   C33       1.0  0.31338068420612325  0.501596763405395  0.4886366548722164  1.0000
  C   C34       1.0  0.19248788278289908  0.5477257372284684  0.4418675630370004  1.0000
  C   C35       1.0  0.23603046929728316  0.4970518283363746  0.48184590257498167  1.0000
  C   C36       1.0  0.20711529487345356  0.44005691449112316  0.5175593952958193  1.0000
  C   C37       1.0  0.13550833040254423  0.43268544611267856  0.5154109592289942  1.0000
  C   C38       1.0  0.7403447505690934  0.6295568487709248  0.48261016363024095  1.0000
  C   C39       1.0  0.3780159325043543  0.42369872717468837  0.9134977910766865  1.0000
  C   C40       1.0  0.6517699210638455  0.4809253550272956  0.0947104049545331  1.0000
  C   C41       1.0  0.7144891970202707  0.4699928656058106  0.14359469066408784  1.0000
  C   C42       1.0  0.4509947676481189  0.21801398113887419  0.6181681848982663  1.0000
  C   C43       1.0  0.8864564780545979  0.6512004600631017  0.4737751540567884  1.0000
  C   C44       1.0  0.8943577165012188  0.6805140481905951  0.5451868130993418  1.0000
  C   C45       1.0  0.8611342683462623  0.5789581560482873  0.4817951047275669  1.0000
  C   C46       1.0  0.47211519402711843  0.7899537083563146  0.37258187588132324  1.0000
  C   C47       1.0  0.48628127923569753  0.888386064368632  0.6477891150130544  1.0000
  C   C48       1.0  0.5594217175498387  0.909433377700836  0.6646490431358669  1.0000
  C   C49       1.0  0.07568718263289752  0.5920574425923775  0.39914069102331945  1.0000
  C   C50       1.0  0.21806181376389588  0.6073660621253013  0.40394592041817384  1.0000
  C   C51       1.0  0.7868752886222052  0.3682034065627704  0.5174385530774329  1.0000
  C   C52       1.0  0.8435632471211606  0.3087425127587906  0.5333035876397147  1.0000
  C   C53       1.0  0.1064448492609387  0.37446877544076784  0.5525296479025883  1.0000
  C   C54       1.0  0.38006503886894194  0.5307007967195573  0.22248142053348363  1.0000
  C   C55       1.0  0.789199871453448  0.5689481822487962  0.48813152698394174  1.0000
  C   C56       1.0  0.90729928608674  0.5177436813698435  0.4864189608549623  1.0000
  C   C57       1.0  0.7651350572906424  0.5012687482140094  0.49833978979520305  1.0000
  C   C58       1.0  0.8124291364504967  0.4406236403656437  0.5035776429790599  1.0000
  N   N1        1.0  0.019601748867337704  0.4733243145742135  0.48185971758722684  1.0000
  N   N2        1.0  0.47102721120752034  0.7761935673433982  0.3145951826735711  1.0000
  N   N3        1.0  0.042873248993174684  0.6335243373917764  0.3625560724955647  1.0000
  N   N4        1.0  0.23234584451928697  0.6590313999383142  0.37291928530670754  1.0000
  N   N5        1.0  0.08433104125395371  0.3262631801613409  0.5834671182064284  1.0000
  N   N6        1.0  0.3228537267951949  0.5365274280866004  0.24364603785397063  1.0000
  N   N7        1.0  0.9788657740901102  0.528584439880234  0.4826857014679076  1.0000
  N   N8        1.0  0.4730850629518033  0.4917022648391124  0.9845502805681147  1.0000
  N   N9        1.0  0.5276698704562505  0.5039628838967404  0.016518763375188407  1.0000
  N   N10       1.0  0.47691630936922996  0.9812200531446607  0.5258946018025057  1.0000
  N   N11       1.0  0.49348819299426333  0.0197621035980262  0.4729423535942841  1.0000
  N   N12       1.0  0.7017384949391358  0.6799593433522303  0.47697490975421175  1.0000
  N   N13       1.0  0.333144671853411  0.39475475298175416  0.9414986714608701  1.0000
  N   N14       1.0  0.43211692172275207  0.23314523401995052  0.6732505599367399  1.0000
  O   O1        1.0  0.4990953975301338  0.5004904586349923  0.49883736410299656  1.0000
  O   O2        1.0  0.6621565588288263  0.4559995714871548  0.4615754675721106  1.0000
  O   O3        1.0  0.3409076593185318  0.5495293630435326  0.4514386420428663  1.0000
  O   O4        1.0  0.6549768222160282  0.5310821117039666  0.5478201150013006  1.0000
  O   O5        1.0  0.34402444227941226  0.45615829194387914  0.5322834321691373  1.0000
  O   O6        1.0  0.46706865975985307  0.3414933924982293  0.546872968770522  1.0000
  O   O7        1.0  0.45702862160068486  0.6629575081162289  0.4491365512380411  1.0000
  O   O8        1.0  0.5538884321553467  0.46540360378417506  0.3435433046063636  1.0000
  O   O9        1.0  0.5387353911887587  0.5266612759412509  0.6593058525605215  1.0000
  O   O10       1.0  0.459760244719341  0.5461403235357808  0.337788736029438  1.0000
  O   O11       1.0  0.4480402055319955  0.4572308310267487  0.6593397383983228  1.0000
  O   O12       1.0  0.5495470595853647  0.34172846412300817  0.4610779807460047  1.0000
  O   O13       1.0  0.5247230112260439  0.6522766208202314  0.5467512651047244  1.0000
