data_image0
_chemical_formula_structural       Al2H30C48O12
_chemical_formula_sum              "Al2 H30 C48 O12"
_cell_length_a       3.982955304107979
_cell_length_b       28.535433754737994
_cell_length_c       28.53573179912385
_cell_angle_alpha    119.99962787219157
_cell_angle_beta     89.99943950952624
_cell_angle_gamma    89.99971554684066

_space_group_name_H-M_alt    "P 1"
_space_group_IT_number       1

loop_
  _space_group_symop_operation_xyz
  'x, y, z'

loop_
  _atom_site_type_symbol
  _atom_site_label
  _atom_site_symmetry_multiplicity
  _atom_site_fract_x
  _atom_site_fract_y
  _atom_site_fract_z
  _atom_site_occupancy
  Al  Al1       1.0  0.0145226309093758  0.49999980952340206  0.4999979435119569  1.0000
  Al  Al2       1.0  0.0146244834283351  0.1666684419696977  0.8333370662160461  1.0000
  H   H1        1.0  0.2193061666616885  0.18571918942829047  0.698565976794299  1.0000
  H   H2        1.0  0.21232452780928673  0.24166860013735922  0.6540341887959684  1.0000
  H   H3        1.0  0.7562753329995431  0.36728468214960924  0.7892035252067018  1.0000
  H   H4        1.0  0.7874577417023971  0.3087427672599856  0.8309352353988045  1.0000
  H   H5        1.0  0.7562652796408289  0.299373153150519  0.5441227796475943  1.0000
  H   H6        1.0  0.21227015766562837  0.42499407603568057  0.6792971857341427  1.0000
  H   H7        1.0  0.21921285293274206  0.48094389332931087  0.6347621595187647  1.0000
  H   H8        1.0  0.7874184940569223  0.35791655083030355  0.5023852553838566  1.0000
  H   H9        1.0  0.5053732907794882  0.38594153567579775  0.7216353886064937  1.0000
  H   H10       1.0  0.5053791142787531  0.28073128506539274  0.6117035792164599  1.0000
  H   H11       1.0  0.2191945879926251  0.012848862901939914  0.8142762011171525  1.0000
  H   H12       1.0  0.21223106318928592  0.9123664704923016  0.7583267786375457  1.0000
  H   H13       1.0  0.7563213642398595  0.9219216575079016  0.6327202558321828  1.0000
  H   H14       1.0  0.7874979759465714  0.022195053664276487  0.6912608717619548  1.0000
  H   H15       1.0  0.756359715916375  0.7447433134514868  0.7006106443573826  1.0000
  H   H16       1.0  0.21226306272752993  0.7543066184933735  0.5750080172347011  1.0000
  H   H17       1.0  0.2191788107404875  0.6538228473972795  0.5190573254903582  1.0000
  H   H18       1.0  0.787483708670031  0.6444669699822824  0.6420716315369501  1.0000
  H   H19       1.0  0.5053666923067298  0.835697647466979  0.6140608703209123  1.0000
  H   H20       1.0  0.5054006460829968  0.8309690465875545  0.7192686213057014  1.0000
  H   H21       1.0  0.21925857080895383  0.30143176079651807  0.9871536672158568  1.0000
  H   H22       1.0  0.21227529857183208  0.3459625520522565  0.0876341696584858  1.0000
  H   H23       1.0  0.7563690021861406  0.21080227145221636  0.07808159645185944  1.0000
  H   H24       1.0  0.7875427975509055  0.16907190318167395  0.9778109089137812  1.0000
  H   H25       1.0  0.7562478091516242  0.45587656659138537  0.2552482826531132  1.0000
  H   H26       1.0  0.21225247615901574  0.32070710546909  0.2456972788125142  1.0000
  H   H27       1.0  0.21918763816992035  0.365240704533484  0.346179805097421  1.0000
  H   H28       1.0  0.787406247446974  0.49761451104510723  0.35552453823486724  1.0000
  H   H29       1.0  0.5054128499202618  0.2783651499048716  0.16430580818080637  1.0000
  H   H30       1.0  0.5053404337901881  0.38829843407380343  0.16902632257187375  1.0000
  C   C1        1.0  0.5133167598689924  0.4606096451711679  0.4167659040808686  1.0000
  C   C2        1.0  0.5133073993033009  0.4561603898417701  0.5393912340229575  1.0000
  C   C3        1.0  0.5133100108347933  0.5832263393705759  0.5438325142191545  1.0000
  C   C4        1.0  0.5134004952564197  0.21050036398384003  0.793942947352285  1.0000
  C   C5        1.0  0.5134054156915014  0.08344115610013576  0.7895019343171937  1.0000
  C   C6        1.0  0.5134087095403643  0.20606270618466727  0.916563688651472  1.0000
  C   C7        1.0  0.5071115725518425  0.24368431894527715  0.7671677349820668  1.0000
  C   C8        1.0  0.3448422372247322  0.22488568452203575  0.7172405844965509  1.0000
  C   C9        1.0  0.34212097505223943  0.25624061446961827  0.6925319459901047  1.0000
  C   C10       1.0  0.48885942140371713  0.30817432507038944  0.7180673720816984  1.0000
  C   C11       1.0  0.640985494484113  0.32721071032687365  0.7689938293507267  1.0000
  C   C12       1.0  0.658449636431719  0.29490168718341886  0.7925602149229078  1.0000
  C   C13       1.0  0.4877273757501542  0.3423357154631859  0.6935240091245802  1.0000
  C   C14       1.0  0.4877497158441599  0.32432650506564886  0.6397982961963107  1.0000
  C   C15       1.0  0.640934904686411  0.33945582387081424  0.5643452693709676  1.0000
  C   C16       1.0  0.4888597236205926  0.35848249534275556  0.6152673373870667  1.0000
  C   C17       1.0  0.3420950021906748  0.41041651559660847  0.640794637167964  1.0000
  C   C18       1.0  0.34480438098391636  0.441773315801484  0.6160834165891274  1.0000
  C   C19       1.0  0.507042829855216  0.42297974170817537  0.5661519511409309  1.0000
  C   C20       1.0  0.6583895580460036  0.37176570799441316  0.5407716443838382  1.0000
  C   C21       1.0  0.5071083302868048  0.023485563866550686  0.7563165282973897  1.0000
  C   C22       1.0  0.34478890269813434  0.9923569125530062  0.7751136014189155  1.0000
  C   C23       1.0  0.3420618957371887  0.9362925592493666  0.7437589173943521  1.0000
  C   C24       1.0  0.48884218050061895  0.9098964458763207  0.6918265694942036  1.0000
  C   C25       1.0  0.6409981642380558  0.94178442966799  0.6727928642639396  1.0000
  C   C26       1.0  0.6584729832909987  0.9976585075968673  0.7051024369105079  1.0000
  C   C27       1.0  0.4877171470453376  0.8511915828697312  0.6576658910592386  1.0000
  C   C28       1.0  0.4877623233659634  0.8154721333588456  0.6756715557944091  1.0000
  C   C29       1.0  0.6409823606213509  0.7248862383899563  0.6605377117264053  1.0000
  C   C30       1.0  0.48887432205187054  0.7567815609443257  0.6415105999016574  1.0000
  C   C31       1.0  0.3420962034727496  0.7303793224208945  0.5895786630757982  1.0000
  C   C32       1.0  0.3447872839592705  0.6743140609998974  0.558223474452788  1.0000
  C   C33       1.0  0.5070510931878405  0.6431756747558238  0.577013689336276  1.0000
  C   C34       1.0  0.6584313582707324  0.6690046466064955  0.6282250691061433  1.0000
  C   C35       1.0  0.5071318399171078  0.23283414764556892  0.9765168314592925  1.0000
  C   C36       1.0  0.3448341386787845  0.2827596652522005  0.007646721108500287  1.0000
  C   C37       1.0  0.34211761626318093  0.3074676400337211  0.06370940609685492  1.0000
  C   C38       1.0  0.48888251016957446  0.2819330542590279  0.09010803277235613  1.0000
  C   C39       1.0  0.6410328913361241  0.2310094709563089  0.05821637512058686  1.0000
  C   C40       1.0  0.6585122940023639  0.2074441517864685  0.0023433787113872864  1.0000
  C   C41       1.0  0.4877501462980618  0.3064765841637396  0.14881132286344467  1.0000
  C   C42       1.0  0.48773284403049644  0.3602038568178401  0.18452715123581234  1.0000
  C   C43       1.0  0.6409461325962412  0.43565434062426084  0.27511147500887734  1.0000
  C   C44       1.0  0.4888575988770398  0.3847343245460735  0.24321616480996502  1.0000
  C   C45       1.0  0.34207664251432857  0.35920656927091693  0.26962046972469966  1.0000
  C   C46       1.0  0.3447932713989772  0.38391721965474807  0.32569028032832387  1.0000
  C   C47       1.0  0.5070401361975884  0.43384946880522796  0.35682605219113833  1.0000
  C   C48       1.0  0.6583880353263395  0.45922860599221593  0.3309901729908659  1.0000
  O   O1        1.0  0.7502849089183102  0.5586320495750812  0.5529422336317323  1.0000
  O   O2        1.0  0.7503051319727804  0.49431249963559765  0.441362180530497  1.0000
  O   O3        1.0  0.7502710122048272  0.4470525283706976  0.5056866011230596  1.0000
  O   O4        1.0  0.2808009156148756  0.560058669998078  0.5087650426765576  1.0000
  O   O5        1.0  0.28080813430545243  0.49123107740715  0.5512897217401259  1.0000
  O   O6        1.0  0.2808329843716065  0.44871165218975756  0.43994248770533056  1.0000
  O   O7        1.0  0.7504251544548026  0.17235609095860827  0.8919688122438885  1.0000
  O   O8        1.0  0.7504140816348084  0.21961389086521876  0.8276458621876158  1.0000
  O   O9        1.0  0.7504252919445165  0.10803230667671204  0.7803901899649901  1.0000
  O   O10       1.0  0.2808809900105588  0.2179634255852745  0.8933895245846911  1.0000
  O   O11       1.0  0.2808804194542986  0.10661476008145597  0.8245742242850794  1.0000
  O   O12       1.0  0.28088826538173356  0.17542843957173904  0.7820445345633543  1.0000
