data_image0
_chemical_formula_structural       Y2H18C18N2O22
_chemical_formula_sum              "Y2 H18 C18 N2 O22"
_cell_length_a       7.399175520122419
_cell_length_b       9.215399558516097
_cell_length_c       11.508286264321901
_cell_angle_alpha    72.2763398455034
_cell_angle_beta     69.94171593914788
_cell_angle_gamma    81.07043712504347

_space_group_name_H-M_alt    "P 1"
_space_group_IT_number       1

loop_
  _space_group_symop_operation_xyz
  'x, y, z'

loop_
  _atom_site_type_symbol
  _atom_site_label
  _atom_site_symmetry_multiplicity
  _atom_site_fract_x
  _atom_site_fract_y
  _atom_site_fract_z
  _atom_site_occupancy
  Y   Y1        1.0  0.11178420550707807  0.5545297226930188  0.7195344992738767  1.0000
  Y   Y2        1.0  0.888214917886053  0.4454671996012536  0.28046269720485373  1.0000
  H   H1        1.0  0.5516088885986434  0.5069459278557961  0.5958841764703989  1.0000
  H   H2        1.0  0.4483912920473117  0.49305440704345244  0.4041137434850128  1.0000
  H   H3        1.0  0.48437516158428917  0.5550366963249759  0.7285686299482067  1.0000
  H   H4        1.0  0.5156221228104485  0.4449635763835077  0.27143078286880495  1.0000
  H   H5        1.0  0.13218189769055044  0.8514595485974752  0.4947943244387999  1.0000
  H   H6        1.0  0.8678133024614426  0.1485463396939437  0.5052076994805718  1.0000
  H   H7        1.0  0.030733179593376306  0.8909138596745195  0.6286421932858985  1.0000
  H   H8        1.0  0.9692648938035618  0.10909207456415973  0.3713592155332251  1.0000
  H   H9        1.0  0.688234649905532  0.6089250565958082  0.8701773914180464  1.0000
  H   H10       1.0  0.3117696604699702  0.39107643919994234  0.12982199767239416  1.0000
  H   H11       1.0  0.8232885154143192  0.6110456573072015  0.9551885849819826  1.0000
  H   H12       1.0  0.1767177450786122  0.38895134736823445  0.04480882926881685  1.0000
  H   H13       1.0  0.17936203318075175  0.15009875131361383  0.11287875412114089  1.0000
  H   H14       1.0  0.8206325351006286  0.8499003672284929  0.8871197597720624  1.0000
  H   H15       1.0  0.37105182095874784  0.6858647626125887  0.09984847578532198  1.0000
  H   H16       1.0  0.6289524203979369  0.31413668445266313  0.9001535465891735  1.0000
  H   H17       1.0  0.22820807975914195  0.010528394965675104  0.7786163493512532  1.0000
  H   H18       1.0  0.7717882124892483  0.9894672919447134  0.2213843370104128  1.0000
  C   C1        1.0  0.1604049449153848  0.2581178064302918  0.8658823163449939  1.0000
  C   C2        1.0  0.8395978329002034  0.7418823794942002  0.1341255216463607  1.0000
  C   C3        1.0  0.2101225813404213  0.09910430002112493  0.9347090640931484  1.0000
  C   C4        1.0  0.789877886650082  0.9008925802727749  0.0652913358808647  1.0000
  C   C5        1.0  0.2166163535713679  0.06394557972834752  0.060256766701130005  1.0000
  C   C6        1.0  0.7833797585391624  0.9360511991576534  0.9397463114459582  1.0000
  C   C7        1.0  0.2734393142642233  0.9152936666528435  0.11606465279458428  1.0000
  C   C8        1.0  0.7265596059847753  0.08470433137353693  0.8839358132309202  1.0000
  C   C9        1.0  0.324824242006727  0.8001683907542516  0.05279129648682359  1.0000
  C   C10       1.0  0.6751747433487483  0.19982843407900935  0.9472111665600096  1.0000
  C   C11       1.0  0.3024702149096826  0.8342010961116275  0.9315037972049679  1.0000
  C   C12       1.0  0.6975246177099664  0.16579455158162662  0.0684980744681808  1.0000
  C   C13       1.0  0.24578585115823154  0.98320524773331  0.8732557291513457  1.0000
  C   C14       1.0  0.7542131802097958  0.016791609586960007  0.12674497837279122  1.0000
  C   C15       1.0  0.32495352374892406  0.7113960080205362  0.8651788241809938  1.0000
  C   C16       1.0  0.6750483578577686  0.2886008790034965  0.13482214600423958  1.0000
  C   C17       1.0  0.1065759538368525  0.5009238854155317  0.45771346055055057  1.0000
  C   C18       1.0  0.8934130789234659  0.4990765093471908  0.542273753385622  1.0000
  N   N1        1.0  0.280284056766412  0.8769011639168415  0.24708748488400545  1.0000
  N   N2        1.0  0.7197160318544391  0.12309910600840372  0.7529139461168057  1.0000
  O   O1        1.0  0.15748707277374052  0.369892883766731  0.9112175297921113  1.0000
  O   O2        1.0  0.8425146747076442  0.6301051277199154  0.08878407665583396  1.0000
  O   O3        1.0  0.1238314811058885  0.2819331825262168  0.7611389583105891  1.0000
  O   O4        1.0  0.8761760588779381  0.7180649533419585  0.23885966241415701  1.0000
  O   O5        1.0  0.16356202074018  0.9478215861136123  0.32301017187883474  1.0000
  O   O6        1.0  0.8364337810195366  0.05217863113423253  0.676991304011004  1.0000
  O   O7        1.0  0.3986682814488914  0.7769061683269883  0.2786345262602907  1.0000
  O   O8        1.0  0.6013343470598045  0.22309756966386377  0.7213655651443602  1.0000
  O   O9        1.0  0.4702135116730517  0.6173375396642559  0.858545939219887  1.0000
  O   O10       1.0  0.5297908868152136  0.3826627991818797  0.1414545691305378  1.0000
  O   O11       1.0  0.1901962912992446  0.7129855295832006  0.8195079676245172  1.0000
  O   O12       1.0  0.8098044219355957  0.2870090855419676  0.1804920375854024  1.0000
  O   O13       1.0  0.22658251161799098  0.5245782135747139  0.5062508138430246  1.0000
  O   O14       1.0  0.7734196763269169  0.4754313091642217  0.4937436812617193  1.0000
  O   O15       1.0  0.4383479756661117  0.5394493178063726  0.6615072420674367  1.0000
  O   O16       1.0  0.5616478490998774  0.4605509156849764  0.3384933560610505  1.0000
  O   O17       1.0  0.08615032581044353  0.8077853417417065  0.5887470630080499  1.0000
  O   O18       1.0  0.9138521455666649  0.1922195044682553  0.41125454242067155  1.0000
  O   O19       1.0  0.8243621470080172  0.6005623392330153  0.8710139117823131  1.0000
  O   O20       1.0  0.1756428991005096  0.39943236105655444  0.12898429301588266  1.0000
  O   O21       1.0  0.14549702792739083  0.4796412664621955  0.3485217907151181  1.0000
  O   O22       1.0  0.8544962030132482  0.5203703186296664  0.6514784554998698  1.0000
