data_image0
_chemical_formula_structural       AlH12C33Br3O6
_chemical_formula_sum              "Al1 H12 C33 Br3 O6"
_cell_length_a       3.99486279645848
_cell_length_b       20.436574041819785
_cell_length_c       20.477463023331552
_cell_angle_alpha    60.076414504955785
_cell_angle_beta     86.27588876694071
_cell_angle_gamma    86.08839346025304

_space_group_name_H-M_alt    "P 1"
_space_group_IT_number       1

loop_
  _space_group_symop_operation_xyz
  'x, y, z'

loop_
  _atom_site_type_symbol
  _atom_site_label
  _atom_site_symmetry_multiplicity
  _atom_site_fract_x
  _atom_site_fract_y
  _atom_site_fract_z
  _atom_site_occupancy
  Al  Al1       1.0  0.037024082245387974  0.49951121699391626  0.4998648974643628  1.0000
  H   H1        1.0  0.8391599806024034  0.3091511942687504  0.7062561950675031  1.0000
  H   H2        1.0  0.8167300901416396  0.2363222618619574  0.8470873850911573  1.0000
  H   H3        1.0  0.23260127401758965  0.7095352481764935  0.30743228648859844  1.0000
  H   H4        1.0  0.22719549877835724  0.8506960058299173  0.2361637035624325  1.0000
  H   H5        1.0  0.28141894135929846  0.30982752511058465  0.4845338080898784  1.0000
  H   H6        1.0  0.29405939370882084  0.23827785752840921  0.4148920268656795  1.0000
  H   H7        1.0  0.772731468980858  0.7067509445400617  0.48369192579536247  1.0000
  H   H8        1.0  0.745916088824167  0.847940740936437  0.4159264347985143  1.0000
  H   H9        1.0  0.1759169904124035  0.4820910244504334  0.7096583048552674  1.0000
  H   H10       1.0  0.1721932224622478  0.4128667251308045  0.8504976531092723  1.0000
  H   H11       1.0  0.8875251463976283  0.47906132478838265  0.30743114855350473  1.0000
  H   H12       1.0  0.8809854967216281  0.4111169829814117  0.23438125172329896  1.0000
  C   C1        1.0  0.519481599828886  0.4420915075693159  0.6159051428013101  1.0000
  C   C2        1.0  0.5726182030093342  0.4406100183294582  0.4421993381481855  1.0000
  C   C3        1.0  0.5168709806357726  0.6158238412367468  0.4411827801946443  1.0000
  C   C4        1.0  0.6889943041899115  0.3305323582620332  0.7384749573378357  1.0000
  C   C5        1.0  0.6775505100605557  0.2902148699216625  0.8166940271677774  1.0000
  C   C6        1.0  0.3491606355180322  0.7403807876819927  0.32999560122818367  1.0000
  C   C7        1.0  0.3450546433768054  0.8187921957250738  0.29051777915697125  1.0000
  C   C8        1.0  0.4173704836123875  0.33063783369960487  0.4304537625424487  1.0000
  C   C9        1.0  0.42370104982423834  0.2909828876941703  0.3916990829868395  1.0000
  C   C10       1.0  0.6486276801679692  0.7388859272808902  0.4301737903712349  1.0000
  C   C11       1.0  0.6347716074821435  0.8172753889146663  0.3924367264671957  1.0000
  C   C12       1.0  0.3198414185883535  0.42893759670716497  0.74035398262874  1.0000
  C   C13       1.0  0.31697138286446597  0.3903539337271198  0.8185946419266443  1.0000
  C   C14       1.0  0.7537390589613367  0.42701527560367236  0.32974589635271195  1.0000
  C   C15       1.0  0.7512067829382187  0.38912074812257913  0.2893000920793298  1.0000
  C   C16       1.0  0.5085706844993396  0.3998357818284007  0.6996694959126515  1.0000
  C   C17       1.0  0.4942690545962024  0.3200749378195766  0.8579460017505127  1.0000
  C   C18       1.0  0.4911443479202546  0.28028652134383947  0.9376112496203389  1.0000
  C   C19       1.0  0.4928017619820225  0.24603395334466432  0.006293494569831573  1.0000
  C   C20       1.0  0.5000813474980814  0.206783512371878  0.0856556232270194  1.0000
  C   C21       1.0  0.5040961902952148  0.6997939247823624  0.39964847148275595  1.0000
  C   C22       1.0  0.4861402673266966  0.8584129312285  0.321475388120632  1.0000
  C   C23       1.0  0.4829716998639029  0.9381813401325941  0.2817252493141922  1.0000
  C   C24       1.0  0.4860949261688177  0.0069893739494944  0.2474731905637597  1.0000
  C   C25       1.0  0.4962124516627853  0.0863549366637528  0.2072292444104562  1.0000
  C   C26       1.0  0.5835466646317754  0.39868110317972594  0.4000978514054409  1.0000
  C   C27       1.0  0.587021666065759  0.3202902331685209  0.3198928334964322  1.0000
  C   C28       1.0  0.5798288550491365  0.2814246877090909  0.2791244727374291  1.0000
  C   C29       1.0  0.5641063281317074  0.24748495305609458  0.24456853520369745  1.0000
  C   C30       1.0  0.5402151309436221  0.20751903056505233  0.20556691514872938  1.0000
  C   C31       1.0  0.4813708928253533  0.1273129011079135  0.12774823534205382  1.0000
  C   C32       1.0  0.5253016244383987  0.12791322876962144  0.2447037259136593  1.0000
  C   C33       1.0  0.5289863436221507  0.24543982434111197  0.12606259998580072  1.0000
  Br  Br1       1.0  0.5483197674835267  0.07526360376889582  0.3506959654151842  1.0000
  Br  Br2       1.0  0.5557120782319274  0.3514831322389752  0.07188749020674125  1.0000
  Br  Br3       1.0  0.4334847445846464  0.073966173547781  0.07592511180670408  1.0000
  O   O1        1.0  0.29773037504443767  0.5824400692849423  0.42685877422234586  1.0000
  O   O2        1.0  0.2788251016586044  0.48983907922838205  0.5828050405563515  1.0000
  O   O3        1.0  0.33128334225597905  0.4269707617090007  0.4908785241177398  1.0000
  O   O4        1.0  0.7473099950880024  0.5823754568804631  0.48890340764019385  1.0000
  O   O5        1.0  0.8012026952395386  0.48728420162972713  0.42744314685197077  1.0000
  O   O6        1.0  0.7705529777943383  0.42770081398445103  0.5824225093273796  1.0000
