data_image0
_chemical_formula_structural       Ag4H50C30N6O8
_chemical_formula_sum              "Ag4 H50 C30 N6 O8"
_cell_length_a       7.186572463061292
_cell_length_b       11.153858137888797
_cell_length_c       11.411404755291908
_cell_angle_alpha    77.44764240752879
_cell_angle_beta     76.33207439719921
_cell_angle_gamma    88.86684446366161

_space_group_name_H-M_alt    "P 1"
_space_group_IT_number       1

loop_
  _space_group_symop_operation_xyz
  'x, y, z'

loop_
  _atom_site_type_symbol
  _atom_site_label
  _atom_site_symmetry_multiplicity
  _atom_site_fract_x
  _atom_site_fract_y
  _atom_site_fract_z
  _atom_site_occupancy
  Ag  Ag1       1.0  0.5445163722366929  0.7268753361103748  0.3156331389338547  1.0000
  Ag  Ag2       1.0  0.455486279692991  0.2731250455598939  0.6843696523340128  1.0000
  Ag  Ag3       1.0  0.5000013711635418  0.5000011095192889  0.5000007549698183  1.0000
  Ag  Ag4       1.0  0.49999742891071725  0.4999999536901143  2.5071168607252955e-06  1.0000
  H   H1        1.0  0.09573966337272573  0.8742963554548524  0.14236468168546423  1.0000
  H   H2        1.0  0.9042601225572542  0.12570402140582362  0.8576359088363008  1.0000
  H   H3        1.0  0.8734068704513264  0.9462770003008458  0.18258648177814504  1.0000
  H   H4        1.0  0.12659578088429413  0.0537233807112898  0.8174154334019125  1.0000
  H   H5        1.0  0.031470526952084306  0.9092436950372189  0.3577432384268847  1.0000
  H   H6        1.0  0.9685304642020612  0.09075208883308508  0.6422590275250926  1.0000
  H   H7        1.0  0.812872239677816  0.822823675092792  0.3969009044893498  1.0000
  H   H8        1.0  0.18713452481301127  0.17717303280303298  0.6030994277200108  1.0000
  H   H9        1.0  0.21792956093552365  0.7293398789116451  0.3180351513414905  1.0000
  H   H10       1.0  0.7820729503485139  0.2706577411120676  0.6819621151724037  1.0000
  H   H11       1.0  0.06361147042175472  0.6868366978639956  0.4667401500649009  1.0000
  H   H12       1.0  0.9363937679985386  0.3131581672971393  0.5332564207045323  1.0000
  H   H13       1.0  0.8406657656303339  0.5786320104968466  0.3888498725543529  1.0000
  H   H14       1.0  0.1593354500321453  0.42136836514891485  0.6111469998575529  1.0000
  H   H15       1.0  0.07584338020640762  0.5298038183907251  0.33336543260893603  1.0000
  H   H16       1.0  0.9241562195821873  0.4701928778101632  0.6666298357790694  1.0000
  H   H17       1.0  0.8823041439864098  0.574473309334877  0.17134118680547775  1.0000
  H   H18       1.0  0.1176942523602165  0.42552798183077545  0.828655034415711  1.0000
  H   H19       1.0  0.10070497925966754  0.6633121031927659  0.1283499879812453  1.0000
  H   H20       1.0  0.8992948491957196  0.33668918939049053  0.8716460194812969  1.0000
  H   H21       1.0  0.7735128366727296  0.707447319273349  0.0287112588571219  1.0000
  H   H22       1.0  0.22648408444567283  0.29255305409398596  0.9712888830941397  1.0000
  H   H23       1.0  0.9548686772835709  0.8264751584169827  0.9842689537591129  1.0000
  H   H24       1.0  0.0451268578158661  0.173526133204092  0.0157320754183843  1.0000
  H   H25       1.0  0.6614414880857212  0.9131076402565981  0.9367178859905323  1.0000
  H   H26       1.0  0.3385554797165399  0.0868936534402138  0.06328380551611448  1.0000
  H   H27       1.0  0.69498196569009  0.9715974989818151  0.06217582680797308  1.0000
  H   H28       1.0  0.3050164342209242  0.02840379613260069  0.9378256509400275  1.0000
  H   H29       1.0  0.08007489428677424  0.8690634928362544  0.791971928830279  1.0000
  H   H30       1.0  0.9199220729214234  0.1309378002024246  0.20802888658857202  1.0000
  H   H31       1.0  0.10440393240239841  0.8662928569600864  0.6344388431993694  1.0000
  H   H32       1.0  0.8955930808955942  0.13370935574994292  0.36556264568706354  1.0000
  H   H33       1.0  0.858249610837781  0.7065204526370792  0.7720947610206822  1.0000
  H   H34       1.0  0.14174860590217972  0.29347716510819305  0.22790577503257486  1.0000
  H   H35       1.0  0.031234249606072212  0.6379441506235891  0.8507897002302658  1.0000
  H   H36       1.0  0.968771355156328  0.36205806927581813  0.14920875392866154  1.0000
  H   H37       1.0  0.055651381275907914  0.6349895972414216  0.693001378869603  1.0000
  H   H38       1.0  0.9443527003862756  0.3650107832139398  0.30699769428840545  1.0000
  H   H39       1.0  0.40580831814984464  0.9798437389215663  0.5895576670482754  1.0000
  H   H40       1.0  0.5941915150580642  0.0201575589267122  0.410445349116678  1.0000
  H   H41       1.0  0.3878149921561232  0.9740595354469053  0.7479650413194179  1.0000
  H   H42       1.0  0.6121861360792809  0.025939006121191703  0.2520374928597207  1.0000
  H   H43       1.0  0.7246448413692407  0.018592080197159095  0.6178644029415922  1.0000
  H   H44       1.0  0.2753562856780293  0.9814064600546787  0.38213637906194015  1.0000
  H   H45       1.0  0.7273376463633668  0.8713592659879339  0.5823371994119173  1.0000
  H   H46       1.0  0.2726621389725423  0.12864111021460897  0.41766251502203744  1.0000
  H   H47       1.0  0.7063008574527886  0.8841077499549995  0.7373979153239674  1.0000
  H   H48       1.0  0.2937002684063473  0.11589078898057892  0.26260111450396556  1.0000
  H   H49       1.0  0.4229322132163206  0.7954181502170454  0.059109985027902184  1.0000
  H   H50       1.0  0.5770660962973011  0.20458130752905382  0.9408927740483296  1.0000
  C   C1        1.0  0.9497023465163679  0.8611750204661349  0.2038070570969523  1.0000
  C   C2        1.0  0.05030035090905469  0.1388262802173585  0.7961955315506941  1.0000
  C   C3        1.0  0.960405606825553  0.83192771467575  0.3385430841420316  1.0000
  C   C4        1.0  0.039599726150591194  0.16806899246058998  0.6614583379137785  1.0000
  C   C5        1.0  0.06570474413776141  0.7131700603541021  0.3678639297880935  1.0000
  C   C6        1.0  0.9342979042275348  0.28683031736739656  0.6321336049529548  1.0000
  C   C7        1.0  0.9825546042667811  0.6089253614891134  0.32657349903249167  1.0000
  C   C8        1.0  0.0174465653059031  0.39107409448530445  0.673422699911825  1.0000
  C   C9        1.0  0.9586678457917729  0.6471904161623384  0.19446157556138394  1.0000
  C   C10       1.0  0.041331937167882415  0.3528099574076932  0.8055346345213723  1.0000
  C   C11       1.0  0.8177343217998184  0.7923853691804157  0.05055325859110838  1.0000
  C   C12       1.0  0.18226269031004697  0.20761684221335497  0.9494464781197253  1.0000
  C   C13       1.0  0.6641474023752422  0.8867354800853489  0.035034357495476315  1.0000
  C   C14       1.0  0.3358509969417156  0.11326581437094059  0.964966244164721  1.0000
  C   C15       1.0  0.4907211992563987  0.558160171126893  0.7417087552748499  1.0000
  C   C16       1.0  0.5092801546754728  0.4418429635329133  0.25829013753981667  1.0000
  C   C17       1.0  0.41517179732147014  0.7326375605227469  0.6014636689184132  1.0000
  C   C18       1.0  0.5848249902800545  0.2673600590955586  0.3985414613324992  1.0000
  C   C19       1.0  0.34651917564072926  0.7991600309050423  0.7067280828856469  1.0000
  C   C20       1.0  0.6534792667956992  0.2008421799319535  0.29326881180313086  1.0000
  C   C21       1.0  0.3825728149087624  0.7296567813894727  0.8304693171754991  1.0000
  C   C22       1.0  0.6174338562143405  0.2703380858473992  0.16952791592308358  1.0000
  C   C23       1.0  0.12681448147301924  0.8130797816733943  0.7228024567701257  1.0000
  C   C24       1.0  0.8731810991221566  0.1869224289608978  0.27719836978716483  1.0000
  C   C25       1.0  0.012095817509163  0.6916768783272714  0.7617654210032045  1.0000
  C   C26       1.0  0.9879039672326825  0.3083234972171454  0.2382334173429542  1.0000
  C   C27       1.0  0.44622025086093947  0.927459754869808  0.6723764539446508  1.0000
  C   C28       1.0  0.5537823543848858  0.0725397064709838  0.32762478776781734  1.0000
  C   C29       1.0  0.6633853511624466  0.9247311261859888  0.6514258753724108  1.0000
  C   C30       1.0  0.33661434318199923  0.07526741199011158  0.34857424430197176  1.0000
  N   N1        1.0  0.8468535011681624  0.7602038281577561  0.17728607063003213  1.0000
  N   N2        1.0  0.15314637515921706  0.23979838607123577  0.8227132385635016  1.0000
  N   N3        1.0  0.4708867872301569  0.6157089049647766  0.6253244921808021  1.0000
  N   N4        1.0  0.5291130896912861  0.38429330992233435  0.3746756931005352  1.0000
  N   N5        1.0  0.4539092733345099  0.6156718720660448  0.839727324729303  1.0000
  N   N6        1.0  0.5460875118907608  0.38432574491975646  0.16027430117040356  1.0000
  O   O1        1.0  0.5460186104008714  0.4496878856080003  0.7595148080488628  1.0000
  O   O2        1.0  0.4539925874974884  0.550311584238436  0.24048515111170593  1.0000
  O   O3        1.0  0.41029220283883217  0.7889483598160111  0.49389112411676456  1.0000
  O   O4        1.0  0.5897018516857955  0.21105200808359828  0.5061059410005981  1.0000
  O   O5        1.0  0.3422116055013405  0.7799906439880359  0.9208281347180148  1.0000
  O   O6        1.0  0.6577824082800704  0.2200088101633781  0.07917614172196606  1.0000
  O   O7        1.0  0.4782087732197056  0.8416666091267045  0.1083333365718532  1.0000
  O   O8        1.0  0.5217881490868237  0.15833376555688966  0.8916685575550078  1.0000
