data_image0
_chemical_formula_structural       Zn2H20C30N2O18
_chemical_formula_sum              "Zn2 H20 C30 N2 O18"
_cell_length_a       9.667683042958952
_cell_length_b       10.739199638434389
_cell_length_c       11.001969147947921
_cell_angle_alpha    93.73705421104343
_cell_angle_beta     86.35235034782372
_cell_angle_gamma    90.23624294353331

_space_group_name_H-M_alt    "P 1"
_space_group_IT_number       1

loop_
  _space_group_symop_operation_xyz
  'x, y, z'

loop_
  _atom_site_type_symbol
  _atom_site_label
  _atom_site_symmetry_multiplicity
  _atom_site_fract_x
  _atom_site_fract_y
  _atom_site_fract_z
  _atom_site_occupancy
  Zn  Zn1       1.0  0.6433214022637516  0.4984233836732273  0.4894346020165017  1.0000
  Zn  Zn2       1.0  0.3493609579769767  0.5028600027558242  0.5070887486934909  1.0000
  H   H1        1.0  0.73319595727385  0.8957738193993521  0.5203277043381789  1.0000
  H   H2        1.0  0.4340118387788507  0.8450471959424563  0.3462680318936933  1.0000
  H   H3        1.0  0.1483984041343192  0.43057903307102674  0.3210700311210388  1.0000
  H   H4        1.0  0.8862155369517097  0.4171192330332049  0.31445635922500514  1.0000
  H   H5        1.0  0.688062338884102  0.8391622700340947  0.7299386949463412  1.0000
  H   H6        1.0  0.25873551092820435  0.9385505231104007  0.7728176412056272  1.0000
  H   H7        1.0  0.6511207744674864  0.10989617152406342  0.26901102533445  1.0000
  H   H8        1.0  0.2664863506251507  0.151102572612352  0.35794056269058677  1.0000
  H   H9        1.0  0.2698137800863521  0.6782539696789202  0.8503870980067347  1.0000
  H   H10       1.0  0.6812679789203602  0.2921578208793107  0.7833822651155627  1.0000
  H   H11       1.0  0.2641889998108837  0.7898683376682742  0.23802489991583542  1.0000
  H   H12       1.0  0.29226902782747294  0.9058527595294452  0.5456640200117774  1.0000
  H   H13       1.0  0.8681562853492868  0.4633890930592699  0.995804511367723  1.0000
  H   H14       1.0  0.8432616105506414  0.5628660786094671  0.6753303081321888  1.0000
  H   H15       1.0  0.1038735219958582  0.5655751942602194  0.6857700071224144  1.0000
  H   H16       1.0  0.6698581852784004  0.14514539485630004  0.6122866227556827  1.0000
  H   H17       1.0  0.4253804957675131  0.1192300307969703  0.6893137452658921  1.0000
  H   H18       1.0  0.7189278012499403  0.09971661476668461  0.45900108822711877  1.0000
  H   H19       1.0  0.2884780736218318  0.12304915362021521  0.5908552504786115  1.0000
  H   H20       1.0  0.6098292193117062  0.8901050416515943  0.343768307567359  1.0000
  C   C1        1.0  0.48077043296402894  0.48447532136785315  0.7397404048314229  1.0000
  C   C2        1.0  0.9358701174516287  0.4524060172158785  0.3961775351671334  1.0000
  C   C3        1.0  0.9121991295370792  0.5331598035916444  0.5968476425729463  1.0000
  C   C4        1.0  0.05540187650147031  0.5361929278687043  0.6018299831624532  1.0000
  C   C5        1.0  0.5130085248934294  0.7386966129804264  0.5301395815623664  1.0000
  C   C6        1.0  0.5073709997818696  0.5115593464115237  0.2641637231867406  1.0000
  C   C7        1.0  0.48947841044908824  0.2614120112319896  0.4873258793541595  1.0000
  C   C8        1.0  0.6459954342476665  0.9471843826364933  0.5698749344259041  1.0000
  C   C9        1.0  0.38247553682037255  0.937229309442323  0.5963338502436457  1.0000
  C   C10       1.0  0.642200930217186  0.08339738959858779  0.533939325385724  1.0000
  C   C11       1.0  0.3901947532707695  0.08157491624631771  0.6010190460403848  1.0000
  C   C12       1.0  0.4615298256268829  0.04439254200992341  0.3779238832592497  1.0000
  C   C13       1.0  0.5071051638755364  0.9083312808942312  0.39042801143108363  1.0000
  C   C14       1.0  0.5133103333735607  0.8806382171765325  0.5269930775303919  1.0000
  C   C15       1.0  0.4961826658558482  0.12025649135905071  0.4997315622825411  1.0000
  C   C16       1.0  0.6714451624252861  0.936012384341133  0.703810557072245  1.0000
  C   C17       1.0  0.3519013569806617  0.8941057067318213  0.7224035205205652  1.0000
  C   C18       1.0  0.5374951664063802  0.0951811124849229  0.26501236101128006  1.0000
  C   C19       1.0  0.3075250532059499  0.05430352162943561  0.353725160087329  1.0000
  C   C20       1.0  0.2496594896500001  0.5885248082325917  0.8931345428812563  1.0000
  C   C21       1.0  0.7129777883330208  0.37491857323505684  0.8403361676310651  1.0000
  C   C22       1.0  0.2789469143061964  0.6252210019118538  0.1541147247419374  1.0000
  C   C23       1.0  0.3741102789316528  0.5363154181530377  0.9495530999839871  1.0000
  C   C24       1.0  0.7347258026015808  0.39176158872548683  0.1120308386208322  1.0000
  C   C25       1.0  0.6023204446344581  0.436820058529243  0.9249677300444858  1.0000
  C   C26       1.0  0.3868690522985788  0.5496259291373207  0.0759182778849024  1.0000
  C   C27       1.0  0.6135533740073315  0.4465515237360549  0.05211373885098419  1.0000
  C   C28       1.0  0.5044699230006345  0.5031668308371737  0.12705990445729748  1.0000
  C   C29       1.0  0.4836417461761117  0.4824491228465676  0.8750682399348193  1.0000
  C   C30       1.0  0.0794689407567475  0.4578072625956153  0.4004091752036416  1.0000
  N   N1        1.0  0.8539032464319051  0.4914947090557789  0.4942765589264014  1.0000
  N   N2        1.0  0.13775577138668643  0.49996701264386467  0.5029217543735882  1.0000
  O   O1        1.0  0.595372784171481  0.462759176298448  0.6781499334400748  1.0000
  O   O2        1.0  0.41938390770749834  0.8169621245030996  0.7702947561713245  1.0000
  O   O3        1.0  0.4771042000447069  0.11674443943544333  0.1746617417635008  1.0000
  O   O4        1.0  0.23209687118710326  0.9654125171830117  0.3300920436530106  1.0000
  O   O5        1.0  0.13462524975939524  0.5409772017480989  0.9006038280890535  1.0000
  O   O6        1.0  0.8355752162177839  0.4066420937480403  0.840863335832637  1.0000
  O   O7        1.0  0.1592438906449232  0.5944106089331883  0.1767334344079856  1.0000
  O   O8        1.0  0.3336727275850465  0.7370902423764749  0.18919996044796514  1.0000
  O   O9        1.0  0.717199521975971  0.3187392527500634  0.192173835040812  1.0000
  O   O10       1.0  0.8628560093008136  0.43050304529534605  0.07844336650846631  1.0000
  O   O11       1.0  0.36627660590074396  0.5101917508730055  0.6965055876979918  1.0000
  O   O12       1.0  0.6263801771339673  0.6834720973684867  0.5432585252289927  1.0000
  O   O13       1.0  0.39715331077280797  0.6866391072276059  0.5106398110035073  1.0000
  O   O14       1.0  0.618856160769191  0.5433594398814848  0.31227886293386586  1.0000
  O   O15       1.0  0.3927891848067659  0.4853567875646477  0.3202138422294354  1.0000
  O   O16       1.0  0.6021820870506076  0.31515601009652994  0.45618571472526537  1.0000
  O   O17       1.0  0.3723953298560616  0.3139460677739906  0.5104615603844778  1.0000
  O   O18       1.0  0.6782949622214434  0.024963411909254805  0.7784640144190362  1.0000
