data_image0
_chemical_formula_structural       Al6H21C63NO30
_chemical_formula_sum              "Al6 H21 C63 N1 O30"
_cell_length_a       12.47346522370189
_cell_length_b       12.269126536378753
_cell_length_c       27.03314250867472
_cell_angle_alpha    97.65546285298768
_cell_angle_beta     90.49905482890017
_cell_angle_gamma    119.1149143429947

_space_group_name_H-M_alt    "P 1"
_space_group_IT_number       1

loop_
  _space_group_symop_operation_xyz
  'x, y, z'

loop_
  _atom_site_type_symbol
  _atom_site_label
  _atom_site_symmetry_multiplicity
  _atom_site_fract_x
  _atom_site_fract_y
  _atom_site_fract_z
  _atom_site_occupancy
  Al  Al1       1.0  0.41047890920096086  0.8125456229265137  0.48846577930248  1.0000
  Al  Al2       1.0  0.6628043263984579  0.07718650322949827  0.5029021991475204  1.0000
  Al  Al3       1.0  0.4237843633979637  0.08232676190144872  0.5042035401792049  1.0000
  Al  Al4       1.0  0.9226849194413588  0.8496699342119596  0.020912712305246786  1.0000
  Al  Al5       1.0  0.9189006247068576  0.5834942750224171  0.006277709686898388  1.0000
  Al  Al6       1.0  0.67556647733727  0.5795406109230115  0.0037738508115694016  1.0000
  H   H1        1.0  0.8527076097068971  0.3754599881435253  0.30764495551162696  1.0000
  H   H2        1.0  0.8468291761137648  0.9775869427346958  0.8098358808480268  1.0000
  H   H3        1.0  0.563876238096995  0.6293085229999349  0.6760988973495257  1.0000
  H   H4        1.0  0.4784325060517673  0.27233681693458317  0.2002981926536265  1.0000
  H   H5        1.0  0.4628430927515339  0.2482328203747386  0.2905144425710589  1.0000
  H   H6        1.0  0.35824583883147926  0.8564154320919285  0.7200653363565406  1.0000
  H   H7        1.0  0.9850926669033199  0.8358877242331101  0.7928983374864131  1.0000
  H   H8        1.0  0.020449373607391377  0.8697167137315488  0.7040832585737462  1.0000
  H   H9        1.0  0.8498413732601124  0.015096728684916598  0.7209583303025154  1.0000
  H   H10       1.0  0.5206165709492583  0.44580984792657563  0.7039788533249052  1.0000
  H   H11       1.0  0.40243597848746754  0.48751376749021336  0.7160364775028611  1.0000
  H   H12       1.0  0.4221619517636269  0.3863895884980905  0.7531153069677217  1.0000
  H   H13       1.0  0.004682606176331131  0.5476178525872937  0.2716361799807885  1.0000
  H   H14       1.0  0.9554399715483726  0.6004754577306386  0.22160826308328296  1.0000
  H   H15       1.0  0.06523557302230641  0.5467888243571436  0.21163200699668744  1.0000
  H   H16       1.0  0.32187167552152823  0.8116353487707498  0.852444049123946  1.0000
  H   H17       1.0  0.505294233173494  0.8254236017116057  0.8323424111296376  1.0000
  H   H18       1.0  0.5171057019517278  0.9297260113444209  0.7900568530411645  1.0000
  H   H19       1.0  0.44270540928754815  0.7636427587318481  0.7691246098691877  1.0000
  H   H20       1.0  0.31997809597452687  0.6069910373489121  0.5071163421666469  1.0000
  H   H21       1.0  0.0322315149526062  0.0556087018705398  0.0031492844291633984  1.0000
  C   C1        1.0  0.614197018956382  0.8945293593168554  0.4196351124925072  1.0000
  C   C2        1.0  0.5595952760105334  0.29460165497511775  0.22411044972657376  1.0000
  C   C3        1.0  0.5509136345893779  0.281607557252208  0.2742764217071638  1.0000
  C   C4        1.0  0.6570468342093321  0.3113996913443556  0.30496155865397867  1.0000
  C   C5        1.0  0.6738830491603808  0.33863195428961745  0.2029518818347995  1.0000
  C   C6        1.0  0.6859549458155527  0.35941362688907924  0.1526573256780352  1.0000
  C   C7        1.0  0.6479980394228662  0.294261135172313  0.3558512592229661  1.0000
  C   C8        1.0  0.6995734743094032  0.3826490139829986  0.1098891903107742  1.0000
  C   C9        1.0  0.11438256053428833  0.794761496254189  0.13710789834951237  1.0000
  C   C10       1.0  0.14525446032845926  0.817684397176016  0.18213092802514544  1.0000
  C   C11       1.0  0.17305104818709782  0.838420302087762  0.23165987791316667  1.0000
  C   C12       1.0  0.6181304187801118  0.22939296571708914  0.44594740704518177  1.0000
  C   C13       1.0  0.19178222761534872  0.8526482039943558  0.2775621955404546  1.0000
  C   C14       1.0  0.2126193700575882  0.8672388182553589  0.3273125529290013  1.0000
  C   C15       1.0  0.23305137353182911  0.8807785453049845  0.37281970370104733  1.0000
  C   C16       1.0  0.6761377279379203  0.7839039012705911  0.1335658793054506  1.0000
  C   C17       1.0  0.667186436735271  0.8013335080251165  0.1787399914366574  1.0000
  C   C18       1.0  0.6598674077139607  0.8198323736788424  0.2282764128794383  1.0000
  C   C19       1.0  0.6555784565245945  0.8363324879053662  0.2740890612365661  1.0000
  C   C20       1.0  0.6485723311708966  0.8544584556343859  0.32365934655391015  1.0000
  C   C21       1.0  0.6404296267345232  0.8712815629078676  0.368913123509337  1.0000
  C   C22       1.0  0.7052532133544175  0.3825234589669648  0.8745583241897988  1.0000
  C   C23       1.0  0.28144448826820684  0.9043693406226722  0.4238872249006959  1.0000
  C   C24       1.0  0.6914604389667574  0.36040147880458306  0.8285989234276556  1.0000
  C   C25       1.0  0.6776562935911559  0.3378140255776856  0.7783600230003387  1.0000
  C   C26       1.0  0.6662314663473765  0.31890992783816324  0.7321025457923723  1.0000
  C   C27       1.0  0.652544496627101  0.2957382462719095  0.6818611236375531  1.0000
  C   C28       1.0  0.6392998001157509  0.2725731088738073  0.635895447864641  1.0000
  C   C29       1.0  0.24004423287580323  0.8918863573719378  0.6135477675782964  1.0000
  C   C30       1.0  0.2775216911593644  0.8522298582280994  0.7367696141844036  1.0000
  C   C31       1.0  0.2594558240127469  0.8343661063273088  0.7869584182056713  1.0000
  C   C32       1.0  0.06674785201813904  0.8410819718464494  0.776619657539989  1.0000
  C   C33       1.0  0.08604485039733586  0.8599121961640676  0.7273024503311873  1.0000
  C   C34       1.0  0.6400058449454988  0.8966984068711806  0.5586284035218654  1.0000
  C   C35       1.0  0.19186783013849149  0.8643902075810174  0.7071449716347189  1.0000
  C   C36       1.0  0.15030204475401376  0.8268054528720084  0.8067725870929008  1.0000
  C   C37       1.0  0.1266764749439273  0.8045048044096529  0.8563349107899965  1.0000
  C   C38       1.0  0.21481128323038942  0.8802997653395078  0.6566770231830502  1.0000
  C   C39       1.0  0.10568186038664615  0.7841246458708894  0.8992014024855095  1.0000
  C   C40       1.0  0.6781858079802703  0.8671858043672384  0.6028392591947664  1.0000
  C   C41       1.0  0.7881450353487268  0.922787170235331  0.7309163691888968  1.0000
  C   C42       1.0  0.786419469207033  0.9018153245651277  0.7801043028234673  1.0000
  C   C43       1.0  0.6258550665164577  0.682245585484658  0.7551781218936211  1.0000
  C   C44       1.0  0.6262079503401452  0.703533902329404  0.7057405217769812  1.0000
  C   C45       1.0  0.6132660182734853  0.22253373975691196  0.5832786859383035  1.0000
  C   C46       1.0  0.7056229412238224  0.8241044312357743  0.6935385383088075  1.0000
  C   C47       1.0  0.7047322367220945  0.7833133208108125  0.7934568628896342  1.0000
  C   C48       1.0  0.6987362280779051  0.7673217335113022  0.8441766009912683  1.0000
  C   C49       1.0  0.6952246288980464  0.8470918819064721  0.6443284415238821  1.0000
  C   C50       1.0  0.6954614402550235  0.7600501874181019  0.8887576010112779  1.0000
  C   C51       1.0  0.056482050632759205  0.7657268433172815  0.08730188655964348  1.0000
  C   C52       1.0  0.7250168692422109  0.43471416589635226  0.0643983199948863  1.0000
  C   C53       1.0  0.7071555537347789  0.7613779406911403  0.08361641476368219  1.0000
  C   C54       1.0  0.05664864002439885  0.7618722892950274  0.9469696576432793  1.0000
  C   C55       1.0  0.7300633745472923  0.43303954571189246  0.9271294581289309  1.0000
  C   C56       1.0  0.28967104296604157  0.9075814130308328  0.5656974937450129  1.0000
  C   C57       1.0  0.7134570403217781  0.749199597820862  0.9399795910502744  1.0000
  C   C58       1.0  0.639897850656503  0.2767034521855578  0.3993952452048646  1.0000
  C   C59       1.0  0.7713550269451447  0.35457126906461395  0.28428382738565716  1.0000
  C   C60       1.0  0.7801823138872095  0.36815248727327793  0.23386067914900366  1.0000
  C   C61       1.0  0.4696637301696853  0.46698713891412763  0.7332035024637377  1.0000
  C   C62       1.0  0.9838464121622792  0.5330844722205865  0.230886550036665  1.0000
  C   C63       1.0  0.4570082847068305  0.8365663528772983  0.801078081153747  1.0000
  N   N1        1.0  0.3419557279262335  0.8246497407741767  0.8167314077368175  1.0000
  O   O1        1.0  0.298392821661011  0.8206518044796026  0.43899970617567863  1.0000
  O   O2        1.0  0.6914396890375016  0.19750090255541145  0.5622036865351916  1.0000
  O   O3        1.0  0.5107936614784166  0.2017382600364144  0.5629341553864079  1.0000
  O   O4        1.0  0.30204194146593716  0.0036736703155212983  0.5463703592362705  1.0000
  O   O5        1.0  0.5004586708913975  0.993140123024254  0.4986436412717196  1.0000
  O   O6        1.0  0.8112316238203049  0.8416896706332079  0.07241052218795829  1.0000
  O   O7        1.0  0.027043413954388095  0.8434665571381075  0.07465874991171967  1.0000
  O   O8        1.0  0.03566758662318397  0.6604602308471216  0.06112880285571979  1.0000
  O   O9        1.0  0.8278239862240683  0.4592961300955594  0.04636577018315789  1.0000
  O   O10       1.0  0.6452206128736578  0.45895694236483553  0.04586640752187779  1.0000
  O   O11       1.0  0.6281299557009277  0.6584462005506422  0.05545799701004478  1.0000
  O   O12       1.0  0.5103993162883214  0.8164960470823814  0.4320305599242218  1.0000
  O   O13       1.0  0.8108755772799298  0.8357166884773618  0.9648075328719159  1.0000
  O   O14       1.0  0.028448262897235597  0.8412642526091999  0.9684426004307269  1.0000
  O   O15       1.0  0.040220395079948866  0.6608826092822041  0.9632431073790428  1.0000
  O   O16       1.0  0.8345678576017833  0.46073690959556757  0.9477395854322876  1.0000
  O   O17       1.0  0.6479578507832713  0.4520408271421629  0.9478924443529948  1.0000
  O   O18       1.0  0.6311146604910646  0.6490421823116534  0.9559815293517316  1.0000
  O   O19       1.0  0.8379861760947875  0.6684416067678569  0.009842219142960601  1.0000
  O   O20       1.0  0.6975119530018502  0.995690734551779  0.4472803604431518  1.0000
  O   O21       1.0  0.6980483200754507  0.20474721190792886  0.4641413790878275  1.0000
  O   O22       1.0  0.5177175517538473  0.20875081138454013  0.46518656527436514  1.0000
  O   O23       1.0  0.3087023763198005  0.012980011243776296  0.4489195288842041  1.0000
  O   O24       1.0  0.3218311739869648  0.8289985878209337  0.5469535517782944  1.0000
  O   O25       1.0  0.5339609240784925  0.8190165680451571  0.5377166515410892  1.0000
  O   O26       1.0  0.7160192152047459  0.003680832041872899  0.5452973102849157  1.0000
  O   O27       1.0  0.5521234840560324  0.5704335764701368  0.7704871716061203  1.0000
  O   O28       1.0  0.8884430222394285  0.4061753856145672  0.21221521574595664  1.0000
  O   O29       1.0  0.32623948734074293  0.6477862573259542  0.4782321796524441  1.0000
  O   O30       1.0  0.9996518762488905  0.014529239912043591  0.0318964011088667  1.0000
