data_image0
_chemical_formula_structural       Fe4Cu4H48C56I4N8
_chemical_formula_sum              "Fe4 Cu4 H48 C56 I4 N8"
_cell_length_a       9.411756169050712
_cell_length_b       12.351846851939284
_cell_length_c       12.499282688470032
_cell_angle_alpha    111.86123286491105
_cell_angle_beta     89.99984907505635
_cell_angle_gamma    90.00037588183477

_space_group_name_H-M_alt    "P 1"
_space_group_IT_number       1

loop_
  _space_group_symop_operation_xyz
  'x, y, z'

loop_
  _atom_site_type_symbol
  _atom_site_label
  _atom_site_symmetry_multiplicity
  _atom_site_fract_x
  _atom_site_fract_y
  _atom_site_fract_z
  _atom_site_occupancy
  Fe  Fe1       1.0  0.031061518479127397  0.8640489443311383  0.6980037376375848  1.0000
  Fe  Fe2       1.0  0.46894242029096483  0.8640471258604168  0.19800443201994983  1.0000
  Fe  Fe3       1.0  0.9689403701244572  0.13595115191300522  0.3019918818682187  1.0000
  Fe  Fe4       1.0  0.5310552182924225  0.13595119142794232  0.8019961241311295  1.0000
  Cu  Cu1       1.0  0.945889215735889  0.5063513381079403  0.11153817415212333  1.0000
  Cu  Cu2       1.0  0.5541112932313295  0.506351511186594  0.6115392199686128  1.0000
  Cu  Cu3       1.0  0.05411054785228229  0.4936469889916992  0.8884607855405452  1.0000
  Cu  Cu4       1.0  0.4458874078668486  0.49364943774971  0.3884599179333676  1.0000
  H   H1        1.0  0.9220727298068779  0.7183964349462927  0.3257317233855873  1.0000
  H   H2        1.0  0.5779309754967626  0.7183932316039192  0.8257322618664064  1.0000
  H   H3        1.0  0.07792065877199408  0.28160015731943844  0.6742649888904283  1.0000
  H   H4        1.0  0.42207197559889653  0.2816059727187011  0.17426622507635162  1.0000
  H   H5        1.0  0.29484719986454166  0.7068788986641582  0.5240833252590564  1.0000
  H   H6        1.0  0.20515174815922418  0.7068810248970507  0.02408361822167399  1.0000
  H   H7        1.0  0.7051493762469503  0.29312468681521864  0.47591359616495055  1.0000
  H   H8        1.0  0.7948501404358054  0.2931190419290104  0.9759167906588574  1.0000
  H   H9        1.0  0.20678759661483778  0.44211127715211523  0.20946240691517912  1.0000
  H   H10       1.0  0.29321267034519133  0.44210911341856746  0.7094669035776705  1.0000
  H   H11       1.0  0.7932132294866818  0.5578896766924474  0.7905359327575142  1.0000
  H   H12       1.0  0.7067913432425568  0.5578891989825294  0.29053445080204204  1.0000
  H   H13       1.0  0.8239509664871888  0.8494935218521036  0.5323346609783642  1.0000
  H   H14       1.0  0.6760506494844732  0.8494929118134424  0.03232999081315322  1.0000
  H   H15       1.0  0.1760434845907852  0.15050564812841574  0.467669413568899  1.0000
  H   H16       1.0  0.32395017659401754  0.15050365595559612  0.9676707126079052  1.0000
  H   H17       1.0  0.8564140711463608  0.05466475050562281  0.7124472486307952  1.0000
  H   H18       1.0  0.6435906952520368  0.0546639702069101  0.21244417989430536  1.0000
  H   H19       1.0  0.14358356742671669  0.945332669955576  0.28755697318644025  1.0000
  H   H20       1.0  0.3564122558312306  0.9453326073734091  0.7875549270683495  1.0000
  H   H21       1.0  0.1368194400132836  0.09223569682531264  0.7565615428714949  1.0000
  H   H22       1.0  0.3631872124789694  0.0922351051379025  0.2565621061769505  1.0000
  H   H23       1.0  0.8631781985743813  0.907762635172091  0.24343661859222027  1.0000
  H   H24       1.0  0.63681680112402  0.907765843811525  0.743437031724625  1.0000
  H   H25       1.0  0.28047761312767955  0.9101071554512784  0.6012525151481399  1.0000
  H   H26       1.0  0.21952387497742615  0.9101067161695087  0.1012550223884575  1.0000
  H   H27       1.0  0.7195179004747273  0.08989381799221971  0.3987426316084709  1.0000
  H   H28       1.0  0.7804790761309661  0.08989597740147556  0.8987447664720989  1.0000
  H   H29       1.0  0.026491846157455298  0.6202128230809479  0.6234665517261817  1.0000
  H   H30       1.0  0.47350706875779736  0.6202118994973276  0.12346757088867834  1.0000
  H   H31       1.0  0.9735111049399662  0.37978724865075025  0.3765330589251478  1.0000
  H   H32       1.0  0.5264895073160716  0.3797863883703202  0.8765377746372212  1.0000
  H   H33       1.0  0.795021437161594  0.7405854345255208  0.7295264136288824  1.0000
  H   H34       1.0  0.7049796101251002  0.7405840559449575  0.22952779938759  1.0000
  H   H35       1.0  0.20498363893950963  0.259415504620506  0.2704743207308554  1.0000
  H   H36       1.0  0.2950169659530459  0.25941424663173523  0.7704751514509383  1.0000
  H   H37       1.0  0.8834804608011239  0.9317702591313618  0.9096160833536475  1.0000
  H   H38       1.0  0.6165237232949109  0.9317693107237234  0.40961860636542735  1.0000
  H   H39       1.0  0.11652674030618472  0.06823069472896041  0.09038225631855572  1.0000
  H   H40       1.0  0.383476040292159  0.06822987397896442  0.5903830734940598  1.0000
  H   H41       1.0  0.17170787102634927  0.9306490742135621  0.9106625618009262  1.0000
  H   H42       1.0  0.32829483019736466  0.9306491725725082  0.41066505238645595  1.0000
  H   H43       1.0  0.8282982675860282  0.06935276176225363  0.08933450689256973  1.0000
  H   H44       1.0  0.6717038708894023  0.06935173713967663  0.589340471348507  1.0000
  H   H45       1.0  0.25985455674155833  0.7375642845291995  0.7335048620355951  1.0000
  H   H46       1.0  0.24014604350933405  0.7375656918070773  0.23350801707709928  1.0000
  H   H47       1.0  0.7401494568579209  0.26243492960207954  0.2664920284488304  1.0000
  H   H48       1.0  0.7598515950672604  0.26243346347227  0.7664984521572864  1.0000
  C   C1        1.0  0.0180223300558353  0.6775794612254202  0.34226601093480014  1.0000
  C   C2        1.0  0.48198055873185536  0.6775773778457294  0.8422669602976429  1.0000
  C   C3        1.0  0.981974246032294  0.3224188756723693  0.6577313522998766  1.0000
  C   C4        1.0  0.5180202673636388  0.32242269388071787  0.15773265035385015  1.0000
  C   C5        1.0  0.09915920765205039  0.730852474210849  0.44188033590253195  1.0000
  C   C6        1.0  0.40084166414288797  0.7308517393020825  0.941881150418887  1.0000
  C   C7        1.0  0.900836305943237  0.269148474717575  0.5581188019996901  1.0000
  C   C8        1.0  0.5991580994533975  0.26914919983082103  0.058119583941255853  1.0000
  C   C9        1.0  0.22282979884589343  0.6715439430998131  0.4508363274985641  1.0000
  C   C10       1.0  0.2771705309889113  0.671543474113726  0.9508366882015765  1.0000
  C   C11       1.0  0.7771689022629147  0.3284587651697137  0.5491610666749481  1.0000
  C   C12       1.0  0.7228313576075465  0.3284565976153501  0.049162922449831115  1.0000
  C   C13       1.0  0.17672118022811387  0.5245304524358191  0.2769855936710357  1.0000
  C   C14       1.0  0.3232784959999293  0.5245275699069509  0.776988962021264  1.0000
  C   C15       1.0  0.823278583372449  0.4754705014061216  0.7230127460017428  1.0000
  C   C16       1.0  0.6767202050922093  0.47547249691123045  0.22301144685950908  1.0000
  C   C17       1.0  0.0633150000266482  0.8429134390984955  0.5313195476691491  1.0000
  C   C18       1.0  0.4366872183301992  0.8429123384129726  0.03131977424058628  1.0000
  C   C19       1.0  0.9366805135714812  0.157087519635958  0.4686779937748328  1.0000
  C   C20       1.0  0.5633136077560792  0.15708597888326642  0.9686807819102512  1.0000
  C   C21       1.0  0.9241948617203231  0.891174962453519  0.5678955170756979  1.0000
  C   C22       1.0  0.5758069878601829  0.8911738422110675  0.06789325694705897  1.0000
  C   C23       1.0  0.07580065187704578  0.1088277163900457  0.43210666647279794  1.0000
  C   C24       1.0  0.42419383821972895  0.10882273046098591  0.9321066482448758  1.0000
  C   C25       1.0  0.9417561731451439  0.9990227828691334  0.6637352390642307  1.0000
  C   C26       1.0  0.5582473299269494  0.9990215709239935  0.16373377985355123  1.0000
  C   C27       1.0  0.058244652952104986  0.0009781562663916995  0.33626549529583377  1.0000
  C   C28       1.0  0.4417534961639403  0.0009776235873459977  0.8362663035476103  1.0000
  C   C29       1.0  0.0905558289542938  0.0187098694535024  0.6870387532319528  1.0000
  C   C30       1.0  0.40944937284271526  0.0187086341267175  0.18703898397424723  1.0000
  C   C31       1.0  0.9094428721438846  0.9812910794828015  0.31296038467002774  1.0000
  C   C32       1.0  0.590553578254706  0.9812914376049806  0.8129606266770824  1.0000
  C   C33       1.0  0.16605267911264576  0.9224888863838245  0.6060893502649308  1.0000
  C   C34       1.0  0.33394996103780267  0.922487272974486  0.10609039079652398  1.0000
  C   C35       1.0  0.83394389699248  0.07751295447137349  0.39390692020017337  1.0000
  C   C36       1.0  0.6660529900613736  0.07751366616628991  0.893910343563377  1.0000
  C   C37       1.0  0.026840554198635395  0.699771075470764  0.6999981701646122  1.0000
  C   C38       1.0  0.47315877616676255  0.6997701501645397  0.19999918938047065  1.0000
  C   C39       1.0  0.9731613344006718  0.3002290060643418  0.29999984402854823  1.0000
  C   C40       1.0  0.5268399249182495  0.30022989213856743  0.8000052106459137  1.0000
  C   C41       1.0  0.9040829616876634  0.7636032781160936  0.7570665717242167  1.0000
  C   C42       1.0  0.5959181868081272  0.7636031050799945  0.2570686251411801  1.0000
  C   C43       1.0  0.09592211441453459  0.2363968034268922  0.24293144246870932  1.0000
  C   C44       1.0  0.4040794517773492  0.2363969421235056  0.7429349766561658  1.0000
  C   C45       1.0  0.9512550890301411  0.8651238896451545  0.8507534540501142  1.0000
  C   C46       1.0  0.548746603575715  0.8651234834434051  0.35075551468997906  1.0000
  C   C47       1.0  0.04874998707666119  0.1348770691129317  0.1492440873931287  1.0000
  C   C48       1.0  0.45125209750897005  0.1348756963536459  0.6492469633987099  1.0000
  C   C49       1.0  0.10337612779220957  0.8643994231912376  0.8516384704379406  1.0000
  C   C50       1.0  0.3966262109223706  0.8643989918970265  0.3516398268520506  1.0000
  C   C51       1.0  0.8966278858164854  0.13560154537025682  0.14835747454714726  1.0000
  C   C52       1.0  0.6033756776683815  0.13560106021999022  0.648362976715845  1.0000
  C   C53       1.0  0.1502948325409434  0.7621132906223594  0.7579282800628493  1.0000
  C   C54       1.0  0.34970483055478496  0.762113494816255  0.2579307673698709  1.0000
  C   C55       1.0  0.8497059935492857  0.23788417887686114  0.24206795946292917  1.0000
  C   C56       1.0  0.6502938705334033  0.23788741979894468  0.7420739581359612  1.0000
  I   I1        1.0  0.9022552783934472  0.6722193381989784  0.03284184703441892  1.0000
  I   I2        1.0  0.5977437475502894  0.6722206090701733  0.532841615191046  1.0000
  I   I3        1.0  0.09774767270112508  0.3277807237266899  0.9671593600751509  1.0000
  I   I4        1.0  0.40225495354963664  0.3277812072752084  0.46715864641950594  1.0000
  N   N1        1.0  0.05758213415930409  0.5753891340550864  0.25957317871085916  1.0000
  N   N2        1.0  0.44241804106103894  0.5753859730104978  0.7595754051100556  1.0000
  N   N3        1.0  0.9424144419320012  0.4246100751547957  0.7404245100032655  1.0000
  N   N4        1.0  0.5575827850298507  0.4246132215008415  0.24042467829111305  1.0000
  N   N5        1.0  0.2612102220780272  0.5690080538117357  0.37002750668656864  1.0000
  N   N6        1.0  0.23878844709184216  0.5690073902080215  0.8700286714955967  1.0000
  N   N7        1.0  0.7387895415334994  0.4309955218694982  0.6299710111954299  1.0000
  N   N8        1.0  0.7612123790036518  0.43099268151842557  0.12997093915588925  1.0000
