data_image0
_chemical_formula_structural       Ba4H16C20N8O20
_chemical_formula_sum              "Ba4 H16 C20 N8 O20"
_cell_length_a       7.216506625713241
_cell_length_b       10.17395706294733
_cell_length_c       10.54828067200094
_cell_angle_alpha    89.99995219556078
_cell_angle_beta     90.00000444294909
_cell_angle_gamma    101.7213446715255

_space_group_name_H-M_alt    "P 1"
_space_group_IT_number       1

loop_
  _space_group_symop_operation_xyz
  'x, y, z'

loop_
  _atom_site_type_symbol
  _atom_site_label
  _atom_site_symmetry_multiplicity
  _atom_site_fract_x
  _atom_site_fract_y
  _atom_site_fract_z
  _atom_site_occupancy
  Ba  Ba1       1.0  0.16573601663910864  0.26151218446077  0.1466835211389395  1.0000
  Ba  Ba2       1.0  0.33426374898520816  0.7384866251495482  0.6466833034393318  1.0000
  Ba  Ba3       1.0  0.8342635251647722  0.7384877762887998  0.8533169950589324  1.0000
  Ba  Ba4       1.0  0.665735792818751  0.2615133356004407  0.3533162647367405  1.0000
  H   H1        1.0  0.7032334023930885  0.9508177815495741  0.42321174036659676  1.0000
  H   H2        1.0  0.7967683954454828  0.04918227227449991  0.9232120735351614  1.0000
  H   H3        1.0  0.296767526270294  0.04918218324576169  0.5767887758313179  1.0000
  H   H4        1.0  0.20323281513636013  0.9508186963475966  0.0767874946405627  1.0000
  H   H5        1.0  0.14324599200150356  0.36629947372554744  0.4373422212411313  1.0000
  H   H6        1.0  0.3567523370877055  0.6336990726388692  0.9373420891599693  1.0000
  H   H7        1.0  0.8567532678840737  0.6336994831981003  0.5626573469353318  1.0000
  H   H8        1.0  0.6432469227978787  0.3662998842847784  0.0626574790164938  1.0000
  H   H9        1.0  0.5587995674343701  0.6631181920379134  0.1250115947328325  1.0000
  H   H10       1.0  0.941199507649678  0.33688211962002873  0.6250117065525629  1.0000
  H   H11       1.0  0.44119886942837633  0.33688276849222387  0.8749889214645991  1.0000
  H   H12       1.0  0.05880142101378999  0.6631178451757266  0.374987861623552  1.0000
  H   H13       1.0  0.07045299634550872  0.21131959031635014  0.46683144705023955  1.0000
  H   H14       1.0  0.42954422276267223  0.7886799295311491  0.9668311953976029  1.0000
  H   H15       1.0  0.9295434898210573  0.7886793585157577  0.5331681211261312  1.0000
  H   H16       1.0  0.5704550371229117  0.21131902739249847  0.0331683727788601  1.0000
  C   C1        1.0  0.7512947148914008  0.9578006006981707  0.15145844693131494  1.0000
  C   C2        1.0  0.7487060244507261  0.04220069524816951  0.6514568864629168  1.0000
  C   C3        1.0  0.2487034400528856  0.0421993560051988  0.848543017288307  1.0000
  C   C4        1.0  0.2512951861311238  0.9578002733739268  0.3485426817128072  1.0000
  C   C5        1.0  0.576587029436631  0.7149130081575592  0.21507459329011167  1.0000
  C   C6        1.0  0.9234136990329137  0.2850882310571806  0.715074745505845  1.0000
  C   C7        1.0  0.42341140742603756  0.2850879523721516  0.7849268709291123  1.0000
  C   C8        1.0  0.07658751154893655  0.7149127375649158  0.2849248226698791  1.0000
  C   C9        1.0  0.5134985888772761  0.6624904620990932  0.3341726945709951  1.0000
  C   C10       1.0  0.9865018373191959  0.33750966708146984  0.8341728089017407  1.0000
  C   C11       1.0  0.48649984798547047  0.337510498431044  0.6658278216264364  1.0000
  C   C12       1.0  0.013499091344272171  0.6624902977142854  0.16582675927437412  1.0000
  C   C13       1.0  0.664992707112546  0.8477820569041371  0.2385286021618711  1.0000
  C   C14       1.0  0.8350077354302385  0.1522181575691164  0.7385279071379642  1.0000
  C   C15       1.0  0.3350068346912565  0.1522179038450062  0.7614728620578005  1.0000
  C   C16       1.0  0.16499319323322942  0.8477818072266388  0.2614716610381507  1.0000
  C   C17       1.0  0.3991690473133858  0.5281716477348866  0.3661523639659947  1.0000
  C   C18       1.0  0.1008301396977913  0.47182997359332984  0.8661523448001845  1.0000
  C   C19       1.0  0.6008296714677428  0.4718303166215919  0.633848152231046  1.0000
  C   C20       1.0  0.8991710708840515  0.5281709950287663  0.1338472233755397  1.0000
  N   N1        1.0  0.6544214099498192  0.8660890819039866  0.3663238287674488  1.0000
  N   N2        1.0  0.8455790107518696  0.13391101860558052  0.8663231491437314  1.0000
  N   N3        1.0  0.34557813185397634  0.1339108788451497  0.6336776354522157  1.0000
  N   N4        1.0  0.15442053105208944  0.8660889421444082  0.13367641903234073  1.0000
  N   N5        1.0  0.561460459854473  0.7563399901607397  0.42534012264563603  1.0000
  N   N6        1.0  0.9385399507609334  0.24366005772003518  0.9253393611036883  1.0000
  N   N7        1.0  0.4385379770081953  0.24366097036897116  0.574661341573588  1.0000
  N   N8        1.0  0.061460695984152464  0.7563389032493858  0.0746602070728244  1.0000
  O   O1        1.0  0.4172105078520332  0.43155880506948546  0.2931480888093034  1.0000
  O   O2        1.0  0.08278730477649536  0.5684428773154339  0.7931489389052189  1.0000
  O   O3        1.0  0.5827895977886826  0.5684431633331785  0.7068514793659801  1.0000
  O   O4        1.0  0.9172136238869726  0.4315570874803214  0.2068506292709031  1.0000
  O   O5        1.0  0.2889002277488687  0.5177165784163478  0.46173666219563364  1.0000
  O   O6        1.0  0.21110115280863084  0.48228295811214394  0.9617356939542816  1.0000
  O   O7        1.0  0.7111004189961393  0.48228238255264694  0.5382638540026718  1.0000
  O   O8        1.0  0.7888997758548372  0.5177170066836111  0.0382638742218333  1.0000
  O   O9        1.0  0.8232821555768054  0.0716550126194591  0.19983351326440163  1.0000
  O   O10       1.0  0.6767185754976668  0.9283462401874518  0.6998321846427089  1.0000
  O   O11       1.0  0.17671738622706823  0.9283449481301036  0.8001670029334705  1.0000
  O   O12       1.0  0.3232826350842614  0.071654728435071  0.3001664355112155  1.0000
  O   O13       1.0  0.051140357585495615  0.2826580987090921  0.40999087487836766  1.0000
  O   O14       1.0  0.4488582580966353  0.7173414758727433  0.9099906817805063  1.0000
  O   O15       1.0  0.9488589023000883  0.7173408582145555  0.5900086932980955  1.0000
  O   O16       1.0  0.5511410017889418  0.2826574810509044  0.0900088863959567  1.0000
  O   O17       1.0  0.7446373569816347  0.9297191886644428  0.0332562562416285  1.0000
  O   O18       1.0  0.7553661762810862  0.07028222078236009  0.5332546736729995  1.0000
  O   O19       1.0  0.2553635716817552  0.0702807761308932  0.9667442599562862  1.0000
  O   O20       1.0  0.24463670307872587  0.929719755712263  0.46674394648057677  1.0000
