data_image0
_chemical_formula_structural       H16Pb2C28N8O8
_chemical_formula_sum              "H16 Pb2 C28 N8 O8"
_cell_length_a       4.54764015191356
_cell_length_b       7.984511117302142
_cell_length_c       19.525872129602426
_cell_angle_alpha    84.04776149836934
_cell_angle_beta     83.29282233439224
_cell_angle_gamma    73.51163253636008

_space_group_name_H-M_alt    "P 1"
_space_group_IT_number       1

loop_
  _space_group_symop_operation_xyz
  'x, y, z'

loop_
  _atom_site_type_symbol
  _atom_site_label
  _atom_site_symmetry_multiplicity
  _atom_site_fract_x
  _atom_site_fract_y
  _atom_site_fract_z
  _atom_site_occupancy
  H   H1        1.0  0.3176185183786941  0.4528471926946977  0.4019759938885344  1.0000
  H   H2        1.0  0.1738606899211703  0.0473098269385304  0.09751799254107853  1.0000
  H   H3        1.0  0.6823807164260244  0.5471536558823968  0.5980246678427366  1.0000
  H   H4        1.0  0.8261418506799455  0.952689717815211  0.9024822550451717  1.0000
  H   H5        1.0  0.13192963352150133  0.35855366267356453  0.2677382403091002  1.0000
  H   H6        1.0  0.7574503999990014  0.1423573604242421  0.23215041373640596  1.0000
  H   H7        1.0  0.8680701192909266  0.6414471917594113  0.7322619093190923  1.0000
  H   H8        1.0  0.24255134026649475  0.8576395414608268  0.767851954303211  1.0000
  H   H9        1.0  0.5820468317778237  0.6871749390684768  0.48148041929751884  1.0000
  H   H10       1.0  0.7505064176903314  0.8127688892380293  0.01838821811524848  1.0000
  H   H11       1.0  0.4179571070768733  0.3128272310296296  0.5185193060820908  1.0000
  H   H12       1.0  0.2495010626405543  0.18722934587982107  0.9816121893665583  1.0000
  H   H13       1.0  0.16657332005241426  0.06704342772729888  0.3597391567645403  1.0000
  H   H14       1.0  0.5902522513548333  0.43469244573840626  0.14059441989586224  1.0000
  H   H15       1.0  0.8334332508214214  0.932960040468295  0.6402616806756997  1.0000
  H   H16       1.0  0.40975383072247945  0.5653031640350858  0.8594065097925851  1.0000
  Pb  Pb1       1.0  0.42323446537543674  0.750615461689847  0.24994401422411272  1.0000
  Pb  Pb2       1.0  0.5767416540147322  0.24938410006812003  0.7500538918652566  1.0000
  C   C1        1.0  0.5443160268306715  0.3900378375025468  0.37809243583116375  1.0000
  C   C2        1.0  0.3131986466578453  0.11027013198108188  0.12158961656618324  1.0000
  C   C3        1.0  0.4556836081418608  0.6099643325088876  0.6219071656734203  1.0000
  C   C4        1.0  0.6868083535949905  0.889726805082624  0.8784097407925062  1.0000
  C   C5        1.0  0.8257435130467953  0.84975600561075  0.3728331078498501  1.0000
  C   C6        1.0  0.04805141841372775  0.6507501473241888  0.12711827050152644  1.0000
  C   C7        1.0  0.17425842963636734  0.15024355666730566  0.6271655414896671  1.0000
  C   C8        1.0  0.9519343867367877  0.34925069513698037  0.8728825317077452  1.0000
  C   C9        1.0  0.6649183436069563  0.9300845076996537  0.438743980182686  1.0000
  C   C10       1.0  0.03303214145308442  0.5702092631240985  0.06127926389709872  1.0000
  C   C11       1.0  0.3350872671107581  0.0699163643876517  0.5612547570113122  1.0000
  C   C12       1.0  0.9669713173235548  0.42979160891986357  0.9387194113593866  1.0000
  C   C13       1.0  0.9669988828689923  0.3347475988239239  0.3095787601491723  1.0000
  C   C14       1.0  0.6109811573416052  0.16604170454385067  0.19023991599907222  1.0000
  C   C15       1.0  0.03300075210353237  0.6652545711875106  0.6904208413554117  1.0000
  C   C16       1.0  0.38901831314291235  0.8339565128763338  0.809761841979416  1.0000
  C   C17       1.0  0.6116337148061108  0.10827813405958857  0.449041516340138  1.0000
  C   C18       1.0  0.16828980901440352  0.39210325695552234  0.05097402702673292  1.0000
  C   C19       1.0  0.3883698618104249  0.891721422405922  0.5509577070399629  1.0000
  C   C20       1.0  0.8317170354688769  0.6078962878849054  0.9490263444345431  1.0000
  C   C21       1.0  0.5514096662630478  0.8239379887339381  0.4902196729788459  1.0000
  C   C22       1.0  0.865665375907085  0.6760612046726704  0.009722931349948394  1.0000
  C   C23       1.0  0.4485960622945698  0.17606156777491574  0.5097796123387681  1.0000
  C   C24       1.0  0.13434425636489067  0.32393703048852257  0.9902775380693782  1.0000
  C   C25       1.0  0.9847961190465497  0.18795837973606663  0.3539607519018021  1.0000
  C   C26       1.0  0.5252341462941673  0.3131701632039209  0.14613388007988706  1.0000
  C   C27       1.0  0.015206665952831579  0.812045094228729  0.6460394495603411  1.0000
  C   C28       1.0  0.47476962807251505  0.6868280543029428  0.853868001773634  1.0000
  N   N1        1.0  0.6917920571208853  0.4593225466989991  0.3250226704608182  1.0000
  N   N2        1.0  0.4772343430043407  0.04090372415662809  0.17455539448651083  1.0000
  N   N3        1.0  0.30820075979023887  0.5406770095498102  0.6749762432317183  1.0000
  N   N4        1.0  0.5227722191510364  0.9590931836710083  0.8254465853250539  1.0000
  N   N5        1.0  0.7133920369886015  0.22385821338593806  0.39747464229156293  1.0000
  N   N6        1.0  0.33409011311953657  0.2768723251883855  0.10250810684159724  1.0000
  N   N7        1.0  0.2866141716470736  0.7761426411770528  0.6025256931491683  1.0000
  N   N8        1.0  0.6659174850512596  0.7231245943510132  0.8974928487638182  1.0000
  O   O1        1.0  0.6839117483470931  0.9013811543762527  0.31826984856802926  1.0000
  O   O2        1.0  0.9026695968202887  0.5999222923598138  0.18178677143205862  1.0000
  O   O3        1.0  0.3160904679455213  0.09861448454662987  0.6817283347925169  1.0000
  O   O4        1.0  0.0972944619580643  0.4000877411928201  0.8182111727835348  1.0000
  O   O5        1.0  0.08594596371759172  0.7410001861740623  0.3764008158571316  1.0000
  O   O6        1.0  0.20472330266833447  0.7589158372078301  0.12337528024399805  1.0000
  O   O7        1.0  0.9140572214495959  0.2590046092250731  0.6235983253783247  1.0000
  O   O8        1.0  0.795279347054226  0.2410758315994954  0.8766266578371786  1.0000
