data_image0
_chemical_formula_structural       Cu12H36C60N64
_chemical_formula_sum              "Cu12 H36 C60 N64"
_cell_length_a       24.24905124307442
_cell_length_b       26.8796900904093
_cell_length_c       26.86915424754805
_cell_angle_alpha    92.64840750969873
_cell_angle_beta     102.1955608330129
_cell_angle_gamma    90.68659608135219

_space_group_name_H-M_alt    "P 1"
_space_group_IT_number       1

loop_
  _space_group_symop_operation_xyz
  'x, y, z'

loop_
  _atom_site_type_symbol
  _atom_site_label
  _atom_site_symmetry_multiplicity
  _atom_site_fract_x
  _atom_site_fract_y
  _atom_site_fract_z
  _atom_site_occupancy
  Cu  Cu1       1.0  0.575876644296514  0.4157343702865859  0.6540493662443508  1.0000
  Cu  Cu2       1.0  0.5921160605384087  0.37107118224236046  0.548901714294139  1.0000
  Cu  Cu3       1.0  0.5544918191469534  0.29943244030315  0.6251765748550467  1.0000
  Cu  Cu4       1.0  0.40243183589423376  0.08385106601097192  0.15339421272503978  1.0000
  Cu  Cu5       1.0  0.31828717496583886  0.1258164614992552  0.059731475366447684  1.0000
  Cu  Cu6       1.0  0.4385865397480585  0.18178897494880183  0.10950067858594535  1.0000
  Cu  Cu7       1.0  0.07686830463738659  0.5878913222995408  0.8076019080204159  1.0000
  Cu  Cu8       1.0  0.1484248293526562  0.6173507154217507  0.9199433101941847  1.0000
  Cu  Cu9       1.0  0.023993293397019493  0.6558937936853013  0.8835370319510004  1.0000
  Cu  Cu10      1.0  0.9917839999443386  0.9405018488175474  0.39530994124791613  1.0000
  Cu  Cu11      1.0  0.914923052826715  0.8915496697465812  0.45475407499797155  1.0000
  Cu  Cu12      1.0  0.9851108891923559  0.8171039398761197  0.3996394556979722  1.0000
  H   H1        1.0  0.6465887308470215  0.518982459750788  0.6578463786923477  1.0000
  H   H2        1.0  0.632420337489215  0.4668369385221284  0.5005032642611694  1.0000
  H   H3        1.0  0.47442818064219233  0.27262840725223475  0.7003510413541318  1.0000
  H   H4        1.0  0.510445276830545  0.4288629798865103  0.74359987572155  1.0000
  H   H5        1.0  0.6266311659839516  0.29461120284687337  0.46965671294331907  1.0000
  H   H6        1.0  0.5919203390989337  0.19374390417190315  0.5811333770552024  1.0000
  H   H7        1.0  0.3374734675097528  0.9867089994782321  0.17099899218918319  1.0000
  H   H8        1.0  0.2173855570743157  0.04260732692198132  0.04386077244786429  1.0000
  H   H9        1.0  0.5561109260392172  0.20880816117521314  0.18985709382369714  1.0000
  H   H10       1.0  0.5027260522581614  0.07237999939312093  0.2476378336439921  1.0000
  H   H11       1.0  0.27287771610382794  0.19786081690714508  0.970538501284693  1.0000
  H   H12       1.0  0.43590101120122426  0.2678830743383643  0.03440580132900099  1.0000
  H   H13       1.0  0.15600560678753791  0.5074742186785104  0.7712754532793082  1.0000
  H   H14       1.0  0.2505476583619881  0.5439627956686978  0.9246056604905489  1.0000
  H   H15       1.0  0.9043549871073819  0.6775137792561737  0.8135513760098687  1.0000
  H   H16       1.0  0.9800670882023185  0.5904867316545578  0.706674103739516  1.0000
  H   H17       1.0  0.1871833034544395  0.6820738904830251  0.024478142569300605  1.0000
  H   H18       1.0  0.0137321401139161  0.727531219922014  0.9781691798129513  1.0000
  H   H19       1.0  0.9404410148053586  0.05247665698420432  0.38491012645631867  1.0000
  H   H20       1.0  0.829797616581267  0.9767336616133097  0.46563910281005133  1.0000
  H   H21       1.0  0.05480624729413821  0.7898967913131472  0.31455743718987605  1.0000
  H   H22       1.0  0.07865987618568941  0.9502592408605186  0.32763671228928354  1.0000
  H   H23       1.0  0.8558577945585667  0.8198120586589116  0.5142897195142879  1.0000
  H   H24       1.0  0.9443860865359708  0.7110571555371694  0.43821916692624524  1.0000
  H   H25       1.0  0.27127071877944076  0.8988943977578929  0.1640488541485325  1.0000
  H   H26       1.0  0.7399675218592208  0.5838452832257348  0.6409435809718714  1.0000
  H   H27       1.0  0.7421547409316813  0.028910360555705904  0.40480681786614514  1.0000
  H   H28       1.0  0.3248529676241034  0.46172221892309323  0.9110323445949644  1.0000
  H   H29       1.0  0.09505964044644341  0.8025832779320157  0.20980530638064465  1.0000
  H   H30       1.0  0.4470650908808054  0.41652596101575784  0.8245865141993461  1.0000
  H   H31       1.0  0.8760382353002286  0.6071732561828898  0.6282997103888448  1.0000
  H   H32       1.0  0.6049174133324796  0.07329776856447981  0.32046983106059906  1.0000
  H   H33       1.0  0.20216930028834676  0.7679619562085735  0.1010715974738474  1.0000
  H   H34       1.0  0.6885556885673408  0.2154364095639352  0.4308475283101813  1.0000
  H   H35       1.0  0.4184580092384564  0.33178137555339765  0.9495541177225488  1.0000
  H   H36       1.0  0.7912047835826782  0.7458072964774943  0.5413150577844092  1.0000
  C   C1        1.0  0.6385657695280216  0.4987941407736829  0.62101591602962  1.0000
  C   C2        1.0  0.6529285781981714  0.5114923656306942  0.5752093994486172  1.0000
  C   C3        1.0  0.6306305234059764  0.4721944133176025  0.5403801376358217  1.0000
  C   C4        1.0  0.4896036554016661  0.31103761991638385  0.7050248598218756  1.0000
  C   C5        1.0  0.4771523408146122  0.3494999755418249  0.73777499721389  1.0000
  C   C6        1.0  0.5080321508109691  0.3908727718795717  0.7275975236736156  1.0000
  C   C7        1.0  0.6152733241846918  0.27670850282996184  0.5015864194065571  1.0000
  C   C8        1.0  0.6186211863163962  0.2266077075891815  0.5141028042601619  1.0000
  C   C9        1.0  0.5971531115048023  0.22524939639390607  0.5586320686857462  1.0000
  C   C10       1.0  0.3145587465044812  0.006842447023210202  0.13926722295227728  1.0000
  C   C11       1.0  0.26157946526340936  0.9962437862848218  0.10748620527625259  1.0000
  C   C12       1.0  0.25307556948101956  0.035770104220432614  0.07447392896055048  1.0000
  C   C13       1.0  0.5349795985027299  0.1748930247184219  0.19696398260139597  1.0000
  C   C14       1.0  0.5509242116995807  0.14183313557779093  0.23614850538324814  1.0000
  C   C15       1.0  0.508081270736696  0.10493881335881383  0.2265411177203234  1.0000
  C   C16       1.0  0.3143692638491443  0.20886293458345054  0.9926281835138295  1.0000
  C   C17       1.0  0.3497721785612882  0.24854905523318394  0.985807977115634  1.0000
  C   C18       1.0  0.3977324944888849  0.24479672871934358  0.024973664696616986  1.0000
  C   C19       1.0  0.1724291244808214  0.5229305127480759  0.8096259337090712  1.0000
  C   C20       1.0  0.22041897689759077  0.509358598720141  0.8450951830886522  1.0000
  C   C21       1.0  0.22104764698882923  0.5412898091982543  0.8880197454302206  1.0000
  C   C22       1.0  0.9309661485298193  0.6548784790958709  0.7942927446678638  1.0000
  C   C23       1.0  0.9206965500734581  0.6367484829805365  0.7432570471472386  1.0000
  C   C24       1.0  0.969345961073955  0.6103877035176882  0.7392990351293918  1.0000
  C   C25       1.0  0.1435741638576715  0.6878079119275926  0.005970409512777097  1.0000
  C   C26       1.0  0.1033692335826615  0.7193003124903682  0.02052612234663089  1.0000
  C   C27       1.0  0.0546799389808328  0.7105659636201976  0.9820973757511098  1.0000
  C   C28       1.0  0.9196801414688238  0.02713588073974191  0.40574025282607806  1.0000
  C   C29       1.0  0.8688257496561749  0.0323926464382254  0.422357616470137  1.0000
  C   C30       1.0  0.8627731734612993  0.988114737568168  0.4465368475804681  1.0000
  C   C31       1.0  0.0549268759486807  0.8296617978948577  0.32375316977633156  1.0000
  C   C32       1.0  0.08089893136772017  0.8691255911074691  0.30435227123683006  1.0000
  C   C33       1.0  0.0672315714847045  0.911635741533523  0.33113415502234733  1.0000
  C   C34       1.0  0.8812126349840809  0.7996365251665909  0.49164414250156335  1.0000
  C   C35       1.0  0.8884299187592004  0.7482338548419564  0.48526535435821216  1.0000
  C   C36       1.0  0.9268393081366214  0.744199928306742  0.4528537868767372  1.0000
  C   C37       1.0  0.2241543909405053  0.9546946040604002  0.1105265515475722  1.0000
  C   C38       1.0  0.23468902184942664  0.9127004715104905  0.13848696295274718  1.0000
  C   C39       1.0  0.6854902816182431  0.5541145547161009  0.5656810980528488  1.0000
  C   C40       1.0  0.7245523571929411  0.5837415751993265  0.6001120371801746  1.0000
  C   C41       1.0  0.8261095064417391  0.0701591727868447  0.4132287552689532  1.0000
  C   C42       1.0  0.7686905663828583  0.0617889812936028  0.4060606886636576  1.0000
  C   C43       1.0  0.25759929625774447  0.468998862899305  0.838723992396396  1.0000
  C   C44       1.0  0.30330606486757006  0.45094015685449323  0.8724527946175797  1.0000
  C   C45       1.0  0.11328594748488999  0.8706159520663805  0.2648747361478527  1.0000
  C   C46       1.0  0.11578664306873779  0.8378648418083189  0.22378452710796634  1.0000
  C   C47       1.0  0.4389894672672696  0.34658126942566275  0.7722662616048337  1.0000
  C   C48       1.0  0.42927779811142136  0.38035814160696196  0.8097671511039051  1.0000
  C   C49       1.0  0.8717953920158339  0.6468184661303483  0.7041593206285199  1.0000
  C   C50       1.0  0.8572999536862085  0.6313367870372631  0.653245070125706  1.0000
  C   C51       1.0  0.5990555406324987  0.14517698248061353  0.27839882249633513  1.0000
  C   C52       1.0  0.6181630005779296  0.11064713609214749  0.31415575610608204  1.0000
  C   C53       1.0  0.10981312017283067  0.7561136970010838  0.062478388678926  1.0000
  C   C54       1.0  0.1575721441957896  0.7753386598704922  0.09560167744633219  1.0000
  C   C55       1.0  0.6379878772231037  0.18564752256755682  0.48598989134897147  1.0000
  C   C56       1.0  0.6689295838494046  0.18647075420140172  0.44832251595823885  1.0000
  C   C57       1.0  0.3393613466371832  0.2842736188284292  0.9464694033066365  1.0000
  C   C58       1.0  0.37501654338903734  0.32022865175548526  0.9343873529889205  1.0000
  C   C59       1.0  0.8619283185248534  0.7101984945389647  0.509225857082363  1.0000
  C   C60       1.0  0.8179910188143322  0.7154698714555608  0.5344273574330102  1.0000
  N   N1        1.0  0.6051762846066069  0.43831976543263107  0.5639455872551905  1.0000
  N   N2        1.0  0.6099368425077287  0.45483726827438903  0.6139413814998917  1.0000
  N   N3        1.0  0.5368085968787497  0.37795010764856585  0.6913321770304462  1.0000
  N   N4        1.0  0.525378889723946  0.32840082835323875  0.6774182889331398  1.0000
  N   N5        1.0  0.5823550619181646  0.2714504688847938  0.5716960777946765  1.0000
  N   N6        1.0  0.5934349243141455  0.30327383248131673  0.5362366256824558  1.0000
  N   N7        1.0  0.29806030420829893  0.0674688237672001  0.08590763305382147  1.0000
  N   N8        1.0  0.3360923047011184  0.04947209235754001  0.1260699925003053  1.0000
  N   N9        1.0  0.4694729653253376  0.11528599752590202  0.184637413170698  1.0000
  N   N10       1.0  0.48607710871332427  0.15857720494067004  0.16627281059479054  1.0000
  N   N11       1.0  0.39137954221104115  0.20567210780716752  0.0530631545411495  1.0000
  N   N12       1.0  0.33967578131643716  0.1833305005245975  0.032937688001617  1.0000
  N   N13       1.0  0.17640364361886182  0.5715450284953932  0.8788211392001981  1.0000
  N   N14       1.0  0.1462916848236446  0.5600658135419395  0.8301852319696789  1.0000
  N   N15       1.0  0.005912414687699703  0.6128206376630915  0.78478676926737  1.0000
  N   N16       1.0  0.9820492049777058  0.6403458416654074  0.8188248530263705  1.0000
  N   N17       1.0  0.06536682644042459  0.6765735543116024  0.9471327410409597  1.0000
  N   N18       1.0  0.120453041337143  0.6623541303927285  0.9619003558708812  1.0000
  N   N19       1.0  0.9065427068310257  0.9584656325771024  0.44416462138979534  1.0000
  N   N20       1.0  0.9418232021593055  0.9824732501187158  0.4187713709920047  1.0000
  N   N21       1.0  0.0351293921745963  0.8985450842728968  0.36380350533566735  1.0000
  N   N22       1.0  0.0274901819684317  0.8475785091440288  0.35945807993810763  1.0000
  N   N23       1.0  0.9410635844469509  0.7901640981966622  0.4407144534806589  1.0000
  N   N24       1.0  0.9127879191520877  0.8243843127062649  0.4649393821621003  1.0000
  N   N25       1.0  0.1728830337115923  0.8466057804304868  0.15563241265359548  1.0000
  N   N26       1.0  0.7776599520660098  0.6598530274817166  0.5860214261065336  1.0000
  N   N27       1.0  0.6894048824055475  0.11605977414235723  0.392207739888569  1.0000
  N   N28       1.0  0.36234854562510316  0.3788083585815728  0.8663101858553046  1.0000
  N   N29       1.0  0.14296027717018941  0.9130946337213505  0.09750654032566791  1.0000
  N   N30       1.0  0.16794407030348418  0.9526111589327617  0.0856453184799904  1.0000
  N   N31       1.0  0.18385042609924798  0.8880316051077558  0.12905552324281186  1.0000
  N   N32       1.0  0.7179803366972948  0.6090043230434788  0.5202475313663725  1.0000
  N   N33       1.0  0.6831883523197533  0.5705849571938588  0.5176662853680226  1.0000
  N   N34       1.0  0.7435123482959439  0.6159282253431116  0.5696989648824625  1.0000
  N   N35       1.0  0.787643010533543  0.14389931020834013  0.401698569657178  1.0000
  N   N36       1.0  0.8354676427148533  0.1207046893483792  0.409882581828846  1.0000
  N   N37       1.0  0.7465547858831771  0.10786678085491991  0.39903017573287514  1.0000
  N   N38       1.0  0.28599141485393886  0.4039723945008403  0.7985296208413144  1.0000
  N   N39       1.0  0.2495318298643951  0.4396220723726358  0.7940385563179502  1.0000
  N   N40       1.0  0.31901211981072924  0.4109843219552829  0.8459873401252266  1.0000
  N   N41       1.0  0.1677671346620784  0.9074443027254946  0.2213414974774892  1.0000
  N   N42       1.0  0.14560081997329627  0.9122455386395675  0.2616994197430387  1.0000
  N   N43       1.0  0.14889517896524043  0.8632064234184899  0.19806272170569628  1.0000
  N   N44       1.0  0.37185270444977897  0.31248019015259143  0.8042747629882426  1.0000
  N   N45       1.0  0.4036645847966439  0.30560770409670124  0.7711273186044847  1.0000
  N   N46       1.0  0.38754982622747747  0.3577092777623038  0.8279831118708428  1.0000
  N   N47       1.0  0.7932113365009882  0.6855716332091291  0.6730809921510782  1.0000
  N   N48       1.0  0.8309124798947208  0.6791873888111725  0.7143140980639443  1.0000
  N   N49       1.0  0.8086122491678226  0.6563749425530719  0.6355346024769446  1.0000
  N   N50       1.0  0.6716022643606153  0.18145272854160052  0.3318162134735941  1.0000
  N   N51       1.0  0.6334076362854616  0.18746774402972488  0.29063933384330193  1.0000
  N   N52       1.0  0.6632195284264242  0.13415727417855552  0.34601906602360794  1.0000
  N   N53       1.0  0.08005761273004448  0.8155848718254364  0.10924768361942228  1.0000
  N   N54       1.0  0.0638015393370281  0.7812480859813749  0.073341423007129  1.0000
  N   N55       1.0  0.1374881461727711  0.8116058471959848  0.1240187431873849  1.0000
  N   N56       1.0  0.6434730549612694  0.10719947983037063  0.460350535323215  1.0000
  N   N57       1.0  0.6243565480199251  0.13646258868568145  0.49237026732014744  1.0000
  N   N58       1.0  0.6713189724561771  0.13729972078684946  0.43363495408145514  1.0000
  N   N59       1.0  0.28973653675363653  0.3209459774734072  0.8803438828753014  1.0000
  N   N60       1.0  0.28778524699366403  0.2868520053112179  0.9129476583444995  1.0000
  N   N61       1.0  0.3425494733328521  0.34167488375491234  0.8936217701515048  1.0000
  N   N62       1.0  0.8498365120163529  0.6367237239462895  0.5390408142348377  1.0000
  N   N63       1.0  0.8793084076449488  0.6613974768525067  0.5126490066893011  1.0000
  N   N64       1.0  0.8119506799107868  0.6695248882242738  0.5519988850551911  1.0000
