data_image0
_chemical_formula_structural       Zr6H12C52S10N2Cl10O32
_chemical_formula_sum              "Zr6 H12 C52 S10 N2 Cl10 O32"
_cell_length_a       16.466631535479817
_cell_length_b       16.46000743778319
_cell_length_c       16.535826681666823
_cell_angle_alpha    61.59178331252414
_cell_angle_beta     59.8294930586535
_cell_angle_gamma    60.297110883551625

_space_group_name_H-M_alt    "P 1"
_space_group_IT_number       1

loop_
  _space_group_symop_operation_xyz
  'x, y, z'

loop_
  _atom_site_type_symbol
  _atom_site_label
  _atom_site_symmetry_multiplicity
  _atom_site_fract_x
  _atom_site_fract_y
  _atom_site_fract_z
  _atom_site_occupancy
  Zr  Zr1       1.0  0.8880190723133978  0.9025919858300568  0.5986207444310666  1.0000
  Zr  Zr2       1.0  0.11083715472585712  0.10359497010227156  0.3975422315866198  1.0000
  Zr  Zr3       1.0  0.10173674701179188  0.8945088979645275  0.607203897540039  1.0000
  Zr  Zr4       1.0  0.8965904748758576  0.11222934128643663  0.3894155191686367  1.0000
  Zr  Zr5       1.0  0.10809069001044945  0.8943928209862049  0.3893659524767088  1.0000
  Zr  Zr6       1.0  0.8904831713389  0.1120708160435201  0.6069410929248706  1.0000
  H   H1        1.0  0.0771456613956616  0.7530648549775875  0.5784242704247475  1.0000
  H   H2        1.0  0.09146772288409716  0.08329054628509877  0.24799341650166443  1.0000
  H   H3        1.0  0.08325737539241368  0.08277888733703519  0.5891145210179829  1.0000
  H   H4        1.0  0.7448516799235065  0.09415694478015267  0.5777580342138648  1.0000
  H   H5        1.0  0.09755285421658769  0.6418484483859215  0.871736660208235  1.0000
  H   H6        1.0  0.8443029862597127  0.654222873586825  0.8484220702213108  1.0000
  H   H7        1.0  0.889054450314795  0.37687184353862335  0.13690250249918273  1.0000
  H   H8        1.0  0.15363451473545814  0.3531158734163283  0.1489005759073692  1.0000
  H   H9        1.0  0.2081078053793277  0.546061061564984  0.9220525372573649  1.0000
  H   H10       1.0  0.24352271008179843  0.46084345504849  0.019191555700615495  1.0000
  H   H11       1.0  0.8234759087615375  0.4275526247559895  0.04157168663863345  1.0000
  H   H12       1.0  0.7762278152120033  0.5246651341710801  0.956302293494737  1.0000
  C   C1        1.0  0.9957171397216271  0.739610241873734  0.4836624369553778  1.0000
  C   C2        1.0  0.28124821563172747  0.9883276478279438  0.23480024223639626  1.0000
  C   C3        1.0  0.9962710079914884  0.2736396265735407  0.5052440228664423  1.0000
  C   C4        1.0  0.725061532450823  0.010094530981689363  0.7687754295520719  1.0000
  C   C5        1.0  0.979933027596914  0.7418003641795821  0.766524603423712  1.0000
  C   C6        1.0  0.7313362903898052  0.004023860773052954  0.4888730934389971  1.0000
  C   C7        1.0  0.012039954498206395  0.27144476203879  0.2366741572782445  1.0000
  C   C8        1.0  0.27579282894500784  0.993787663561143  0.4990830768142588  1.0000
  C   C9        1.0  0.2722957191175794  0.7314466959067756  0.4980029772022193  1.0000
  C   C10       1.0  0.9923295351911249  0.9970485830633109  0.7770660406182017  1.0000
  C   C11       1.0  0.7333343841274027  0.2819425149657561  0.49197865436227084  1.0000
  C   C12       1.0  0.9979039161239383  0.002816344781962392  0.22664797275881926  1.0000
  C   C13       1.0  0.9243070536185626  0.4248818257877645  0.5632503704268573  1.0000
  C   C14       1.0  0.0638198248316472  0.5917587839348072  0.42205202848558093  1.0000
  C   C15       1.0  0.9928202952355035  0.3657376232364624  0.5022596305881138  1.0000
  C   C16       1.0  0.9959576148468159  0.6504410378257075  0.4835601705556629  1.0000
  C   C17       1.0  0.037409017813239104  0.5096465794985789  0.450933188563397  1.0000
  C   C18       1.0  0.9499953451887323  0.5076223514224054  0.5337306768467446  1.0000
  C   C19       1.0  0.42318867009229416  0.9262079760833472  0.08738721665397259  1.0000
  C   C20       1.0  0.5882003911414201  0.06760523134722987  0.920428674596515  1.0000
  C   C21       1.0  0.37069621171554684  0.9878235969962929  0.1459935769704543  1.0000
  C   C22       1.0  0.6397372018946184  0.006749475220047339  0.8611627697898783  1.0000
  C   C23       1.0  0.5094580996868673  0.03789472928857411  0.0032760126263155893  1.0000
  C   C24       1.0  0.5028602234400806  0.9550788133937614  0.005303171691387913  1.0000
  C   C25       1.0  0.05905168953538021  0.9293898793723157  0.9175040357072322  1.0000
  C   C26       1.0  0.9261350875873476  0.06627437546387682  0.09086360674758967  1.0000
  C   C27       1.0  0.992726577649016  0.9946661063391671  0.8669792137411891  1.0000
  C   C28       1.0  0.9933362337049872  0.0017719372386009887  0.1405114054276241  1.0000
  C   C29       1.0  0.9498168925093041  0.03971270916613179  0.00974465939157925  1.0000
  C   C30       1.0  0.03444794159899805  0.9553519494977818  0.9993476921185761  1.0000
  C   C31       1.0  0.41585896064410843  0.5950594808306278  0.5619494421846198  1.0000
  C   C32       1.0  0.5932688838739041  0.4219236339379362  0.42482347576370233  1.0000
  C   C33       1.0  0.3636337552367905  0.6449117948055798  0.4973067653016657  1.0000
  C   C34       1.0  0.6449517374245775  0.3714232101706755  0.49000776869318946  1.0000
  C   C35       1.0  0.5099354520201017  0.5036072576779985  0.4509636923884772  1.0000
  C   C36       1.0  0.4997730811817221  0.513888169689153  0.5354061017515407  1.0000
  C   C37       1.0  0.041352078895698724  0.6090133189686353  0.9003684215120346  1.0000
  C   C38       1.0  0.8960685355498225  0.6172200694974064  0.8878433678741191  1.0000
  C   C39       1.0  0.887726863223534  0.5347547050064418  0.9689792533658803  1.0000
  C   C40       1.0  0.9571973449333983  0.4873023381769384  0.019627315401557238  1.0000
  C   C41       1.0  0.9495480389687572  0.4054125184975416  0.10400762229304664  1.0000
  C   C42       1.0  0.09938542302488436  0.39261166101786665  0.11197515359519636  1.0000
  C   C43       1.0  0.10909711060130443  0.4737161245647242  0.029495770214836677  1.0000
  C   C44       1.0  0.036227951827804195  0.5245978853336267  0.9822346507614274  1.0000
  C   C45       1.0  0.9720644846807645  0.654425675753771  0.8543669151387407  1.0000
  C   C46       1.0  0.019541274383932612  0.35924858009934707  0.149299151927373  1.0000
  C   C47       1.0  0.41929597775641986  0.059620008927311036  0.4272618206171971  1.0000
  C   C48       1.0  0.5939942921051297  0.9320704545209609  0.5544553415963096  1.0000
  C   C49       1.0  0.3673110918618716  0.994063757353601  0.49372045569543854  1.0000
  C   C50       1.0  0.644882656849042  0.9987163387231062  0.4891350788316659  1.0000
  C   C51       1.0  0.5120615743480599  0.9540391362419737  0.531412273557038  1.0000
  C   C52       1.0  0.5023714913804793  0.03656518740731945  0.44914155987529375  1.0000
  S   S1        1.0  0.08819170801869791  0.41120439924409874  0.408948545108295  1.0000
  S   S2        1.0  0.8998302960700216  0.6056396540208266  0.5762124867869645  1.0000
  S   S3        1.0  0.4190235850880271  0.08042466783388137  0.10124614175835236  1.0000
  S   S4        1.0  0.5924125304088861  0.9132677823145624  0.9067180829193833  1.0000
  S   S5        1.0  0.9001940406080634  0.08729340139800024  0.9200231267935522  1.0000
  S   S6        1.0  0.08481591460413536  0.9083111013518205  0.0883389297432728  1.0000
  S   S7        1.0  0.41768835779373603  0.5927265307386944  0.40388278685676243  1.0000
  S   S8        1.0  0.591697642820442  0.42428654268234567  0.5828102957864163  1.0000
  S   S9        1.0  0.4203886904250853  0.90424382043858  0.5821584009389228  1.0000
  S   S10       1.0  0.5929384219905173  0.08745919112655531  0.3995540740988589  1.0000
  N   N1        1.0  0.18614180194845886  0.507803297562944  0.9941765038566573  1.0000
  N   N2        1.0  0.8117098686948552  0.4996419521064653  0.003236507277286364  1.0000
  Cl  Cl1       1.0  0.8213698759679885  0.40466843620478715  0.6622864114956074  1.0000
  Cl  Cl2       1.0  0.16745558683945203  0.6111621036552959  0.3238169208739309  1.0000
  Cl  Cl3       1.0  0.39849959486958403  0.8279206975799976  0.10676217852199706  1.0000
  Cl  Cl4       1.0  0.6122452263230185  0.16666514387210907  0.9002579351919593  1.0000
  Cl  Cl5       1.0  0.1597037214978485  0.8297513725868058  0.8888766420004899  1.0000
  Cl  Cl6       1.0  0.825840050677968  0.16632456311171498  0.11948756804348201  1.0000
  Cl  Cl7       1.0  0.38754602483425066  0.6236369031675579  0.6620226437396824  1.0000
  Cl  Cl8       1.0  0.6209005297506919  0.3934510427781389  0.32507236584812216  1.0000
  Cl  Cl9       1.0  0.39162535272284066  0.15760027896762097  0.33056028636760715  1.0000
  Cl  Cl10      1.0  0.6206786023973264  0.8349874428255576  0.6521165124564237  1.0000
  O   O1        1.0  0.9242761266721685  0.7760030653685133  0.5522484686011708  1.0000
  O   O2        1.0  0.24755204770463723  0.057058786097357456  0.27105545152228677  1.0000
  O   O3        1.0  0.06956067699126575  0.23553497151836916  0.4385795948471626  1.0000
  O   O4        1.0  0.7564707948846202  0.9435195012691151  0.7305952795665364  1.0000
  O   O5        1.0  0.05108265159501694  0.7730310272767226  0.7350442345320404  1.0000
  O   O6        1.0  0.7649390435795806  0.07311556396385283  0.4221338430903715  1.0000
  O   O7        1.0  0.941089103732196  0.24005335769280833  0.26787297593650566  1.0000
  O   O8        1.0  0.2398128275679098  0.9270673629079836  0.5682104048645799  1.0000
  O   O9        1.0  0.24027336086759007  0.7632614264719848  0.42848409282500216  1.0000
  O   O10       1.0  0.9242712822939652  0.06791408245449296  0.7435352737068402  1.0000
  O   O11       1.0  0.7642122415761462  0.24863309979301115  0.5626913841684102  1.0000
  O   O12       1.0  0.06776458392114658  0.9334226667422455  0.25831869599028323  1.0000
  O   O13       1.0  0.061142468017472064  0.9288657450195785  0.7390791629278085  1.0000
  O   O14       1.0  0.7708652204657866  0.24403759339328687  0.4236813432364102  1.0000
  O   O15       1.0  0.9323622818754698  0.07384510625611533  0.26176351889279204  1.0000
  O   O16       1.0  0.2319271633263113  0.7667634948477084  0.5688430812114262  1.0000
  O   O17       1.0  0.9146530008526097  0.7794425914929944  0.7263623952705914  1.0000
  O   O18       1.0  0.23895030538747616  0.06263632201233803  0.4337142710274123  1.0000
  O   O19       1.0  0.07982722368068804  0.23122202323982316  0.2743434676700077  1.0000
  O   O20       1.0  0.7646433374623169  0.9386772692684175  0.5577734026009652  1.0000
  O   O21       1.0  0.7600777059843794  0.0787779803203748  0.7337643017465185  1.0000
  O   O22       1.0  0.06680644351716593  0.7723133937366881  0.41753507435797144  1.0000
  O   O23       1.0  0.24337897946710274  0.922414467763474  0.2672916486066158  1.0000
  O   O24       1.0  0.9273761724912858  0.23880200290585651  0.5737308698949308  1.0000
  O   O25       1.0  0.8171768405197568  0.06924724064747785  0.5547237231101293  1.0000
  O   O26       1.0  0.05887529633698552  0.059758229801161536  0.5641892388898883  1.0000
  O   O27       1.0  0.06587170985604726  0.05934736120325821  0.3190670376161648  1.0000
  O   O28       1.0  0.055645844900617226  0.8241266011869469  0.5543795873569125  1.0000
  O   O29       1.0  0.13346903421978587  0.9542097253447678  0.45652592833284444  1.0000
  O   O30       1.0  0.9557565796535813  0.9615687606834841  0.4491978842008354  1.0000
  O   O31       1.0  0.9576750570146331  0.13498295190095885  0.45699128527130767  1.0000
  O   O32       1.0  0.9503316794277836  0.9621080651233026  0.6299350000294129  1.0000
