data_image0
_chemical_formula_structural       Zn4H72C89N20O17F18
_chemical_formula_sum              "Zn4 H72 C89 N20 O17 F18"
_cell_length_a       19.82974477194352
_cell_length_b       20.426461457722183
_cell_length_c       21.06933369272573
_cell_angle_alpha    108.07480142263047
_cell_angle_beta     105.88856672357196
_cell_angle_gamma    111.44011942818967

_space_group_name_H-M_alt    "P 1"
_space_group_IT_number       1

loop_
  _space_group_symop_operation_xyz
  'x, y, z'

loop_
  _atom_site_type_symbol
  _atom_site_label
  _atom_site_symmetry_multiplicity
  _atom_site_fract_x
  _atom_site_fract_y
  _atom_site_fract_z
  _atom_site_occupancy
  Zn  Zn1       1.0  0.584044919496556  0.5957745416212462  0.47591131940745873  1.0000
  Zn  Zn2       1.0  0.3990448454968956  0.3662854378409151  0.49578877497730633  1.0000
  Zn  Zn3       1.0  0.4863956569694211  0.5789314807930309  0.585529702969886  1.0000
  Zn  Zn4       1.0  0.5023169569861281  0.3924692041667086  0.3878350670353399  1.0000
  H   H1        1.0  0.233486181497085  0.3461415475435174  0.5323270382964439  1.0000
  H   H2        1.0  0.6315584061182163  0.40327866657551675  0.5287920500913045  1.0000
  H   H3        1.0  0.48109553992298976  0.9281477198401901  0.5322946967948142  1.0000
  H   H4        1.0  0.3977109985124729  0.626353314854626  0.11651872643906813  1.0000
  H   H5        1.0  0.2971989183128443  0.35950248847498045  0.6875368933205549  1.0000
  H   H6        1.0  0.3164203574439314  0.3779576166127825  0.991038550575297  1.0000
  H   H7        1.0  0.20134351304648135  0.3039724906914856  0.1486625063210241  1.0000
  H   H8        1.0  0.08576066512205222  0.2031858897253045  0.024472787683357894  1.0000
  H   H9        1.0  0.9760476225568909  0.9531979418720622  0.874635003542451  1.0000
  H   H10       1.0  0.8049764207136434  0.03616825436532166  0.8647158094117273  1.0000
  H   H11       1.0  0.0223405914028163  0.03709830145835719  0.11271834911753588  1.0000
  H   H12       1.0  0.4691979970698626  0.3860465881795604  0.21382859441106217  1.0000
  H   H13       1.0  0.7001511942177245  0.9093483391972086  0.7498611452768528  1.0000
  H   H14       1.0  0.4665002806994921  0.5951508555677734  0.34410228300848905  1.0000
  H   H15       1.0  0.8432610946581393  0.8602005911750016  0.6408039741541317  1.0000
  H   H16       1.0  0.7501562361552844  0.8531183941591253  0.587877401709946  1.0000
  H   H17       1.0  0.8047172178345933  0.8216216976124642  0.5417643257794326  1.0000
  H   H18       1.0  0.5364735250728216  0.8343409954062652  0.70748894041634  1.0000
  H   H19       1.0  0.43601270522795943  0.7893998587513449  0.6998394435130422  1.0000
  H   H20       1.0  0.45582648482774596  0.8308027270163764  0.6389203689316432  1.0000
  H   H21       1.0  0.363365433253911  0.19921806231537434  0.2333843554870612  1.0000
  H   H22       1.0  0.4513965764341918  0.28457370129378745  0.2520662776508047  1.0000
  H   H23       1.0  0.3304104206507574  0.5882269180130206  0.5653288369552739  1.0000
  H   H24       1.0  0.37765331479805303  0.21719101681724606  0.15825114097946621  1.0000
  H   H25       1.0  0.1098238850733892  0.28252457370292217  0.2900204478368522  1.0000
  H   H26       1.0  0.17589952606165582  0.38344701136548304  0.36119336709548827  1.0000
  H   H27       1.0  0.1124427268514339  0.3115493516472582  0.38070276421391464  1.0000
  H   H28       1.0  0.17341712086106756  0.4766790094959107  0.7183181373855305  1.0000
  H   H29       1.0  0.1201481019092299  0.37317301382124407  0.6560245750217746  1.0000
  H   H30       1.0  0.124207031495807  0.40661577889732564  0.7472891973433846  1.0000
  H   H31       1.0  0.9074499170840725  0.29323782479350774  0.6083478649938742  1.0000
  H   H32       1.0  0.8138946811723572  0.2853585163320743  0.6071802817396302  1.0000
  H   H33       1.0  0.9007965748375785  0.330200008101393  0.6938900398075561  1.0000
  H   H34       1.0  0.12641137230769323  0.5595241781986571  0.7188656006855751  1.0000
  H   H35       1.0  0.13641903657910603  0.7170942492185332  0.7609341852749552  1.0000
  H   H36       1.0  0.05284270578075479  0.7043422240896362  0.7836770294483274  1.0000
  H   H37       1.0  0.07299160782419992  0.7550237307094958  0.7292850801909124  1.0000
  H   H38       1.0  0.5633807653647908  0.33386571126572306  0.6520512158753604  1.0000
  H   H39       1.0  0.5336103866850763  0.23003983891533153  0.6158760985073926  1.0000
  H   H40       1.0  0.4789682543248902  0.2669308347289743  0.6576430165301872  1.0000
  H   H41       1.0  0.9215941962068828  0.35316418602879207  0.425845665297942  1.0000
  H   H42       1.0  0.014279164506554308  0.350671429004663  0.44391905696024736  1.0000
  H   H43       1.0  0.9673357216291478  0.3604847606530583  0.3641567459772049  1.0000
  H   H44       1.0  0.7517354695480379  0.0012385305303368951  0.6670537546115015  1.0000
  H   H45       1.0  0.963912823272729  0.5662886623646485  0.5405503573317105  1.0000
  H   H46       1.0  0.7936527586735382  0.0779148581242737  0.7598444931740147  1.0000
  H   H47       1.0  0.8467426145469191  0.08844189739286182  0.7038382528735454  1.0000
  H   H48       1.0  0.46450517270939434  0.6490678506100168  0.799433563144433  1.0000
  H   H49       1.0  0.3809806357469726  0.5800462456516584  0.708998951717561  1.0000
  H   H50       1.0  0.4472107269806784  0.6784167999956736  0.7273238457584553  1.0000
  H   H51       1.0  0.8083827757375064  0.242527037300846  0.7662764615814625  1.0000
  H   H52       1.0  0.7352691377455117  0.27212124826766626  0.776398226065062  1.0000
  H   H53       1.0  0.8092815177230507  0.3250274225830053  0.7516491557533557  1.0000
  H   H54       1.0  0.4359334153859039  0.0763955244394623  0.6398145555338104  1.0000
  H   H55       1.0  0.37690274859329526  0.9869350018390435  0.5541277489699468  1.0000
  H   H56       1.0  0.0771134874979609  0.5637536129173525  0.5473901247592252  1.0000
  H   H57       1.0  0.36742176012034383  0.0722716117656148  0.5604559381925327  1.0000
  H   H58       1.0  0.3647344630833516  0.9796149088094378  0.42644013376073525  1.0000
  H   H59       1.0  0.3770349236696617  0.9031372755879302  0.44422093425252024  1.0000
  H   H60       1.0  0.3832723831580509  0.9131770312568364  0.3643895775004822  1.0000
  H   H61       1.0  0.23132831527363612  0.2511577309832944  0.7090281948983872  1.0000
  H   H62       1.0  0.16997143790308664  0.28570373648669534  0.6656449057635427  1.0000
  H   H63       1.0  0.1387997203419928  0.2343413201480828  0.716371951127968  1.0000
  H   H64       1.0  0.9677694075166201  0.8303837538446783  0.8315111272435373  1.0000
  H   H65       1.0  0.9972795469998346  0.879618040419551  0.7783946144535892  1.0000
  H   H66       1.0  0.9491871343676409  0.7734521940141832  0.7381808864792134  1.0000
  H   H67       1.0  0.6194701075609005  0.057886596576757744  0.4631362405627329  1.0000
  H   H68       1.0  0.7358947848970275  0.7915573238383614  0.8373992414204848  1.0000
  H   H69       1.0  0.6611183028609063  0.6892099980775654  0.7999795376506498  1.0000
  H   H70       1.0  0.6477701045672506  0.7666510167779562  0.8539874245396889  1.0000
  H   H71       1.0  0.7078951051433862  0.11210295708779229  0.5490887039571817  1.0000
  H   H72       1.0  0.5758954450197109  0.9426851667039458  0.4799177124948812  1.0000
  C   C1        1.0  0.7056782770519661  0.7330009057319271  0.6170561542012862  1.0000
  C   C2        1.0  0.5480689515529208  0.7313413565594756  0.5005162426525018  1.0000
  C   C3        1.0  0.47566627011198653  0.4369933276084126  0.2567094147460979  1.0000
  C   C4        1.0  0.4847343547981853  0.26983809354506866  0.505960607494977  1.0000
  C   C5        1.0  0.3174228140074363  0.5284876487111559  0.5550708901172783  1.0000
  C   C6        1.0  0.4492967303045391  0.4909061849177404  0.2488517755961439  1.0000
  C   C7        1.0  0.25421974580307  0.4695213323481084  0.557051771431496  1.0000
  C   C8        1.0  0.5366606036000121  0.7776707512817395  0.557620128524249  1.0000
  C   C9        1.0  0.2481560256168294  0.2837659427891667  0.271461265940772  1.0000
  C   C10       1.0  0.9320746966711229  0.4157297224853309  0.5935710790589256  1.0000
  C   C11       1.0  0.018569844847434104  0.5669423271204863  0.6695606279500977  1.0000
  C   C12       1.0  0.5359305751170214  0.24507224130220362  0.4823291978631732  1.0000
  C   C13       1.0  0.09574466918994774  0.5619941013908446  0.668569763944916  1.0000
  C   C14       1.0  0.1925386956655046  0.47542194163121104  0.5745166704016568  1.0000
  C   C15       1.0  0.9407156811134527  0.4966504779950823  0.5984248599266948  1.0000
  C   C16       1.0  0.4795131411058406  0.5299535764321986  0.6913134360846697  1.0000
  C   C17       1.0  0.015534896515191602  0.41705262346953725  0.6057805297246688  1.0000
  C   C18       1.0  0.07198582204372173  0.4881692140605834  0.5974727227019655  1.0000
  C   C19       1.0  0.03191387489198411  0.503209771581055  0.5309469865194743  1.0000
  C   C20       1.0  0.9553707035120028  0.5075181910124441  0.5321174007256176  1.0000
  C   C21       1.0  0.14108263205276475  0.4827130036988549  0.5919326173869166  1.0000
  C   C22       1.0  0.8689316205223037  0.5018782278886958  0.5949905227114627  1.0000
  C   C23       1.0  0.43832279918546396  0.4694730095144876  0.7077304140918699  1.0000
  C   C24       1.0  0.8069136216665314  0.5047595323314128  0.5752038316003762  1.0000
  C   C25       1.0  0.6535788267389934  0.1479801732914084  0.6457362968435946  1.0000
  C   C26       1.0  0.6428456069909955  0.07082170203747032  0.5215430910630943  1.0000
  C   C27       1.0  0.6275774531026459  0.9954507338879494  0.5291079240898  1.0000
  C   C28       1.0  0.655821567126978  0.454996880376413  0.5201485907968433  1.0000
  C   C29       1.0  0.5696909657170935  0.8597769442711751  0.5875928623612978  1.0000
  C   C30       1.0  0.6018742693178467  0.11058049589286871  0.559962701309729  1.0000
  C   C31       1.0  0.6727914752874328  0.08451403764302515  0.6639615912154824  1.0000
  C   C32       1.0  0.6097680348513921  0.00017398336164844367  0.5976108113546773  1.0000
  C   C33       1.0  0.5234091397737332  0.9899515581789089  0.5742376008408953  1.0000
  C   C34       1.0  0.7369421520493945  0.5083940828366381  0.543637806689972  1.0000
  C   C35       1.0  0.514645941156424  0.04478919772143542  0.5387703085264235  1.0000
  C   C36       1.0  0.6033510315950181  0.9309448028160077  0.6073881335129343  1.0000
  C   C37       1.0  0.5935401808154664  0.16747247343572258  0.5357301358414972  1.0000
  C   C38       1.0  0.5701201111356511  0.20338786054834662  0.5074175651646584  1.0000
  C   C39       1.0  0.4103494183769102  0.49345277516604097  0.18102585086087694  1.0000
  C   C40       1.0  0.43338624757957706  0.40430257236830874  0.6540137732701651  1.0000
  C   C41       1.0  0.37008575629292306  0.42733920236996437  0.10994448378700379  1.0000
  C   C42       1.0  0.34259482809552116  0.42997137068983454  0.04387992416206294  1.0000
  C   C43       1.0  0.3544897558599089  0.5029946332276651  0.0458574353428318  1.0000
  C   C44       1.0  0.3875883432464989  0.5694135921799912  0.11432535580408398  1.0000
  C   C45       1.0  0.47352605762758776  0.5438095100153929  0.3225200525810976  1.0000
  C   C46       1.0  0.4135476881262862  0.5628530869746696  0.17889252629655772  1.0000
  C   C47       1.0  0.4176695060585018  0.5341013989238804  0.8860769461567058  1.0000
  C   C48       1.0  0.4487590535342819  0.5321242486967889  0.834339570169007  1.0000
  C   C49       1.0  0.34436331590541874  0.4700099460864849  0.8699261617321666  1.0000
  C   C50       1.0  0.40622194676839746  0.47012484705016516  0.7620450819612826  1.0000
  C   C51       1.0  0.3311543637089542  0.4074206210057125  0.7438979767466235  1.0000
  C   C52       1.0  0.7311627586144598  0.5611748741866406  0.5149956940355906  1.0000
  C   C53       1.0  0.30106255800417614  0.40641581786000097  0.7961263811189525  1.0000
  C   C54       1.0  0.7789074596642609  0.8604273617628947  0.7458116202409713  1.0000
  C   C55       1.0  0.7611307312930293  0.9198025222630761  0.7766109961459833  1.0000
  C   C56       1.0  0.26922250739547593  0.405171706250229  0.5396886761408837  1.0000
  C   C57       1.0  0.8190702871725009  0.9904840223233153  0.8401411349978289  1.0000
  C   C58       1.0  0.8951380834675648  0.9999946010611471  0.8761834313385678  1.0000
  C   C59       1.0  0.9160307189122961  0.943182778988735  0.8451238780347625  1.0000
  C   C60       1.0  0.8588464139602223  0.8748082255551138  0.7792606658045642  1.0000
  C   C61       1.0  0.09610877848952978  0.1903662029194848  0.0716310030478695  1.0000
  C   C62       1.0  0.15990799319171603  0.2462756402184212  0.1408840103462268  1.0000
  C   C63       1.0  0.046567650166828414  0.11448625482153571  0.0612218768960062  1.0000
  C   C64       1.0  0.5353623753997783  0.2675674028081759  0.42568585294736755  1.0000
  C   C65       1.0  0.17451894401182952  0.2300577737915361  0.20210041622262762  1.0000
  C   C66       1.0  0.12101186666744472  0.1546762012462253  0.18986214561036974  1.0000
  C   C67       1.0  0.4858916262951782  0.7181089618735754  0.5703106077924006  1.0000
  C   C68       1.0  0.05951720331311352  0.0963592659849368  0.1209778533500625  1.0000
  C   C69       1.0  0.6482668618815667  0.7326311315280735  0.6928774662811109  1.0000
  C   C70       1.0  0.7152006763898342  0.7819007242082137  0.6864079895982585  1.0000
  C   C71       1.0  0.7885335296395798  0.8255236774696186  0.5879706150940721  1.0000
  C   C72       1.0  0.47200064302587225  0.7994926163174438  0.6690953919793117  1.0000
  C   C73       1.0  0.3863071626141733  0.2446431284246557  0.21562699237880883  1.0000
  C   C74       1.0  0.14835602741060683  0.321049897510207  0.3498323065649487  1.0000
  C   C75       1.0  0.12077402669858371  0.4196234210481932  0.700202801606231  1.0000
  C   C76       1.0  0.8797504168279531  0.3219551021929093  0.6367178850212696  1.0000
  C   C77       1.0  0.07448750155532483  0.7069530616946834  0.741310342039462  1.0000
  C   C78       1.0  0.325971606059035  0.3067397256916066  0.27561223450596367  1.0000
  C   C79       1.0  0.5125529046899544  0.27321284733600487  0.6245015691863995  1.0000
  C   C80       1.0  0.9789994883625113  0.3762144252841607  0.4223024656693042  1.0000
  C   C81       1.0  0.787208837088514  0.06533977762187967  0.7033063850214489  1.0000
  C   C82       1.0  0.4432726140469968  0.62918919477805  0.7395551353209984  1.0000
  C   C83       1.0  0.7711760280593796  0.26679612371186323  0.7456532368155494  1.0000
  C   C84       1.0  0.4095707519024856  0.05181307310965618  0.5790983579330486  1.0000
  C   C85       1.0  0.39715984748306005  0.9459682881713648  0.4226218931451913  1.0000
  C   C86       1.0  0.19090087825077257  0.2757172718582551  0.7140778588127645  1.0000
  C   C87       1.0  0.951697588151724  0.8263128342840957  0.7755298174505469  1.0000
  C   C88       1.0  0.6712155636862891  0.7495664375451057  0.813979701784163  1.0000
  C   C89       1.0  0.2627032182443045  0.31161653253555943  0.34658829914745576  1.0000
  N   N1        1.0  0.6401115550248379  0.6612881902163751  0.5862861421700387  1.0000
  N   N2        1.0  0.3243359843812073  0.4569110553730837  0.9244986992001004  1.0000
  N   N3        1.0  0.9488055405594481  0.06700566408128585  0.9461549321890318  1.0000
  N   N4        1.0  0.4590995997034284  0.3045483943872681  0.4675673621230557  1.0000
  N   N5        1.0  0.9871208707646772  0.050491027278177156  0.9918071134385401  1.0000
  N   N6        1.0  0.4986010594953997  0.5031287805640899  0.6360780379987148  1.0000
  N   N7        1.0  0.6073751715393456  0.47418693368903314  0.4798270907480743  1.0000
  N   N8        1.0  0.46912313270095046  0.42215337103868933  0.6117433629503565  1.0000
  N   N9        1.0  0.6554478919446822  0.541434954341092  0.4769680406001626  1.0000
  N   N10       1.0  0.49075933085214996  0.30205734932854983  0.4158100867210237  1.0000
  N   N11       1.0  0.6044773462395129  0.6603870414644107  0.6338341005679171  1.0000
  N   N12       1.0  0.33628631706324097  0.42520910729948697  0.5297669369636182  1.0000
  N   N13       1.0  0.5107726070382768  0.522591314589846  0.3693111120383321  1.0000
  N   N14       1.0  0.47169214026648393  0.646086945300489  0.5264076203599898  1.0000
  N   N15       1.0  0.3818410358269518  0.3460125711959705  0.3464066635781862  1.0000
  N   N16       1.0  0.34277967655199865  0.3495825365397494  0.3912554243310993  1.0000
  N   N17       1.0  0.5115470192102549  0.6550369464210488  0.4817687981029906  1.0000
  N   N18       1.0  0.5127937850666273  0.4564599459899412  0.3286111060071661  1.0000
  N   N19       1.0  0.36643593764294025  0.5012649771400888  0.5394653454966729  1.0000
  N   N20       1.0  0.34819927713933657  0.5178447274336833  0.9841960302215041  1.0000
  O   O1        1.0  0.7449450211877818  0.7451351269200472  0.5748867770215399  1.0000
  O   O2        1.0  0.7517168691702952  0.10724807972478358  0.6759447902262467  1.0000
  O   O3        1.0  0.4959988112947614  0.6064438358606878  0.7146617360175115  1.0000
  O   O4        1.0  0.71971240730624  0.21819452838857964  0.6669719908947583  1.0000
  O   O5        1.0  0.47072383022590003  0.08174250458625211  0.5556348896257006  1.0000
  O   O6        1.0  0.4822363346157275  0.9974719251599423  0.4599985123699994  1.0000
  O   O7        1.0  0.22995528960052522  0.3468531060836995  0.7822403865890379  1.0000
  O   O8        1.0  0.8728817146268427  0.8161934763272144  0.7440198013299694  1.0000
  O   O9        1.0  0.626515234449883  0.7521883785144753  0.74872356173627  1.0000
  O   O10       1.0  0.45240840011601346  0.7219666876371703  0.6183420804490963  1.0000
  O   O11       1.0  0.3420717393401774  0.2869101193295691  0.21606715963311984  1.0000
  O   O12       1.0  0.21009275656170706  0.3019276380508131  0.3768552501095144  1.0000
  O   O13       1.0  0.0465913107275071  0.42170965968457347  0.6755174685834362  1.0000
  O   O14       1.0  0.9022773211482474  0.39978503721341946  0.6413484694417306  1.0000
  O   O15       1.0  0.020498991790887496  0.635992757691227  0.6720074590221189  1.0000
  O   O16       1.0  0.4556749284004056  0.25866755036037153  0.5544900370717656  1.0000
  O   O17       1.0  0.024961931128260107  0.46110373441751307  0.46062936061344567  1.0000
  F   F1        1.0  0.5923683908402779  0.7584423884684881  0.4667564485948574  1.0000
  F   F2        1.0  0.6653931161447346  0.08665310993073654  0.7289980777447909  1.0000
  F   F3        1.0  0.524194229614402  0.5914140749354999  0.8568482778291369  1.0000
  F   F4        1.0  0.4648821668453706  0.5948572230416431  0.9552056725286064  1.0000
  F   F5        1.0  0.44904983032368057  0.6295619798145964  0.24466169336888294  1.0000
  F   F6        1.0  0.3605100305017644  0.3563981067961067  0.10657884939253391  1.0000
  F   F7        1.0  0.3944468489879612  0.3289084429146598  0.6424275727220918  1.0000
  F   F8        1.0  0.13323033612206814  0.13612893638253354  0.2474320813035931  1.0000
  F   F9        1.0  0.792392310733419  0.6238090064297664  0.52174752025509  1.0000
  F   F10       1.0  0.5743867837780174  0.25867145448518875  0.3834436924836951  1.0000
  F   F11       1.0  0.013340292640506807  0.5605248956197926  0.7329154324760054  1.0000
  F   F12       1.0  0.15031359714079431  0.6305159322232826  0.6700599515310728  1.0000
  F   F13       1.0  0.8877510740473512  0.4538145580956795  0.46440991569451745  1.0000
  F   F14       1.0  0.8769571229261288  0.35657011024588303  0.5201466206655496  1.0000
  F   F15       1.0  0.002007526475388501  0.345876907691526  0.5526776146474573  1.0000
  F   F16       1.0  0.6943051385387734  0.9834709125757114  0.5352869095633395  1.0000
  F   F17       1.0  0.5056885317130053  0.0005944358171917308  0.6354621067972772  1.0000
  F   F18       1.0  0.6074487189107884  0.1631732495280147  0.682922967158639  1.0000
