data_image0
_chemical_formula_structural       Ag2H20C22S2N4O6F6
_chemical_formula_sum              "Ag2 H20 C22 S2 N4 O6 F6"
_cell_length_a       7.835587002910555
_cell_length_b       9.182678723749182
_cell_length_c       10.078502860119116
_cell_angle_alpha    76.42188161557856
_cell_angle_beta     84.94330302072837
_cell_angle_gamma    68.39528266244469

_space_group_name_H-M_alt    "P 1"
_space_group_IT_number       1

loop_
  _space_group_symop_operation_xyz
  'x, y, z'

loop_
  _atom_site_type_symbol
  _atom_site_label
  _atom_site_symmetry_multiplicity
  _atom_site_fract_x
  _atom_site_fract_y
  _atom_site_fract_z
  _atom_site_occupancy
  Ag  Ag1       1.0  0.37635718493980624  0.3546491483465956  0.12289339679102801  1.0000
  Ag  Ag2       1.0  0.6236443371639524  0.6453506002511415  0.8771060246599093  1.0000
  H   H1        1.0  0.3602682767029747  0.39662432939073244  0.3964018867003035  1.0000
  H   H2        1.0  0.6397324495168064  0.6033742272211665  0.6035958579354102  1.0000
  H   H3        1.0  0.08982038830394863  0.7084265350904102  0.04812419802052399  1.0000
  H   H4        1.0  0.9101790645314836  0.29157201267509686  0.9518756217986707  1.0000
  H   H5        1.0  0.8627948329596151  0.7057132347434346  0.05026992382958184  1.0000
  H   H6        1.0  0.13720413466027287  0.29428650473055734  0.9497316622776354  1.0000
  H   H7        1.0  0.877487990469781  0.5802163655984244  0.28503857202116484  1.0000
  H   H8        1.0  0.1225135393491499  0.41978337443025976  0.7149628351404544  1.0000
  H   H9        1.0  0.09375375644950178  0.604423119378424  0.2817616467061725  1.0000
  H   H10       1.0  0.9062495435420743  0.39557542493459136  0.7182388975499522  1.0000
  H   H11       1.0  0.9949047125479852  0.7274808908041945  0.8165818315405319  1.0000
  H   H12       1.0  0.005092973972388357  0.2725188483924584  0.1834198440394843  1.0000
  H   H13       1.0  0.18562964975741655  0.5472224712470815  0.8715269281093043  1.0000
  H   H14       1.0  0.8143675399746613  0.45277847251163905  0.1284735351927253  1.0000
  H   H15       1.0  0.4874084153765352  0.1469132169652595  0.5734405183566055  1.0000
  H   H16       1.0  0.5125918256277019  0.8530865313551312  0.42655899256713087  1.0000
  H   H17       1.0  0.967279671955893  0.07970586083065  0.595780135819851  1.0000
  H   H18       1.0  0.032721372647486736  0.9202950709065261  0.4042230376297908  1.0000
  H   H19       1.0  0.8431177962026551  0.32694717144514124  0.4165674498951404  1.0000
  H   H20       1.0  0.15688294158987762  0.6730513723131819  0.5834332733065895  1.0000
  C   C1        1.0  0.2773265732101179  0.3228755025787818  0.4357756212346899  1.0000
  C   C2        1.0  0.722673167148244  0.6771254545882001  0.564221684555733  1.0000
  C   C3        1.0  0.008907764971937097  0.638652754154691  0.03312144217645141  1.0000
  C   C4        1.0  0.9910907058596546  0.36134818988136885  0.9668789316527794  1.0000
  C   C5        1.0  0.026698336586314014  0.5202906099094519  0.27557530325780993  1.0000
  C   C6        1.0  0.9733023973486397  0.47970793813340135  0.7244244270885788  1.0000
  C   C7        1.0  0.09724148105479465  0.3730141251243281  0.3881892677801276  1.0000
  C   C8        1.0  0.9027597419532895  0.6269832269255103  0.6118096891335726  1.0000
  C   C9        1.0  0.038297007057316534  0.6112089004396281  0.8892550571307679  1.0000
  C   C10       1.0  0.9617014637742829  0.38879204359643865  0.11074531669846982  1.0000
  C   C11       1.0  0.2372543144399515  0.09464045214115657  0.5926651318050489  1.0000
  C   C12       1.0  0.762746221802388  0.9053616970116634  0.40733385080059753  1.0000
  C   C13       1.0  0.31445594330921983  0.9528184859467427  0.6944255125702911  1.0000
  C   C14       1.0  0.6855473605399353  0.04718005408174968  0.3055760245411747  1.0000
  C   C15       1.0  0.3484569801796269  0.18437725428115928  0.5362783376869231  1.0000
  C   C16       1.0  0.6515445380665456  0.8156224986011008  0.46372009090868005  1.0000
  C   C17       1.0  0.26782749749285284  0.9239563548242128  0.14726898069179142  1.0000
  C   C18       1.0  0.7321745213992017  0.07604218921145638  0.8527316530371324  1.0000
  C   C19       1.0  0.054543310636049065  0.14651928109165624  0.5492905664774383  1.0000
  C   C20       1.0  0.9454569303681879  0.8534804672287418  0.4507089444462977  1.0000
  C   C21       1.0  0.9861636832838269  0.28497558850748556  0.44767778075332393  1.0000
  C   C22       1.0  0.013837543581829034  0.715021759257823  0.5523221690157101  1.0000
  S   S1        1.0  0.43471342773335664  0.7141976967552991  0.19999756978390343  1.0000
  S   S2        1.0  0.5652834706182046  0.28580084188646987  0.8000044146915642  1.0000
  N   N1        1.0  0.06815211975433765  0.48402636618745  0.13610521163932535  1.0000
  N   N2        1.0  0.9318473292235083  0.5159721858625802  0.8638936153245281  1.0000
  N   N3        1.0  0.3877420800325169  0.8358477690652106  0.7750840171845895  1.0000
  N   N4        1.0  0.612260816858658  0.16415798603679113  0.22491304587936872  1.0000
  O   O1        1.0  0.4128904791321731  0.6351424676603086  0.09437318812786806  1.0000
  O   O2        1.0  0.5871049365696736  0.3648596760986037  0.9056271452243153  1.0000
  O   O3        1.0  0.6089846372276495  0.7377926198049136  0.19348618359986602  1.0000
  O   O4        1.0  0.3910165896380136  0.2622047279603946  0.806513766169168  1.0000
  O   O5        1.0  0.3706690780901952  0.6573870466815703  0.3350208258917888  1.0000
  O   O6        1.0  0.6293296918370784  0.3426162939023951  0.6649800124746862  1.0000
  F   F1        1.0  0.3115104187575426  0.999333287830623  0.024854046411519438  1.0000
  F   F2        1.0  0.68848952315102  0.000664063941861999  0.9751449999749794  1.0000
  F   F3        1.0  0.26740019254699376  0.010267750842316995  0.24139693469816592  1.0000
  F   F4        1.0  0.7326024129636722  0.9897355991427401  0.7586016495392301  1.0000
  F   F5        1.0  0.09284349671915502  0.9287872506762225  0.14011225262465393  1.0000
  F   F6        1.0  0.9071554786158982  0.0712124802287235  0.8598913191932382  1.0000
