data_image0
_chemical_formula_structural       Zn12H136C216N16O48
_chemical_formula_sum              "Zn12 H136 C216 N16 O48"
_cell_length_a       13.821143337114302
_cell_length_b       24.77923385173674
_cell_length_c       26.475012071785475
_cell_angle_alpha    113.19019257144458
_cell_angle_beta     90.00346395754491
_cell_angle_gamma    106.20000252036736

_space_group_name_H-M_alt    "P 1"
_space_group_IT_number       1

loop_
  _space_group_symop_operation_xyz
  'x, y, z'

loop_
  _atom_site_type_symbol
  _atom_site_label
  _atom_site_symmetry_multiplicity
  _atom_site_fract_x
  _atom_site_fract_y
  _atom_site_fract_z
  _atom_site_occupancy
  Zn  Zn1       1.0  0.11059933129232033  0.7096987882557639  0.45252817750083096  1.0000
  Zn  Zn2       1.0  0.4009285442461063  0.2903976897575403  0.04749939255854228  1.0000
  Zn  Zn3       1.0  0.88939880537535  0.2903036771079499  0.5474732776111323  1.0000
  Zn  Zn4       1.0  0.5990707075460265  0.7095983250654496  0.9524996505235207  1.0000
  Zn  Zn5       1.0  0.0395810688444413  0.5584250651986622  0.39238092734996133  1.0000
  Zn  Zn6       1.0  0.48117156930238986  0.44152048411612543  0.10761754643362309  1.0000
  Zn  Zn7       1.0  0.9604176397939169  0.441572756475189  0.607623324031124  1.0000
  Zn  Zn8       1.0  0.5188333345169197  0.5584810449772276  0.8923854472987925  1.0000
  Zn  Zn9       1.0  0.1736703014455685  0.8677877196325667  0.5164297792507284  1.0000
  Zn  Zn10      1.0  0.3060372815137953  0.13223245549789198  0.9835549291724346  1.0000
  Zn  Zn11      1.0  0.8263269883160402  0.1322101592157594  0.48356731675556824  1.0000
  Zn  Zn12      1.0  0.6939593243550989  0.8677640561128327  0.01643976695907417  1.0000
  H   H1        1.0  0.928312884281695  0.7170427921348831  0.5718738788446842  1.0000
  H   H2        1.0  0.2109833611607641  0.2829961120991696  0.9280680983368796  1.0000
  H   H3        1.0  0.07168791761367287  0.28295921560517456  0.4281270274672834  1.0000
  H   H4        1.0  0.7890170250077232  0.717002170406893  0.07193632538921696  1.0000
  H   H5        1.0  0.8464994885184252  0.7207405499755025  0.6557280346263566  1.0000
  H   H6        1.0  0.1255727043822503  0.2794028672168736  0.8442383186589237  1.0000
  H   H7        1.0  0.15349928095066898  0.2792660742755189  0.3442734647351741  1.0000
  H   H8        1.0  0.8744228444371486  0.7205958698022669  0.1557670303927452  1.0000
  H   H9        1.0  0.7766984940799233  0.52295086505044  0.595388229247625  1.0000
  H   H10       1.0  0.25382983553325283  0.47718973934543374  0.9046837495181776  1.0000
  H   H11       1.0  0.22328819070563807  0.47705618928613797  0.40461720797370043  1.0000
  H   H12       1.0  0.7461789779386264  0.5228094801167558  0.09531913608169867  1.0000
  H   H13       1.0  0.8568158213262933  0.5207994140030576  0.5120438888053086  1.0000
  H   H14       1.0  0.3360864987646294  0.47923184494793225  0.9880025863840699  1.0000
  H   H15       1.0  0.14317508984018448  0.4792016235767348  0.48796269814395987  1.0000
  H   H16       1.0  0.6639211258285513  0.5207664439099274  0.012001084384984024  1.0000
  H   H17       1.0  0.8127758708752425  0.7233639695584062  0.728862964595578  1.0000
  H   H18       1.0  0.0896307775407692  0.2767870422649423  0.7711451768106626  1.0000
  H   H19       1.0  0.18720743998671452  0.2766435724953809  0.2711392554402465  1.0000
  H   H20       1.0  0.9103702647473567  0.7232139987846509  0.22886103387190104  1.0000
  H   H21       1.0  0.7385225159852098  0.7243197268556967  0.8139348414082973  1.0000
  H   H22       1.0  0.014579222513802387  0.27577420966155586  0.6860061829541735  1.0000
  H   H23       1.0  0.2614714364830846  0.2756859455393723  0.1860700791781085  1.0000
  H   H24       1.0  0.9854182313049832  0.7242254429314556  0.3140002639328329  1.0000
  H   H25       1.0  0.6306760654755834  0.5268249035613478  0.7413025500255799  1.0000
  H   H26       1.0  0.10386517563201642  0.47325784774864127  0.7586604419562377  1.0000
  H   H27       1.0  0.36932877834267686  0.47317939910598716  0.2587003476587952  1.0000
  H   H28       1.0  0.896138040262457  0.5267431994241604  0.2413450156045442  1.0000
  H   H29       1.0  0.7009019808380259  0.5240442934271669  0.6555576869709511  1.0000
  H   H30       1.0  0.17670050563235404  0.47608908080768214  0.8444925749622597  1.0000
  H   H31       1.0  0.2990926455694094  0.47596417366288074  0.34444450141758404  1.0000
  H   H32       1.0  0.8233010327319974  0.5239115055329079  0.1555127102535181  1.0000
  H   H33       1.0  0.3323677603192081  0.7099640804923767  0.48971679948552793  1.0000
  H   H34       1.0  0.6221658118634963  0.28971936716009583  0.010383472234337878  1.0000
  H   H35       1.0  0.6676348861333636  0.29004016784982406  0.5102928768597649  1.0000
  H   H36       1.0  0.37783450732027285  0.7102831224025508  0.989614970178657  1.0000
  H   H37       1.0  0.5186427207785513  0.7614440142421727  0.5103614881093392  1.0000
  H   H38       1.0  0.7567574946319623  0.23814528030136017  0.9897691785747751  1.0000
  H   H39       1.0  0.4813609619341007  0.23855796651491085  0.48964280766253404  1.0000
  H   H40       1.0  0.24324022823491018  0.7618549113866919  0.010227649109083402  1.0000
  H   H41       1.0  0.5579691048714039  0.6393256845751836  0.34786277693878287  1.0000
  H   H42       1.0  0.9187844111430364  0.3605902303566352  0.15207952025584598  1.0000
  H   H43       1.0  0.4420211824034013  0.3606712121930258  0.6521415061837388  1.0000
  H   H44       1.0  0.08121675901310241  0.6394067271538189  0.8479172312957883  1.0000
  H   H45       1.0  0.3717841888201079  0.5857353222281245  0.3293385364153139  1.0000
  H   H46       1.0  0.7862334719107266  0.4141626596537904  0.170632482838684  1.0000
  H   H47       1.0  0.6282067982408321  0.41426152637081504  0.6706717722698698  1.0000
  H   H48       1.0  0.21377055128960623  0.585835662179619  0.8293670452545355  1.0000
  H   H49       1.0  0.6538150202839217  0.8234261143562589  0.4962653487443801  1.0000
  H   H50       1.0  0.8306597011930067  0.1763517592613084  0.003703640183118812  1.0000
  H   H51       1.0  0.346180750506015  0.17657451389977294  0.5037346639363703  1.0000
  H   H52       1.0  0.16933467552335907  0.8236475288380375  0.996290583233552  1.0000
  H   H53       1.0  0.8417027997628352  0.8713062719179232  0.5200071525985875  1.0000
  H   H54       1.0  0.9708862849061362  0.1286800681168501  0.9801009704180997  1.0000
  H   H55       1.0  0.15829224302675018  0.1286943472675901  0.479993989847216  1.0000
  H   H56       1.0  0.029110740100669903  0.8713216232988118  0.019881686860856118  1.0000
  H   H57       1.0  0.8858345427397508  0.6978430569576374  0.41869874501652043  1.0000
  H   H58       1.0  0.18818077522991664  0.30237344681253825  0.08124388553537899  1.0000
  H   H59       1.0  0.1141617033369968  0.3021570744126906  0.5813056145441776  1.0000
  H   H60       1.0  0.8118194651420297  0.6976245466459972  0.91873889990962  1.0000
  H   H61       1.0  0.699263341741215  0.649343198651188  0.3949039002394343  1.0000
  H   H62       1.0  0.049914315065485854  0.3506450308756896  0.10498379370272909  1.0000
  H   H63       1.0  0.30073265057814785  0.3506578722960185  0.6050985443164265  1.0000
  H   H64       1.0  0.9500868406821893  0.6493533450542726  0.8950089555648332  1.0000
  H   H65       1.0  0.3427766046677547  0.9022933514721173  0.3923301556494394  1.0000
  H   H66       1.0  0.4410759301368046  0.097755143195883  0.10744199166608578  1.0000
  H   H67       1.0  0.6572316487131005  0.0977105357808981  0.6076669209117468  1.0000
  H   H68       1.0  0.5589227299916074  0.9022353485474709  0.8925542307189572  1.0000
  H   H69       1.0  0.42304532218078356  0.8992468623319708  0.3075277890570902  1.0000
  H   H70       1.0  0.5244466241184398  0.1007804750224395  0.1922359862750156  1.0000
  H   H71       1.0  0.576960135187008  0.1007528809988756  0.6924673602029329  1.0000
  H   H72       1.0  0.4755502251131247  0.8992150759230597  0.8077632610347009  1.0000
  H   H73       1.0  0.3944103993360102  0.7072850140649649  0.2603803340120052  1.0000
  H   H74       1.0  0.6873256565996897  0.292889445387928  0.23960486506828  1.0000
  H   H75       1.0  0.6055906959694894  0.2927146868932553  0.7396200874535452  1.0000
  H   H76       1.0  0.3126724389828296  0.7071057051083968  0.760386678066652  1.0000
  H   H77       1.0  0.3116986867073663  0.7110556619642523  0.3447652358705043  1.0000
  H   H78       1.0  0.6007917901347496  0.2890931322357915  0.15521489406231836  1.0000
  H   H79       1.0  0.6883023133992053  0.28894818881076384  0.655236359609674  1.0000
  H   H80       1.0  0.3992045263903137  0.7108955675891906  0.8447742369485738  1.0000
  H   H81       1.0  0.564127711239486  0.8921192381939136  0.26432189949003526  1.0000
  H   H82       1.0  0.672388653572348  0.10795119822626019  0.2354492951167302  1.0000
  H   H83       1.0  0.4358739639026297  0.10787728268326191  0.7356716670176339  1.0000
  H   H84       1.0  0.32760962982667513  0.8920457742166833  0.7645455733597899  1.0000
  H   H85       1.0  0.633943567947071  0.8889167357569363  0.17683699154537189  1.0000
  H   H86       1.0  0.7451185205399609  0.1109243742583885  0.32288996532283676  1.0000
  H   H87       1.0  0.3660504475447511  0.11107749002967891  0.8231545834722096  1.0000
  H   H88       1.0  0.25489134998141344  0.8890726197953782  0.6771022673568723  1.0000
  H   H89       1.0  0.4348398291819676  0.7053141548821529  0.08849179342129794  1.0000
  H   H90       1.0  0.7296260492310864  0.29447991475419133  0.4114495362478649  1.0000
  H   H91       1.0  0.5651473661408345  0.2946823472661889  0.9115040321928374  1.0000
  H   H92       1.0  0.270388385577533  0.705517525199319  0.5885447518519697  1.0000
  H   H93       1.0  0.36073519142335914  0.7085361550685648  0.17519032957637395  1.0000
  H   H94       1.0  0.6524644954412935  0.2914442951181043  0.3247994396522742  1.0000
  H   H95       1.0  0.63925871105004  0.29146218438339133  0.8248069386101802  1.0000
  H   H96       1.0  0.3475467443504884  0.7085554364235024  0.6751972161808125  1.0000
  H   H97       1.0  0.06629746215377706  0.46991246279140597  0.2859372971381404  1.0000
  H   H98       1.0  0.5962109250818839  0.5300325696552051  0.21417916288793037  1.0000
  H   H99       1.0  0.9337035860741809  0.5300885903086652  0.7140674071596393  1.0000
  H   H100      1.0  0.4038064905863905  0.46997083014183966  0.7858211310470294  1.0000
  H   H101      1.0  0.013848666637976188  0.3544501268580973  0.2319482585663479  1.0000
  H   H102      1.0  0.6595563980380418  0.6454709682526951  0.2681605542976371  1.0000
  H   H103      1.0  0.986151931106349  0.6455500257965099  0.7680534649621933  1.0000
  H   H104      1.0  0.34046342910054517  0.35453291349757177  0.7318372758324969  1.0000
  H   H105      1.0  0.8891281295977008  0.3378220943521981  0.37660065955259364  1.0000
  H   H106      1.0  0.5515893567604947  0.6622241327214482  0.12354277889343739  1.0000
  H   H107      1.0  0.11087618107293912  0.6621739086489029  0.6233998900789999  1.0000
  H   H108      1.0  0.44841486910593187  0.33777604118478166  0.8764563085794064  1.0000
  H   H109      1.0  0.9415019607582165  0.45351299251128546  0.4231611249047872  1.0000
  H   H110      1.0  0.48792120112189247  0.5465432920929911  0.07698967480678925  1.0000
  H   H111      1.0  0.05849993844211103  0.5464825285366003  0.5768418885316321  1.0000
  H   H112      1.0  0.512082063335086  0.4534564059505755  0.9230111233255655  1.0000
  H   H113      1.0  0.8761318238424209  0.24290987974502093  0.2939029499685546  1.0000
  H   H114      1.0  0.633584718877465  0.7571444181355034  0.206316353621375  1.0000
  H   H115      1.0  0.12386782140220726  0.7570898151226543  0.7060982246423179  1.0000
  H   H116      1.0  0.3664124271227109  0.24285895965884657  0.7936865758279765  1.0000
  H   H117      1.0  0.8359337378550292  0.18672760667703867  0.12441735227694288  1.0000
  H   H118      1.0  0.6485841241905206  0.813162539177405  0.3758440493928958  1.0000
  H   H119      1.0  0.16407202139152594  0.8132683994019914  0.8755828208055192  1.0000
  H   H120      1.0  0.3514233740721692  0.18683115717249169  0.6241560154864202  1.0000
  H   H121      1.0  0.7095921376147984  0.9765440349987172  0.9880137125921705  1.0000
  H   H122      1.0  0.7328862378227041  0.0235677034043604  0.5122272945431661  1.0000
  H   H123      1.0  0.2904045945845866  0.023457069119977796  0.0119845894290762  1.0000
  H   H124      1.0  0.26710793727141174  0.976428287089078  0.48777476114371854  1.0000
  H   H125      1.0  0.7751886500311045  0.0922351608274212  0.036461581720963906  1.0000
  H   H126      1.0  0.6825041160273954  0.9078700346642776  0.46391683033249353  1.0000
  H   H127      1.0  0.22481533500143067  0.907764531223563  0.9635399696273123  1.0000
  H   H128      1.0  0.3175020525650822  0.09212823605255238  0.5360890999666664  1.0000
  H   H129      1.0  0.7561176728853451  0.9566198994836836  0.13305111753718524  1.0000
  H   H130      1.0  0.7988328144797093  0.04319494945750079  0.36702836442913167  1.0000
  H   H131      1.0  0.2438604404993825  0.0433729101776308  0.866944082650505  1.0000
  H   H132      1.0  0.20117391464491868  0.9568001020142133  0.6329756066626827  1.0000
  H   H133      1.0  0.8232173854540861  0.07184603029817539  0.1882357161574788  1.0000
  H   H134      1.0  0.7507059049264838  0.9279522831867763  0.31199652320525206  1.0000
  H   H135      1.0  0.17677232352163239  0.9281453705039767  0.8117623569022571  1.0000
  H   H136      1.0  0.2493126224552071  0.0720432114986025  0.6880098801382315  1.0000
  C   C1        1.0  0.9545116167481211  0.6172319206523014  0.48853561251353733  1.0000
  C   C2        1.0  0.337206836785377  0.3827409771810649  0.011436805664651228  1.0000
  C   C3        1.0  0.04548173811663496  0.3827682166126464  0.5114679937606254  1.0000
  C   C4        1.0  0.6627988168675429  0.6172591576264067  0.9885671776058088  1.0000
  C   C5        1.0  0.8985157732124802  0.6188327623859562  0.5369756985916467  1.0000
  C   C6        1.0  0.2796016360779277  0.38120655068169645  0.9630199202416633  1.0000
  C   C7        1.0  0.10147946481840367  0.3811696938092696  0.463026886214756  1.0000
  C   C8        1.0  0.7204030987882178  0.6187917470834067  0.03698262064466462  1.0000
  C   C9        1.0  0.894150504113334  0.6748842215484954  0.5776716912748014  1.0000
  C   C10       1.0  0.2190792461895086  0.3251808985698403  0.9223114095377197  1.0000
  C   C11       1.0  0.10584664782668086  0.32511916829633236  0.42232973178975897  1.0000
  C   C12       1.0  0.7809204164334956  0.6748173839035656  0.07769301416483639  1.0000
  C   C13       1.0  0.8483192881460154  0.6763849242452834  0.6247649268093767  1.0000
  C   C14       1.0  0.17177756190294954  0.32373037385101355  0.8752339685024138  1.0000
  C   C15       1.0  0.1516737237022596  0.3236203144638097  0.3752364320897925  1.0000
  C   C16       1.0  0.8282249641589697  0.6762692940336945  0.12477059556835707  1.0000
  C   C17       1.0  0.8053109379874497  0.6221540149069752  0.6329958515246189  1.0000
  C   C18       1.0  0.1831130198353392  0.3779836202407978  0.8670350748072123  1.0000
  C   C19       1.0  0.19467937343524971  0.37785305766860233  0.3670073262372142  1.0000
  C   C20       1.0  0.8168921655144388  0.6220155779697691  0.1329704468483541  1.0000
  C   C21       1.0  0.8077689669716861  0.5660216758561205  0.5907877793596512  1.0000
  C   C22       1.0  0.2417469792123086  0.4340987594060834  0.909255802277414  1.0000
  C   C23       1.0  0.1922194305418827  0.4339844630698551  0.40921656014401714  1.0000
  C   C24       1.0  0.7582601552444854  0.5658999962112715  0.09074728757364878  1.0000
  C   C25       1.0  0.8534559467603772  0.5643772283673982  0.5437541079700167  1.0000
  C   C26       1.0  0.2890750539935992  0.43568886775194915  0.9562732545093054  1.0000
  C   C27       1.0  0.1465351774668945  0.43562568237356186  0.45624940218550586  1.0000
  C   C28       1.0  0.7109299375998503  0.5643084964615213  0.043730448189464304  1.0000
  C   C29       1.0  0.7613487019393118  0.6236790323234516  0.6843392790760774  1.0000
  C   C30       1.0  0.13768318682016906  0.37646430445612816  0.815684825722556  1.0000
  C   C31       1.0  0.23864279242224734  0.37632895880596345  0.315664619901355  1.0000
  C   C32       1.0  0.8623212794390084  0.6235349027596442  0.18431956612089104  1.0000
  C   C33       1.0  0.7715589638814747  0.6796923372774585  0.7303497674040215  1.0000
  C   C34       1.0  0.09204116790872517  0.3204426999023083  0.7696442387916489  1.0000
  C   C35       1.0  0.2284301323743989  0.3203151990123274  0.2696532060124781  1.0000
  C   C36       1.0  0.9079610954860584  0.6795578894835543  0.23036066985146425  1.0000
  C   C37       1.0  0.7307973380406948  0.6808322968437963  0.7786619480437621  1.0000
  C   C38       1.0  0.0502133047891746  0.319277980727712  0.7213011101583504  1.0000
  C   C39       1.0  0.26920023957978856  0.31917339077765655  0.22134108967934193  1.0000
  C   C40       1.0  0.9497867879691809  0.6807226085601811  0.2787037984141633  1.0000
  C   C41       1.0  0.679308944522397  0.6256898257012864  0.7828298004551542  1.0000
  C   C42       1.0  0.05380181830577864  0.3744043769473746  0.7171378288539286  1.0000
  C   C43       1.0  0.32069418805281896  0.3743153953892672  0.2171738183506875  1.0000
  C   C44       1.0  0.9461994588763928  0.6255971339069789  0.28286742433798656  1.0000
  C   C45       1.0  0.6699587058887173  0.5696440780385287  0.7377601887415749  1.0000
  C   C46       1.0  0.10038272033117575  0.43046319129089017  0.7622295290866035  1.0000
  C   C47       1.0  0.3300420285808058  0.4303606882123957  0.26224250450333386  1.0000
  C   C48       1.0  0.8996214832608728  0.5695369374260295  0.2377752073291788  1.0000
  C   C49       1.0  0.7096554382216592  0.568641851996375  0.6893820222924204  1.0000
  C   C50       1.0  0.14098261094522263  0.4314872787935045  0.8106413011677347  1.0000
  C   C51       1.0  0.29034043409561144  0.43136476609878116  0.3106202301673661  1.0000
  C   C52       1.0  0.8590201411009912  0.5685128408202472  0.18936456498956028  1.0000
  C   C53       1.0  0.634200234478449  0.6260450437753988  0.8341837667546058  1.0000
  C   C54       1.0  0.008287572184052315  0.3740154689334715  0.665783822281952  1.0000
  C   C55       1.0  0.36580730085564267  0.37395740694973506  0.1658195716442918  1.0000
  C   C56       1.0  0.991713939892172  0.6259865117256567  0.33422047341931466  1.0000
  C   C57       1.0  0.2318000013852881  0.6092055408954309  0.3967989545293378  1.0000
  C   C58       1.0  0.6226624642293928  0.3907025885932783  0.10318508397306661  1.0000
  C   C59       1.0  0.7681964310229998  0.3907964094088925  0.603209106969139  1.0000
  C   C60       1.0  0.37733597475816083  0.6092975880643294  0.8968136267152998  1.0000
  C   C61       1.0  0.3414273282888374  0.6441762494339756  0.40856466277620734  1.0000
  C   C62       1.0  0.6972320283469883  0.35565688061874556  0.09144142945627458  1.0000
  C   C63       1.0  0.658569821725095  0.35582568885252636  0.5914449051305866  1.0000
  C   C64       1.0  0.30276834638295463  0.6443428263320639  0.9085582387933541  1.0000
  C   C65       1.0  0.3826351097989046  0.6945916407235159  0.4591511060321025  1.0000
  C   C66       1.0  0.6878889989669472  0.30514126564642646  0.040912816734348205  1.0000
  C   C67       1.0  0.6173646776696416  0.3054112312452375  0.5408573001563822  1.0000
  C   C68       1.0  0.3121115784290821  0.6948602933772107  0.9590864108948977  1.0000
  C   C69       1.0  0.48678966410314223  0.7237594545942655  0.47006057486968444  1.0000
  C   C70       1.0  0.7628255119736451  0.2759449932860889  0.03001326237423292  1.0000
  C   C71       1.0  0.513208255048859  0.2762411285704189  0.5299450868246041  1.0000
  C   C72       1.0  0.2371734216051705  0.7240547256498926  0.9699848994435383  1.0000
  C   C73       1.0  0.5520753448381511  0.7038466771661263  0.4307819061590337  1.0000
  C   C74       1.0  0.8481931385168195  0.2959432754444151  0.06922125480085131  1.0000
  C   C75       1.0  0.4479208690106303  0.2961548364722688  0.5692229702719372  1.0000
  C   C76       1.0  0.15180776748722752  0.7040546005545708  0.9307762179193159  1.0000
  C   C77       1.0  0.5092110061237136  0.6542957346935978  0.37951847009440337  1.0000
  C   C78       1.0  0.8549774358640504  0.34556404008742436  0.1204482882129412  1.0000
  C   C79       1.0  0.49078312189285356  0.3457016079416917  0.6204878684247106  1.0000
  C   C80       1.0  0.14502346865504015  0.6544338328989453  0.879549561103424  1.0000
  C   C81       1.0  0.4054286808229079  0.6245759143597454  0.3686960861503934  1.0000
  C   C82       1.0  0.7809310515317945  0.37529744791059727  0.131278257817705  1.0000
  C   C83       1.0  0.5945632046765112  0.37542417765058633  0.6313131690196413  1.0000
  C   C84       1.0  0.2190688638047645  0.6247013405190244  0.8687206892398507  1.0000
  C   C85       1.0  0.6629434747164568  0.7330127258419309  0.44356772424190166  1.0000
  C   C86       1.0  0.9300093384254778  0.2668767284795378  0.05641333481882071  1.0000
  C   C87       1.0  0.33705396469385823  0.26698834517058867  0.5564347203610325  1.0000
  C   C88       1.0  0.06998990489802288  0.7331207168134384  0.9435801995943791  1.0000
  C   C89       1.0  0.704601166651848  0.7957748864598525  0.47914678905945596  1.0000
  C   C90       1.0  0.9090396331058415  0.20411479980560898  0.0208648983404629  1.0000
  C   C91       1.0  0.2953933845163945  0.20422619647252552  0.5208541490645544  1.0000
  C   C92       1.0  0.09095791233924178  0.7958835910241713  0.9791259678284375  1.0000
  C   C93       1.0  0.8090034911768954  0.822742523573531  0.4925359806187544  1.0000
  C   C94       1.0  0.9865868825920426  0.17724425538514774  0.007520526158991512  1.0000
  C   C95       1.0  0.1909915501277339  0.17725809259935937  0.5074655384232472  1.0000
  C   C96       1.0  0.013408247368964527  0.8227550929992659  0.9924661653572926  1.0000
  C   C97       1.0  0.8747582295751641  0.7874345071918679  0.47084045052334017  1.0000
  C   C98       1.0  0.08763088911643992  0.2126602121341676  0.029192385230771816  1.0000
  C   C99       1.0  0.12523558913784427  0.21256655763212953  0.5291627471543093  1.0000
  C   C100      1.0  0.9123664526187196  0.7873377721558866  0.9707915299086736  1.0000
  C   C101      1.0  0.8343880743335744  0.7250420620889456  0.43497887027073995  1.0000
  C   C102      1.0  0.1095578980156091  0.2750605673355651  0.06500035396005188  1.0000
  C   C103      1.0  0.1656079457588716  0.2749576175523457  0.5650241872034413  1.0000
  C   C104      1.0  0.8904403873094893  0.7249378566657042  0.9349863696742344  1.0000
  C   C105      1.0  0.7298614515663714  0.6983597456232006  0.4215082606502635  1.0000
  C   C106      1.0  0.031586601093295  0.301630055450353  0.07842591743501971  1.0000
  C   C107      1.0  0.2701350353442535  0.3016408676023801  0.5784936350350023  1.0000
  C   C108      1.0  0.9684136080945223  0.6983678747431554  0.9215647765300902  1.0000
  C   C109      1.0  0.9859079825522911  0.8163575003581724  0.48657076722441417  1.0000
  C   C110      1.0  0.16989085368656012  0.18379124379884354  0.013467544119258396  1.0000
  C   C111      1.0  0.014086785690494673  0.18364401622752513  0.5134337325632927  1.0000
  C   C112      1.0  0.8301028936394131  0.816205339984151  0.9865181136094135  1.0000
  C   C113      1.0  0.267108746005718  0.8075862649803937  0.4224576470909013  1.0000
  C   C114      1.0  0.4597178019747118  0.19250353879032636  0.07748845338550579  1.0000
  C   C115      1.0  0.7328910552685739  0.1924180826476629  0.577539601485796  1.0000
  C   C116      1.0  0.540273399684544  0.8074865069226717  0.9225057134852648  1.0000
  C   C117      1.0  0.32186855637512907  0.8067937385081972  0.37348540507137773  1.0000
  C   C118      1.0  0.5153993302844312  0.19330700362691286  0.1264132552092576  1.0000
  C   C119      1.0  0.6781360688836245  0.19321012749319516  0.6265143075454984  1.0000
  C   C120      1.0  0.48459552578505327  0.8066816690191699  0.8735792651203268  1.0000
  C   C121      1.0  0.3552147011914356  0.8599755767364097  0.3632385982357888  1.0000
  C   C122      1.0  0.49573863888665665  0.14009314482652255  0.13658106815634596  1.0000
  C   C123      1.0  0.6447911481439023  0.14002784362649828  0.6367590591492416  1.0000
  C   C124      1.0  0.5042590365141065  0.859898271397952  0.8634151221813011  1.0000
  C   C125      1.0  0.40064280099345234  0.8580883835662899  0.31598799363678143  1.0000
  C   C126      1.0  0.5430930812653898  0.1419703294361341  0.1838184284520707  1.0000
  C   C127      1.0  0.5993621251002352  0.1419131907163731  0.6840093511527028  1.0000
  C   C128      1.0  0.45690476308853784  0.8580243181165983  0.8161782147316714  1.0000
  C   C129      1.0  0.4137470057914001  0.8028876680613666  0.27754268533256277  1.0000
  C   C130      1.0  0.6112665815989968  0.1971986422721486  0.22233689710437687  1.0000
  C   C131      1.0  0.5862545959850394  0.19711159927619087  0.7224541744928246  1.0000
  C   C132      1.0  0.38873169586018713  0.8027983181203026  0.77765947775692  1.0000
  C   C133      1.0  0.3823813371273843  0.7501053683783281  0.28886660942271897  1.0000
  C   C134      1.0  0.6325679143308774  0.2500170138513197  0.21106823106408967  1.0000
  C   C135      1.0  0.6176202249963013  0.24989526616418797  0.7111326502539228  1.0000
  C   C136      1.0  0.36742899682781877  0.7499772150785375  0.788922967451441  1.0000
  C   C137      1.0  0.33689342233423514  0.7519742248262133  0.3361560608944316  1.0000
  C   C138      1.0  0.5851497232913088  0.2481512520521747  0.1637890589235838  1.0000
  C   C139      1.0  0.6631097836066503  0.2480282498039515  0.663844264593692  1.0000
  C   C140      1.0  0.414846558035876  0.7518388240156142  0.8362013421499838  1.0000
  C   C141      1.0  0.45723373773770254  0.8005536244586864  0.2261173216685251  1.0000
  C   C142      1.0  0.6569742845220503  0.19946599881200197  0.2737659165395741  1.0000
  C   C143      1.0  0.5427642815092212  0.19944426647278132  0.7738782679765207  1.0000
  C   C144      1.0  0.3430246857396071  0.8005323468937816  0.7262305986193383  1.0000
  C   C145      1.0  0.5343714369808126  0.8513166842846475  0.22570464933800596  1.0000
  C   C146      1.0  0.6833108192360696  0.14867577786031919  0.2741171708313814  1.0000
  C   C147      1.0  0.4656254022971708  0.14868029411821476  0.774289465899045  1.0000
  C   C148      1.0  0.31669084848125095  0.8513207279537479  0.7258782786572623  1.0000
  C   C149      1.0  0.5743756180033799  0.8495504864580993  0.17710502899067398  1.0000
  C   C150      1.0  0.7249478935537822  0.1503371566576774  0.3227072032358294  1.0000
  C   C151      1.0  0.42561885688182594  0.15044465784970376  0.8228872672189808  1.0000
  C   C152      1.0  0.27506026126966526  0.8496607467814526  0.6772868803539325  1.0000
  C   C153      1.0  0.5392589066472341  0.7967732200317457  0.12740778135373895  1.0000
  C   C154      1.0  0.742544386821862  0.2030508397607278  0.37245443463682176  1.0000
  C   C155      1.0  0.4607312210252772  0.2032219120296404  0.8725860210994866  1.0000
  C   C156      1.0  0.25746547181984875  0.7969461301920758  0.627540810812455  1.0000
  C   C157      1.0  0.46256764465309874  0.7459552701412303  0.12740559313148472  1.0000
  C   C158      1.0  0.7166910994110296  0.253891511698363  0.37250053119151966  1.0000
  C   C159      1.0  0.537420771776361  0.2540407803433808  0.8725889304432001  1.0000
  C   C160      1.0  0.2833208991241065  0.7461068436330862  0.627494854602439  1.0000
  C   C161      1.0  0.42197409910791334  0.7478826822081569  0.17601071721664138  1.0000
  C   C162      1.0  0.6742848904654437  0.25206370768740527  0.3239132237643076  1.0000
  C   C163      1.0  0.5780202979567476  0.2521151995221729  0.8239860020993177  1.0000
  C   C164      1.0  0.32572371484163637  0.7479350961971888  0.6760838405946925  1.0000
  C   C165      1.0  0.5821361106883955  0.7950289541585321  0.07486958220575712  1.0000
  C   C166      1.0  0.7871484180571712  0.20477350141223377  0.4250123651004216  1.0000
  C   C167      1.0  0.41785861943915137  0.2049652535850156  0.9251242524125302  1.0000
  C   C168      1.0  0.2128590057960053  0.7952243869311315  0.5749836014467817  1.0000
  C   C169      1.0  0.024772246384976906  0.43838880402699226  0.3033874049287206  1.0000
  C   C170      1.0  0.5863394721516925  0.5615705923848039  0.1967215346642135  1.0000
  C   C171      1.0  0.975226926101641  0.5616099452059018  0.6966164378558445  1.0000
  C   C172      1.0  0.4136750875024618  0.43843143706404675  0.8032767359215497  1.0000
  C   C173      1.0  0.9965247802694249  0.37510478007533976  0.2741508216384574  1.0000
  C   C174      1.0  0.621529675300316  0.6248517010278504  0.22597052129000156  1.0000
  C   C175      1.0  0.003473908020637968  0.6248944479675345  0.7258509338433328  1.0000
  C   C176      1.0  0.3784836662171002  0.37515078610996955  0.7740282981428234  1.0000
  C   C177      1.0  0.9459488457969342  0.3372358814679117  0.3000003899681474  1.0000
  C   C178      1.0  0.6089220846336402  0.6627728881446516  0.2001584024183033  1.0000
  C   C179      1.0  0.05404941384274758  0.6627610427730984  0.7000005040475016  1.0000
  C   C180      1.0  0.3910893137165985  0.3372300536368655  0.7998413424342486  1.0000
  C   C181      1.0  0.9264045282669358  0.36541198919720586  0.35468721551794147  1.0000
  C   C182      1.0  0.5611967125043333  0.6346265815787788  0.14546618092365554  1.0000
  C   C183      1.0  0.07359491282664987  0.6345858505850259  0.6453147763095046  1.0000
  C   C184      1.0  0.43880964583072307  0.3653749626429956  0.8545349298748517  1.0000
  C   C185      1.0  0.9556888213329484  0.4292842471466754  0.38088872310991917  1.0000
  C   C186      1.0  0.5264215710687382  0.5707500133554434  0.11925239941888328  1.0000
  C   C187      1.0  0.04431327904850951  0.5707131229614077  0.6191142263023223  1.0000
  C   C188      1.0  0.4735869564177975  0.42925152795167776  0.8807490880464285  1.0000
  C   C189      1.0  0.9127320340978711  0.27029793770621774  0.27122014594053917  1.0000
  C   C190      1.0  0.642634599009966  0.7297182292311601  0.22899883413650457  1.0000
  C   C191      1.0  0.08726616405579794  0.7297017570961445  0.7287810286232669  1.0000
  C   C192      1.0  0.3573724858404858  0.27028332104850955  0.7710015234931474  1.0000
  C   C193      1.0  0.8443872146688988  0.1579093453303173  0.1457830470225971  1.0000
  C   C194      1.0  0.6859734891259065  0.8420098011147559  0.3545216450243914  1.0000
  C   C195      1.0  0.1556125257746644  0.8420861997205692  0.8542169535736549  1.0000
  C   C196      1.0  0.31404140018010207  0.1579870997763635  0.6454822623021313  1.0000
  C   C197      1.0  0.8049564104711633  0.09109234389249109  0.11646472574956586  1.0000
  C   C198      1.0  0.7133095346728311  0.9088378870604855  0.383829946084191  1.0000
  C   C199      1.0  0.19503922210861896  0.9089036677546075  0.8835346938110149  1.0000
  C   C200      1.0  0.2867002779351608  0.09115898950108199  0.6161769738471463  1.0000
  C   C201      1.0  0.7357944964860649  0.999933392124113  0.032309323275754344  1.0000
  C   C202      1.0  0.7355281836600013  9.962534841889993e-05  0.46792597401213226  1.0000
  C   C203      1.0  0.2641998653807178  6.586584903090039e-05  0.9676886661028659  1.0000
  C   C204      1.0  0.2644695695087479  0.9998977325132473  0.53207848164368  1.0000
  C   C205      1.0  0.7716651254655176  0.0638036009987744  0.05944782852706959  1.0000
  C   C206      1.0  0.7073834067520012  0.9362149575264311  0.4408479068068801  1.0000
  C   C207      1.0  0.22833288041677952  0.9361942628191144  0.9405511504837419  1.0000
  C   C208      1.0  0.292622296507261  0.06378238261873288  0.5591588086849909  1.0000
  C   C209      1.0  0.7622273372997411  0.9888623209779865  0.11376455099567555  1.0000
  C   C210      1.0  0.7728074968425958  0.0110180441643806  0.3863885993845315  1.0000
  C   C211      1.0  0.23775797485693323  0.011131862240070197  0.8862322960862272  1.0000
  C   C212      1.0  0.22719992359954944  0.9889783896080359  0.6136158886010888  1.0000
  C   C213      1.0  0.7990103133518713  0.052039138359269495  0.14387823071248818  1.0000
  C   C214      1.0  0.7463410597282519  0.9478276707085627  0.35635273339441653  1.0000
  C   C215      1.0  0.20097956606196013  0.9479554967837627  0.8561199185971445  1.0000
  C   C216      1.0  0.2536692782140122  0.052167362850695995  0.6436534973922505  1.0000
  N   N1        1.0  0.0037190237364371067  0.46504972487340973  0.3556779449282955  1.0000
  N   N2        1.0  0.5385581150849602  0.5349411245979636  0.14444130082922868  1.0000
  N   N3        1.0  0.9962801502351438  0.5349490273721144  0.6443255212600718  1.0000
  N   N4        1.0  0.46145113891697054  0.46506042276705256  0.8555594334672206  1.0000
  N   N5        1.0  0.9229655503580362  0.24465249646318907  0.21936694593961895  1.0000
  N   N6        1.0  0.6781310178236096  0.7553130242184664  0.2809146443979103  1.0000
  N   N7        1.0  0.07702836652381964  0.7553444245692659  0.7806343245310075  1.0000
  N   N8        1.0  0.3218852778767669  0.24468668947600491  0.7190842711770954  1.0000
  N   N9        1.0  0.8881472847443561  0.18200157354385027  0.19614900995114934  1.0000
  N   N10       1.0  0.7058420887491862  0.8179654511573773  0.30419308946155615  1.0000
  N   N11       1.0  0.111845180591672  0.8179953383854297  0.803853390260997  1.0000
  N   N12       1.0  0.2941741906166441  0.18203422939826908  0.6958099686716109  1.0000
  N   N13       1.0  0.731093567597256  0.9630561745748949  0.05888888725315413  1.0000
  N   N14       1.0  0.7676748468810786  0.0369047190511793  0.4412749213544771  1.0000
  N   N15       1.0  0.2688935940126241  0.03694170682887691  0.941107831827459  1.0000
  N   N16       1.0  0.23232320118276553  0.9630903350412864  0.5587286728587202  1.0000
  O   O1        1.0  0.9859338293383002  0.6662827821920558  0.4809874187038616  1.0000
  O   O2        1.0  0.3194665288536029  0.3336683549025423  0.018952146929862624  1.0000
  O   O3        1.0  0.014060780346035539  0.3337155241537317  0.5190139920643801  1.0000
  O   O4        1.0  0.6805398850276275  0.6663304067073952  0.9810501897052717  1.0000
  O   O5        1.0  0.9671821924339171  0.5651302475817059  0.4580643719115685  1.0000
  O   O6        1.0  0.4021058407348049  0.43480507455902984  0.04190389728163526  1.0000
  O   O7        1.0  0.032813099658177684  0.4348694229890667  0.5419398153276589  1.0000
  O   O8        1.0  0.5978942520235507  0.5651955147288632  0.9581010112908712  1.0000
  O   O9        1.0  0.6329663990442924  0.6771793444884509  0.8712635747845496  1.0000
  O   O10       1.0  0.9559518909890696  0.3228668939838356  0.6286953587098053  1.0000
  O   O11       1.0  0.3670351160018371  0.3228226421959164  0.12873996772432153  1.0000
  O   O12       1.0  0.044042117025398314  0.6771359957994035  0.3713107877132273  1.0000
  O   O13       1.0  0.5997887319792241  0.5730993540363158  0.8359902583535971  1.0000
  O   O14       1.0  0.026714647788111327  0.426969393302592  0.6640126438340559  1.0000
  O   O15       1.0  0.4002216901119838  0.4269030817563361  0.16401496312042235  1.0000
  O   O16       1.0  0.9732933776823672  0.5730325906630469  0.3359912754828258  1.0000
  O   O17       1.0  0.17024319096672264  0.6301022272669741  0.43170517394328556  1.0000
  O   O18       1.0  0.540188999633294  0.3698343921271884  0.06829066304268848  1.0000
  O   O19       1.0  0.8297498397448845  0.3699016020604871  0.5682990574513765  1.0000
  O   O20       1.0  0.45981216161309374  0.6301625473075416  0.9317083480861255  1.0000
  O   O21       1.0  0.19893674639056513  0.5587762293648595  0.35516362025751386  1.0000
  O   O22       1.0  0.6403399009385708  0.44117308350174494  0.14478534312619468  1.0000
  O   O23       1.0  0.801062835441975  0.44122478450583447  0.6448459797437421  1.0000
  O   O24       1.0  0.35965951832177007  0.5588261596368864  0.8552145293981538  1.0000
  O   O25       1.0  0.022001342441996065  0.8737847039580585  0.5173772875322058  1.0000
  O   O26       1.0  0.14856164540577774  0.12635963412732557  0.9826629863590098  1.0000
  O   O27       1.0  0.977993459513712  0.1262154333722023  0.4826263187890376  1.0000
  O   O28       1.0  0.8514306433906993  0.8736383740351028  0.01731791584612814  1.0000
  O   O29       1.0  0.047228757861120074  0.7842484377742167  0.4689894721568706  1.0000
  O   O30       1.0  0.26331317554137  0.21589064622965276  0.03104181853591832  1.0000
  O   O31       1.0  0.9527679446390992  0.2157526060920673  0.5310163617882893  1.0000
  O   O32       1.0  0.7366834918135226  0.7841030948197203  0.9689525970474334  1.0000
  O   O33       1.0  0.2545034984285905  0.8595276488424091  0.4539601928118485  1.0000
  O   O34       1.0  0.39511675995508005  0.1405463533245594  0.046021095558757004  1.0000
  O   O35       1.0  0.7454867059680694  0.14047487038926218  0.5460344833096968  1.0000
  O   O36       1.0  0.6048811899924827  0.8594441654997239  0.9539717374369869  1.0000
  O   O37       1.0  0.23789842150738152  0.7582708316853727  0.4294117498450944  1.0000
  O   O38       1.0  0.4797689998167556  0.24180745536479978  0.07053556668017788  1.0000
  O   O39       1.0  0.7621046892345832  0.24173579276158108  0.5705897496576496  1.0000
  O   O40       1.0  0.5202173278105704  0.7581844180914672  0.9294611721750314  1.0000
  O   O41       1.0  0.6394873015540413  0.8470023009987957  0.07746974455428574  1.0000
  O   O42       1.0  0.7926815118572815  0.15282803623888694  0.4224032157120376  1.0000
  O   O43       1.0  0.3605117698463757  0.1529919069406915  0.9225240902052148  1.0000
  O   O44       1.0  0.20733216272302696  0.8471707769121575  0.5775927190231227  1.0000
  O   O45       1.0  0.5583793228972382  0.7438808478909632  0.03330782870708047  1.0000
  O   O46       1.0  0.814418157729783  0.25590901852275744  0.46660799384191165  1.0000
  O   O47       1.0  0.44161615854888225  0.2561119685793186  0.9666866188530602  1.0000
  O   O48       1.0  0.18558156385044103  0.7440879359097679  0.5333891342588472  1.0000
