data_image0
_chemical_formula_structural       CuH12C14N4O4
_chemical_formula_sum              "Cu1 H12 C14 N4 O4"
_cell_length_a       4.778111611925941
_cell_length_b       7.68287052626494
_cell_length_c       10.27598662339371
_cell_angle_alpha    74.29759130552392
_cell_angle_beta     77.4525975371276
_cell_angle_gamma    84.44114089329535

_space_group_name_H-M_alt    "P 1"
_space_group_IT_number       1

loop_
  _space_group_symop_operation_xyz
  'x, y, z'

loop_
  _atom_site_type_symbol
  _atom_site_label
  _atom_site_symmetry_multiplicity
  _atom_site_fract_x
  _atom_site_fract_y
  _atom_site_fract_z
  _atom_site_occupancy
  Cu  Cu1       1.0  5.3567873686498554e-08  0.9999968317680796  2.6596193123575746e-06  1.0000
  H   H1        1.0  0.5487867976877396  0.7459116456216819  0.03920399011727232  1.0000
  H   H2        1.0  0.451208107764387  0.2540905471918933  0.9607957351514215  1.0000
  H   H3        1.0  0.8900342605399559  0.6246293000970765  0.8592101270525774  1.0000
  H   H4        1.0  0.10996880276025683  0.3753783254777687  0.140785695040563  1.0000
  H   H5        1.0  0.7100234666495951  0.7769181019217868  0.6130918765171032  1.0000
  H   H6        1.0  0.2899753908279195  0.22308815631155451  0.3869036893298556  1.0000
  H   H7        1.0  0.2241368509652162  0.9827544651914977  0.6890536302958096  1.0000
  H   H8        1.0  0.7758557839692202  0.0172490705938984  0.3109441118526348  1.0000
  H   H9        1.0  0.3202096777442662  0.5989670592423408  0.6246286170925186  1.0000
  H   H10       1.0  0.6798031795938969  0.40102436101390276  0.3753733767696801  1.0000
  H   H11       1.0  0.7177865522248866  0.22495111347395638  0.6172526438737904  1.0000
  H   H12       1.0  0.2822111369493925  0.7750429747248332  0.38275233433150657  1.0000
  C   C1        1.0  0.708854648617006  0.7161308339361198  0.836777185702779  1.0000
  C   C2        1.0  0.2911442902758523  0.28387406909035207  0.1632176744705944  1.0000
  C   C3        1.0  0.6142263087589442  0.7954043191487159  0.7143111554496214  1.0000
  C   C4        1.0  0.3857682103873756  0.2046032862686927  0.2856875078366912  1.0000
  C   C5        1.0  0.3694073396073776  0.9011598993094481  0.7511779272402846  1.0000
  C   C6        1.0  0.6305877438365428  0.09883958514629398  0.24882135785042436  1.0000
  C   C7        1.0  0.05408536188860321  0.29987062313478663  0.7768684858018844  1.0000
  C   C8        1.0  0.9459142625906977  0.7001261753773205  0.22313476552933056  1.0000
  C   C9        1.0  0.022305794021441703  0.4027730180907696  0.6339937364573984  1.0000
  C   C10       1.0  0.9776916716777253  0.5972237722981076  0.3660087684183466  1.0000
  C   C11       1.0  0.1804304628225069  0.5578824335646075  0.5685688107795599  1.0000
  C   C12       1.0  0.8195756379971826  0.4421143893171831  0.431436679918086  1.0000
  C   C13       1.0  0.8411871171264094  0.34496699269765674  0.5646731511453568  1.0000
  C   C14       1.0  0.15881234452219672  0.6550325162281964  0.43533151153302896  1.0000
  N   N1        1.0  0.3181792436989427  0.8879804399860374  0.8876228228457419  1.0000
  N   N2        1.0  0.6818158549060911  0.11201904652561721  0.11237743341415299  1.0000
  N   N3        1.0  0.5263154731933711  0.7742217385514464  0.9376545984211474  1.0000
  N   N4        1.0  0.4736878646750995  0.22578182551460196  0.06234104898959457  1.0000
  O   O1        1.0  0.9008384725771209  0.1577739061461756  0.8298566099835724  1.0000
  O   O2        1.0  0.09915899312205309  0.8422228842427019  0.1701458948921655  1.0000
  O   O3        1.0  0.22259877430811778  0.35248355104476997  0.8352963664537043  1.0000
  O   O4        1.0  0.7774052188245835  0.6475119043950884  0.16470572977651435  1.0000
