data_image0
_chemical_formula_structural       Al6H73C95N7O32
_chemical_formula_sum              "Al6 H73 C95 N7 O32"
_cell_length_a       12.368354431263308
_cell_length_b       12.61079586633625
_cell_length_c       27.823361388463297
_cell_angle_alpha    89.12427566713188
_cell_angle_beta     90.45605369984052
_cell_angle_gamma    120.81433355527373

_space_group_name_H-M_alt    "P 1"
_space_group_IT_number       1

loop_
  _space_group_symop_operation_xyz
  'x, y, z'

loop_
  _atom_site_type_symbol
  _atom_site_label
  _atom_site_symmetry_multiplicity
  _atom_site_fract_x
  _atom_site_fract_y
  _atom_site_fract_z
  _atom_site_occupancy
  Al  Al1       1.0  0.19778301258148895  0.5996270799869947  0.49290704042830663  1.0000
  Al  Al2       1.0  0.9342564648149434  0.591354210853595  0.4981119019026038  1.0000
  Al  Al3       1.0  0.9272238672507955  0.3503896549276106  0.4989405177288901  1.0000
  Al  Al4       1.0  0.1680332226167778  0.0811274061525751  0.9866992261869212  1.0000
  Al  Al5       1.0  0.4286865756269905  0.3374865580911148  0.9849978651675498  1.0000
  Al  Al6       1.0  0.4360292473814554  0.10292253856110992  0.9855574723406517  1.0000
  H   H1        1.0  0.624055019137252  0.50663788850283  0.22100385829144636  1.0000
  H   H2        1.0  0.8075278777292353  0.570994846541801  0.7181835388476684  1.0000
  H   H3        1.0  0.5681934811409236  0.4455788651099652  0.863836612257117  1.0000
  H   H4        1.0  0.6296110249035466  0.17590142251972907  0.7125823172434024  1.0000
  H   H5        1.0  0.31405964286874877  0.5042540171243387  0.6216739029810866  1.0000
  H   H6        1.0  0.2925659695171348  0.5322786761122983  0.7795309008999992  1.0000
  H   H7        1.0  0.3507588691878781  0.5164413171437304  0.864208068382581  1.0000
  H   H8        1.0  0.8381106355663019  0.5331945351190583  0.27089728300820326  1.0000
  H   H9        1.0  0.3325537045080935  0.4821443019692211  0.7097309540687249  1.0000
  H   H10       1.0  0.07147412765795019  0.13072433860619265  0.8662406115379042  1.0000
  H   H11       1.0  0.9314277864557496  0.23673822786226847  0.7189418612885701  1.0000
  H   H12       1.0  0.23505518309301007  0.5480225312209867  0.2067682019965602  1.0000
  H   H13       1.0  0.9162004245737453  0.2512465333851921  0.6303463746064465  1.0000
  H   H14       1.0  0.255404083479135  0.6901351130710366  0.6241367232202889  1.0000
  H   H15       1.0  0.23949013789508203  0.04280854150685091  0.7473522624203  1.0000
  H   H16       1.0  0.2716578068503566  0.11276011909710348  0.8317009834433902  1.0000
  H   H17       1.0  0.2832409503040125  0.7301295006346108  0.7122666720004105  1.0000
  H   H18       1.0  0.838034507092523  0.3546291315806016  0.2105230287719877  1.0000
  H   H19       1.0  0.214077052977359  0.7600940609230022  0.8777618218824513  1.0000
  H   H20       1.0  0.075809230389396  0.9177733773921305  0.7003352865948428  1.0000
  H   H21       1.0  0.46506574219856844  0.14012244792397147  0.2263803283002872  1.0000
  H   H22       1.0  0.9704338729107747  0.1896659769936591  0.20183303172093758  1.0000
  H   H23       1.0  0.3668345762497225  0.4941257553356806  0.2779937367130784  1.0000
  H   H24       1.0  0.10407472567119672  0.13551308878210483  0.2718508915260642  1.0000
  H   H25       1.0  0.00548543846331021  0.3906745953645795  0.2578091542460896  1.0000
  H   H26       1.0  0.3506070492546201  0.6793010869074505  0.2742438739731128  1.0000
  H   H27       1.0  0.45540918134560116  0.8417916643525841  0.2804498080582505  1.0000
  H   H28       1.0  0.4990338431477212  0.7542582736032982  0.24336303979829668  1.0000
  H   H29       1.0  0.9139152189647106  0.6602623636362424  0.1629425422788131  1.0000
  H   H30       1.0  0.06390010215385179  0.6059773243116594  0.1263942348226621  1.0000
  H   H31       1.0  0.9042040304691387  0.4824620599326792  0.13261967894311508  1.0000
  H   H32       1.0  0.020022111294984785  0.4985584845251339  0.1750750948868856  1.0000
  H   H33       1.0  0.9358385646611184  0.7994519580270207  0.2930170822474735  1.0000
  H   H34       1.0  0.32967038380448344  0.2907380943006785  0.22250511341538728  1.0000
  H   H35       1.0  0.7887580713745237  0.822887318297809  0.24487132131832104  1.0000
  H   H36       1.0  0.7925538560268138  0.693214973811685  0.2220563187442437  1.0000
  H   H37       1.0  0.8782182853492203  0.8402451713805023  0.19286304644916186  1.0000
  H   H38       1.0  0.30103141959966007  0.09271876749141231  0.19075179457286848  1.0000
  H   H39       1.0  0.1608998119186467  0.1281192848420503  0.1508828978208712  1.0000
  H   H40       1.0  0.03529698089528209  0.019877179368208396  0.18796327275039457  1.0000
  H   H41       1.0  0.09358601463178923  0.9687711881082207  0.1402762860210842  1.0000
  H   H42       1.0  0.8677235219618069  0.19299888317612357  0.8381604680614314  1.0000
  H   H43       1.0  0.711094172296299  0.0654682587791768  0.827668620863342  1.0000
  H   H44       1.0  0.7895385403344692  0.0756171489899202  0.8835155188216106  1.0000
  H   H45       1.0  0.3447250606498786  0.9694237609972309  0.2767200028967451  1.0000
  H   H46       1.0  0.5811448092595269  0.5443819441955924  0.7955545642684284  1.0000
  H   H47       1.0  0.5124581688854093  0.5263262381201912  0.7140848627594707  1.0000
  H   H48       1.0  0.4200089343523814  0.3820088300285391  0.7456434354476968  1.0000
  H   H49       1.0  0.5434230221609655  0.4061580694750689  0.70596636768569  1.0000
  H   H50       1.0  0.5151159122476869  0.02867199700843061  0.6575086400831509  1.0000
  H   H51       1.0  0.6678175757695328  0.0481919600055107  0.668712494990359  1.0000
  H   H52       1.0  0.5888886847356646  0.9861968176788737  0.6126953355358182  1.0000
  H   H53       1.0  0.997625288298984  0.12256360588364149  0.7389023842233655  1.0000
  H   H54       1.0  0.8786127264158523  0.9283616877093549  0.7710964759500882  1.0000
  H   H55       1.0  0.888758130832663  0.9881191597409894  0.8293579047907043  1.0000
  H   H56       1.0  0.11785748343350379  0.6038724435480489  0.26082141113182894  1.0000
  H   H57       1.0  0.014465216977633748  0.9722172967829511  0.8074839997591852  1.0000
  H   H58       1.0  0.1670535734405902  0.6164895634817213  0.825049617992036  1.0000
  H   H59       1.0  0.02494124007593971  0.4771717644527129  0.772900166349153  1.0000
  H   H60       1.0  0.04339474402138417  0.59337873536019  0.7316189780335521  1.0000
  H   H61       1.0  0.9594261994498509  0.5706501235861623  0.7864200346378851  1.0000
  H   H62       1.0  0.07909858684791969  0.0483960795410354  0.6412178867995448  1.0000
  H   H63       1.0  0.9262385882830486  0.914647871034056  0.6526388547143539  1.0000
  H   H64       1.0  0.9608404874690422  0.9920534268089154  0.595222871702873  1.0000
  H   H65       1.0  0.6508804729143661  0.11326163237434628  0.3130500788127221  1.0000
  H   H66       1.0  0.7115593720438727  0.0018822157390375048  0.2627663242698048  1.0000
  H   H67       1.0  0.8458106148693574  0.5836661046202636  0.6299310827463955  1.0000
  H   H68       1.0  0.7557050630758227  0.1166440189314457  0.2170817479227765  1.0000
  H   H69       1.0  0.5935310114256326  0.012716036004818  0.2290175519001778  1.0000
  H   H70       1.0  0.46643052222206904  0.3188056074069224  0.28768125146465445  1.0000
  H   H71       1.0  0.7616705332421888  0.2375843145754573  0.7830877772230379  1.0000
  H   H72       1.0  0.4073238423160177  0.7435212818898691  0.510996739032727  1.0000
  H   H73       1.0  0.960286301065814  0.03123516156322379  0.9736981670817639  1.0000
  C   C1        1.0  0.09702073890340292  0.7177441322209573  0.4230948210712313  1.0000
  C   C2        1.0  0.6861126937088357  0.3503569242739956  0.3480904329071847  1.0000
  C   C3        1.0  0.1321247424087986  0.22724229528777332  0.257551974556705  1.0000
  C   C4        1.0  0.7700147337199114  0.39074090181794935  0.43689268788863694  1.0000
  C   C5        1.0  0.058253964525540845  0.25719536601214077  0.21916954955543838  1.0000
  C   C6        1.0  0.22380771039781416  0.3297488314606341  0.0991355603741511  1.0000
  C   C7        1.0  0.11822976913008176  0.34960317098187227  0.3814950649847191  1.0000
  C   C8        1.0  0.25833591864882516  0.3140744121690203  0.2308696537563506  1.0000
  C   C9        1.0  0.18501249145725043  0.3443058273133844  0.1909635560559337  1.0000
  C   C10       1.0  0.27898223569884095  0.42683917651329745  0.2605653586899308  1.0000
  C   C11       1.0  0.15227896984571032  0.3400786148513433  0.2887793437399182  1.0000
  C   C12       1.0  0.7092264184160157  0.3624644084761712  0.3910430135351248  1.0000
  C   C13       1.0  0.20518326150801866  0.45675663556445295  0.22206588758785983  1.0000
  C   C14       1.0  0.0785638548195635  0.3698350952553043  0.24899409992440263  1.0000
  C   C15       1.0  0.2058553667967331  0.3421436451299016  0.1412000076373161  1.0000
  C   C16       1.0  0.09986965891419426  0.3803772045993199  0.4290797557668852  1.0000
  C   C17       1.0  0.13330152862800299  0.341846778483017  0.3387209647527527  1.0000
  C   C18       1.0  0.2655020979601447  0.8984175538680507  0.2562139466129878  1.0000
  C   C19       1.0  0.2651614933976489  0.7972712616082732  0.2234765341807972  1.0000
  C   C20       1.0  0.23044931510515443  0.8734473321299915  0.0917618216007554  1.0000
  C   C21       1.0  0.10946520425185459  0.7595358421285353  0.3738816739155339  1.0000
  C   C22       1.0  0.18755915540342014  0.9227915312211222  0.21810014470305106  1.0000
  C   C23       1.0  0.5478041489441593  0.2273675324321758  0.23672828100361437  1.0000
  C   C24       1.0  0.1901558570848748  0.8197695468178805  0.18341387745670795  1.0000
  C   C25       1.0  0.05924806813311516  0.817996676598085  0.24180535937300357  1.0000
  C   C26       1.0  0.13967292938760761  0.7950261946980316  0.2803705818686026  1.0000
  C   C27       1.0  0.06029263047859243  0.7168231779613734  0.20820953952889448  1.0000
  C   C28       1.0  0.12560374839259222  0.7356708165056459  0.5618916206581943  1.0000
  C   C29       1.0  0.13836935862460809  0.6939202134533103  0.24713643425442194  1.0000
  C   C30       1.0  0.21428353877144696  0.8432256783141979  0.1343018240407901  1.0000
  C   C31       1.0  0.11920990565516121  0.7778855127023407  0.3305022937325575  1.0000
  C   C32       1.0  0.7609013878551636  0.3887624231752084  0.6209588156424317  1.0000
  C   C33       1.0  0.7981522831263137  0.49451492673220804  0.6485501276571596  1.0000
  C   C34       1.0  0.6374270174181476  0.3324402419333268  0.1997625154139797  1.0000
  C   C35       1.0  0.7781989831204825  0.48763820324828794  0.6977631512677502  1.0000
  C   C36       1.0  0.7174579650842787  0.37198373377020744  0.7212584801924534  1.0000
  C   C37       1.0  0.6798981610999063  0.2653057988873044  0.6943590695219369  1.0000
  C   C38       1.0  0.700990093382579  0.2718956460600452  0.6446894316206622  1.0000
  C   C39       1.0  0.7181693897199396  0.2822788561716507  0.8011851512034625  1.0000
  C   C40       1.0  0.7980768055703609  0.4081349382649718  0.5696133912012015  1.0000
  C   C41       1.0  0.6954593311020433  0.264424129337428  0.8506787315477027  1.0000
  C   C42       1.0  0.6148756357490938  0.40353124720999733  0.8458712777405423  1.0000
  C   C43       1.0  0.6381545037633388  0.4225414565594151  0.7965137048552506  1.0000
  C   C44       1.0  0.6908188010108914  0.359748450433642  0.7735327549935745  1.0000
  C   C45       1.0  0.6685484355836522  0.24253100948041606  0.2642905694582538  1.0000
  C   C46       1.0  0.6407324352315414  0.3255309916827969  0.8735669118271118  1.0000
  C   C47       1.0  0.11481080205679457  0.37513735463993203  0.620519426435976  1.0000
  C   C48       1.0  0.23155488764459883  0.4433646880672342  0.6433790334850896  1.0000
  C   C49       1.0  0.2409856251323959  0.4314538541441451  0.6925973130537812  1.0000
  C   C50       1.0  0.13505421048002827  0.35315811043078327  0.7211127884767735  1.0000
  C   C51       1.0  0.017126768644253307  0.2902770991631911  0.6978298895553221  1.0000
  C   C52       1.0  0.10342922546951167  0.3931557909840677  0.568207396837785  1.0000
  C   C53       1.0  0.007442383449756554  0.29964345865369774  0.6482016229127794  1.0000
  C   C54       1.0  0.24559887010710926  0.44313350993569867  0.7981965444837937  1.0000
  C   C55       1.0  0.2773025080436682  0.4358266240118381  0.8457019839983957  1.0000
  C   C56       1.0  0.6667149125581063  0.3412240498517889  0.2980204043336911  1.0000
  C   C57       1.0  0.11757265452618533  0.2179910579216795  0.8464044866803775  1.0000
  C   C58       1.0  0.08744254781728238  0.2236930244973649  0.7978741536255852  1.0000
  C   C59       1.0  0.15321030653184664  0.3399960459042006  0.7729777791223426  1.0000
  C   C60       1.0  0.2122611801019687  0.3215767145184572  0.8698017799366724  1.0000
  C   C61       1.0  0.15010010179489097  0.7794198742776431  0.6123040394292758  1.0000
  C   C62       1.0  0.21764024928005196  0.741344738757867  0.6413879856870393  1.0000
  C   C63       1.0  0.23321393948194913  0.7637330234841073  0.6904274749681463  1.0000
  C   C64       1.0  0.5483559680594041  0.3264734203743346  0.2696783781097949  1.0000
  C   C65       1.0  0.1817561467165446  0.8278356647634837  0.7122483796146071  1.0000
  C   C66       1.0  0.11629366702479862  0.868866607460802  0.6833497233191039  1.0000
  C   C67       1.0  0.7558411248856559  0.3473210094316527  0.2279724838219721  1.0000
  C   C68       1.0  0.10038806767614258  0.8465077653090207  0.6339144444717917  1.0000
  C   C69       1.0  0.23034331048174278  0.9793067927305188  0.7762616713525856  1.0000
  C   C70       1.0  0.2511498819960352  0.020140819178671204  0.8233289998605497  1.0000
  C   C71       1.0  0.2201462491945277  0.8224433923277201  0.8488201103609183  1.0000
  C   C72       1.0  0.19272619221253948  0.7780138394940862  0.8014665691734065  1.0000
  C   C73       1.0  0.1999490555920004  0.8592537148433763  0.763893810393469  1.0000
  C   C74       1.0  0.24633332378682823  0.9403818932345442  0.8599861894668237  1.0000
  C   C75       1.0  0.2467903909082239  0.2920015605170789  0.0537026220157628  1.0000
  C   C76       1.0  0.6370254059409888  0.43151538933906153  0.23381343004249536  1.0000
  C   C77       1.0  0.5643819652377574  0.2938724184434278  0.05682417334165279  1.0000
  C   C78       1.0  0.7552740813485387  0.4461911671626242  0.2606292861191761  1.0000
  C   C79       1.0  0.2581639542365507  0.9381423628200307  0.046889678169165394  1.0000
  C   C80       1.0  0.24793365216032023  0.3028030962446309  0.9190971527066336  1.0000
  C   C81       1.0  0.589384030145922  0.2969915383751172  0.9229491435520245  1.0000
  C   C82       1.0  0.26258173636174575  0.982703766526626  0.9108150719548646  1.0000
  C   C83       1.0  0.6065875965728083  0.3161089444504626  0.10584373046444279  1.0000
  C   C84       1.0  0.4205994812730793  0.7642147510432339  0.2553951697198329  1.0000
  C   C85       1.0  0.9882935517694593  0.5495060798146412  0.15238580917115738  1.0000
  C   C86       1.0  0.8491607283789762  0.7935933321223202  0.22805825508150687  1.0000
  C   C87       1.0  0.1201688735183879  0.0377583428332073  0.16867456929424654  1.0000
  C   C88       1.0  0.7763701178827277  0.12875306439498502  0.8549948921563766  1.0000
  C   C89       1.0  0.6222609134346442  0.3249711497628667  0.1492936852388311  1.0000
  C   C90       1.0  0.5153286268672446  0.4503614095169794  0.732617621468364  1.0000
  C   C91       1.0  0.605513656628709  0.0520867671915823  0.641066759671638  1.0000
  C   C92       1.0  0.943329678971047  0.9961440793453562  0.7970692004987611  1.0000
  C   C93       1.0  0.04030363237761489  0.5706870694438352  0.769912030518384  1.0000
  C   C94       1.0  0.9998070227826407  0.9650872264611652  0.6252413424641501  1.0000
  C   C95       1.0  0.6873302229193856  0.06628867067683329  0.2459589881774704  1.0000
  N   N1        1.0  0.9561945917861578  0.623199464976537  0.18303142496171176  1.0000
  N   N2        1.0  0.958966191271081  0.8302833244842486  0.2584241571839598  1.0000
  N   N3        1.0  0.2112835929824968  0.0390822369256583  0.20322922509512859  1.0000
  N   N4        1.0  0.6077322445610633  0.501893879371039  0.7715203782538891  1.0000
  N   N5        1.0  0.9976886059863476  0.11820540235989091  0.7752903392162693  1.0000
  N   N6        1.0  0.15937819436054917  0.6552981207775375  0.7938419245010165  1.0000
  N   N7        1.0  0.6962388961876373  0.15394458366257166  0.28166622726593  1.0000
  O   O1        1.0  0.18406379639985454  0.483877557277431  0.4447358714556984  1.0000
  O   O2        1.0  0.5473877628528854  0.19517961174280168  0.0377181681568501  1.0000
  O   O3        1.0  0.3681070278185529  0.9738575984194568  0.028779098241045593  1.0000
  O   O4        1.0  0.18079303876395866  0.6976847753780292  0.43906357449260713  1.0000
  O   O5        1.0  0.18322500054817684  0.008774867419852202  0.9261422208013386  1.0000
  O   O6        1.0  0.1687931212901859  0.2099103397549342  0.9432801262289202  1.0000
  O   O7        1.0  0.3616033431064167  0.38038135065758627  0.9329202099068465  1.0000
  O   O8        1.0  0.5606694844482475  0.37140077784024333  0.9419795848011175  1.0000
  O   O9        1.0  0.5662290661707488  0.19495572486717086  0.942746965519923  1.0000
  O   O10       1.0  0.356975926420823  0.9924266291109091  0.9344064988164431  1.0000
  O   O11       1.0  0.34599400163892824  0.17506786387075826  0.9858086215228852  1.0000
  O   O12       1.0  0.8240047864703757  0.5117296526266557  0.550388193615774  1.0000
  O   O13       1.0  0.9983887823814116  0.7000188373188082  0.4458961945446873  1.0000
  O   O14       1.0  0.7977371272207211  0.4931937979645369  0.45601138695214855  1.0000
  O   O15       1.0  0.7988466463618237  0.3133426534388235  0.4538768792417045  1.0000
  O   O16       1.0  0.9971216890219454  0.3025889958451558  0.4509369845363266  1.0000
  O   O17       1.0  0.18809017304633355  0.49150520541813586  0.5486086399734872  1.0000
  O   O18       1.0  0.20273045932484726  0.7108561485625629  0.5429012094857626  1.0000
  O   O19       1.0  0.023527439400019896  0.7173000817407242  0.5415338242803003  1.0000
  O   O20       1.0  0.3678904076789422  0.7863598101090902  0.2129896075906501  1.0000
  O   O21       1.0  0.7249333641131058  0.19315178236489317  0.8782469606461873  1.0000
  O   O22       1.0  0.6643839009978691  0.17032631189066902  0.6176329379432417  1.0000
  O   O23       1.0  0.8110779887688865  0.3265527388380889  0.5481253018249745  1.0000
  O   O24       1.0  0.04054585721628693  0.8880644375269068  0.6049496679574202  1.0000
  O   O25       1.0  0.003467551380843805  0.3083270763262718  0.5470254361050592  1.0000
  O   O26       1.0  0.018405441468971148  0.5130917783735427  0.4963770095502581  1.0000
  O   O27       1.0  0.17719955664809112  0.9606086691309559  0.0290612950553708  1.0000
  O   O28       1.0  0.17809937804143058  0.1786973651426109  0.043962418525019586  1.0000
  O   O29       1.0  0.3375944663398372  0.3748247829301904  0.0276178836664229  1.0000
  O   O30       1.0  0.5412561380121872  0.3726620548193154  0.03694364983190469  1.0000
  O   O31       1.0  0.36238531721978956  0.6759517107572319  0.4890342879644791  1.0000
  O   O32       1.0  0.0030721883186471247  0.9920590992166536  0.9876667464854023  1.0000
