data_image0
_chemical_formula_structural       Zr12H8C96S24Br24O64
_chemical_formula_sum              "Zr12 H8 C96 S24 Br24 O64"
_cell_length_a       16.502822938325902
_cell_length_b       16.50066817440611
_cell_length_c       23.279129964245612
_cell_angle_alpha    89.99065813678982
_cell_angle_beta     90.00833499047567
_cell_angle_gamma    89.9989218201719

_space_group_name_H-M_alt    "P 1"
_space_group_IT_number       1

loop_
  _space_group_symop_operation_xyz
  'x, y, z'

loop_
  _atom_site_type_symbol
  _atom_site_label
  _atom_site_symmetry_multiplicity
  _atom_site_fract_x
  _atom_site_fract_y
  _atom_site_fract_z
  _atom_site_occupancy
  Zr  Zr1       1.0  0.39240690792274074  0.39253706928395354  0.4973009517987705  1.0000
  Zr  Zr2       1.0  0.607485007966538  0.6075129886542924  0.502711343940426  1.0000
  Zr  Zr3       1.0  0.49725685154756133  0.49714645538427493  0.6072434312137319  1.0000
  Zr  Zr4       1.0  0.5027623161338395  0.5027914849293039  0.3927667297053716  1.0000
  Zr  Zr5       1.0  0.3926796631199848  0.6073195738978043  0.5000008730052059  1.0000
  Zr  Zr6       1.0  0.6072752715694348  0.3926759415856651  0.4999994011874662  1.0000
  Zr  Zr7       1.0  0.10545661444429297  0.8904823383076277  4.4260234297199995e-05  1.0000
  Zr  Zr8       1.0  0.8946065245473135  0.10953319835513751  2.3023675311200016e-05  1.0000
  Zr  Zr9       1.0  0.10947748419381749  0.10532110709672078  0.0022917457313127  1.0000
  Zr  Zr10      1.0  0.8905241016482677  0.894710778176119  0.9976385089671851  1.0000
  Zr  Zr11      1.0  0.9976479103930275  0.9976202856926409  0.1072053229638357  1.0000
  Zr  Zr12      1.0  0.0024039766173799986  0.0023606850506255  0.892785936108119  1.0000
  H   H1        1.0  0.3293430474794903  0.4977599355885048  0.5826483434528313  1.0000
  H   H2        1.0  0.5020082426647646  0.6706364053536119  0.417386362772909  1.0000
  H   H3        1.0  0.6670607986242557  0.4977884512521128  0.5863308291627121  1.0000
  H   H4        1.0  0.5020952685348803  0.3328874760281765  0.41369094081115065  1.0000
  H   H5        1.0  0.16736173804627438  0.995405792542954  0.0859608443726358  1.0000
  H   H6        1.0  0.8295938334834361  0.0011807852930730003  0.0827953427704742  1.0000
  H   H7        1.0  0.0046978263588429  0.17031955542329774  0.9170246916656666  1.0000
  H   H8        1.0  0.9990514468482627  0.8327485887841134  0.9137978928724378  1.0000
  C   C1        1.0  0.22764652339236588  0.5025162829003378  0.4947207279418251  1.0000
  C   C2        1.0  0.49755888291522876  0.7723355481400207  0.5051988398215315  1.0000
  C   C3        1.0  0.7722701923668392  0.4974702651587109  0.4989519886958078  1.0000
  C   C4        1.0  0.5024506306610234  0.22773438680618344  0.501126411576486  1.0000
  C   C5        1.0  0.36290429520990836  0.3562039279030175  0.631839632566134  1.0000
  C   C6        1.0  0.3634611140669008  0.36994182580843227  0.361080036603127  1.0000
  C   C7        1.0  0.6429993725771225  0.6378160185957924  0.3681376666467457  1.0000
  C   C8        1.0  0.6303336066077064  0.63623591895238  0.6389431897472946  1.0000
  C   C9        1.0  0.36513518388130706  0.6349192664323198  0.637286927504114  1.0000
  C   C10       1.0  0.6291035218692683  0.3590679568176611  0.6372318214783945  1.0000
  C   C11       1.0  0.6407005158433918  0.3708395886053779  0.3627833369511606  1.0000
  C   C12       1.0  0.36532815611379726  0.635136345406309  0.3626349062221906  1.0000
  C   C13       1.0  0.12815012491463307  0.8576410249017813  0.136895652883247  1.0000
  C   C14       1.0  0.8667147984007073  0.137167475523043  0.1369851630173784  1.0000
  C   C15       1.0  0.8659676773442796  0.13632873561248002  0.8630466763782252  1.0000
  C   C16       1.0  0.13948509133729195  0.8688477155368942  0.8632049552532096  1.0000
  C   C17       1.0  0.27236843175285225  0.9940197232258258  0.9987457285097179  1.0000
  C   C18       1.0  0.9950842145274164  0.7277156040593838  0.0009040763553543001  1.0000
  C   C19       1.0  0.7276655225971281  0.0059788909142924  0.9951250324473336  1.0000
  C   C20       1.0  0.0048026226409518995  0.27223861606476146  0.005367471715835801  1.0000
  C   C21       1.0  0.13215341327116187  0.13463185620985033  0.1388517396836022  1.0000
  C   C22       1.0  0.14471756574619118  0.1339806161574799  0.8670488876549101  1.0000
  C   C23       1.0  0.8620915313824326  0.8712083280557862  0.8611208401641973  1.0000
  C   C24       1.0  0.8607201173650549  0.8603762914798594  0.13292235413264564  1.0000
  C   C25       1.0  0.9149377321345395  0.4311724264694234  0.49709239123644267  1.0000
  C   C26       1.0  0.08495589697773907  0.5686584398045156  0.49597893614500066  1.0000
  C   C27       1.0  0.8612693781457494  0.49627691021606785  0.4975446491426965  1.0000
  C   C28       1.0  0.1386272315843939  0.5035855247256932  0.4950507137627014  1.0000
  C   C29       1.0  0.0034477432976273994  0.5423450336095001  0.4967404583751218  1.0000
  C   C30       1.0  0.9964725685985059  0.45743975096183936  0.4965280453587582  1.0000
  C   C31       1.0  0.43138631278532097  0.9150056855669249  0.5039852626626669  1.0000
  C   C32       1.0  0.5687923207027337  0.08509084811302611  0.5029065978497655  1.0000
  C   C33       1.0  0.49647577234426155  0.8613598705016231  0.5048676039472184  1.0000
  C   C34       1.0  0.5036726124430615  0.13873539627410028  0.50250279530362  1.0000
  C   C35       1.0  0.542556420241226  0.0035343350321355  0.5034494910707537  1.0000
  C   C36       1.0  0.4576627959731566  0.9965367634032064  0.5032804253663626  1.0000
  C   C37       1.0  0.6596748794491416  0.31188001456475684  0.7413220548978288  1.0000
  C   C38       1.0  0.8338232837207114  0.1822482409842863  0.7591145166060186  1.0000
  C   C39       1.0  0.6727544346083788  0.31469263450655666  0.6823164950179077  1.0000
  C   C40       1.0  0.8205146766687789  0.17906473323216693  0.8180844318309396  1.0000
  C   C41       1.0  0.775009404198279  0.23027856922917783  0.7310337819999191  1.0000
  C   C42       1.0  0.7181324552382192  0.26334305005314473  0.7693460972282152  1.0000
  C   C43       1.0  0.33419146137008937  0.6822473040416028  0.25873881344750066  1.0000
  C   C44       1.0  0.15985037386145248  0.8116730169319838  0.24103527455051926  1.0000
  C   C45       1.0  0.3206689512998365  0.6787262400234442  0.3176756602906252  1.0000
  C   C46       1.0  0.17259059194790888  0.8141056607984752  0.1819833256242163  1.0000
  C   C47       1.0  0.21854972363149727  0.7634281596271821  0.2690584533449965  1.0000
  C   C48       1.0  0.2754121258283461  0.7303921665937309  0.23071177017760652  1.0000
  C   C49       1.0  0.31824449062025206  0.6660192105584956  0.741169331870246  1.0000
  C   C50       1.0  0.18806576387721918  0.839795568586979  0.7591730296808946  1.0000
  C   C51       1.0  0.3219685846598778  0.6799053959262623  0.6822825007879061  1.0000
  C   C52       1.0  0.18462707960193103  0.825999674412543  0.8181075524544285  1.0000
  C   C53       1.0  0.23703383263212163  0.7817522116560768  0.7310545691306488  1.0000
  C   C54       1.0  0.2698714638378306  0.7245383038592478  0.7692560075007081  1.0000
  C   C55       1.0  0.6876093546148353  0.34042691919502494  0.2586405748536578  1.0000
  C   C56       1.0  0.8178365654921433  0.16665600647485948  0.24071119471967958  1.0000
  C   C57       1.0  0.6845978699907602  0.3269346418506417  0.3176030241262779  1.0000
  C   C58       1.0  0.8222253968759005  0.18102700642032232  0.18189396014481224  1.0000
  C   C59       1.0  0.7689575630386328  0.22480906444639712  0.2687484649275476  1.0000
  C   C60       1.0  0.7361835564384762  0.2820641826407666  0.2305423021954454  1.0000
  C   C61       1.0  0.7491694597723607  0.7397500611742914  0.3279888475891823  1.0000
  C   C62       1.0  0.7530866880393176  0.7607014920829869  0.1737054413102115  1.0000
  C   C63       1.0  0.6872674223870517  0.6828534368962805  0.32374393696246534  1.0000
  C   C64       1.0  0.8161085199304452  0.8163497003002078  0.1777004723296827  1.0000
  C   C65       1.0  0.728930643337854  0.7325656479870234  0.22841662801719312  1.0000
  C   C66       1.0  0.7734703301082958  0.7680374091630213  0.2733103068709966  1.0000
  C   C67       1.0  0.2574044033204074  0.2536226315463779  0.6719966853229238  1.0000
  C   C68       1.0  0.252684283928744  0.23341965280501142  0.8263663504763913  1.0000
  C   C69       1.0  0.31950701493298067  0.3103119890046814  0.6762467730765422  1.0000
  C   C70       1.0  0.19017145476266248  0.17719995505041913  0.8223082319710713  1.0000
  C   C71       1.0  0.2770421118465336  0.2613918674871272  0.7716358529892915  1.0000
  C   C72       1.0  0.23281752050159094  0.22562254522245687  0.7266936662084974  1.0000
  C   C73       1.0  0.6701025859459333  0.6758528464976835  0.7431508859082284  1.0000
  C   C74       1.0  0.8236550639010431  0.830286591998508  0.756915865371859  1.0000
  C   C75       1.0  0.674656248757948  0.680784314234913  0.6835773033696597  1.0000
  C   C76       1.0  0.8181415556617607  0.8263084287862766  0.8164828999034341  1.0000
  C   C77       1.0  0.7695729890551986  0.7756475504000376  0.7301308659944398  1.0000
  C   C78       1.0  0.7242161722751632  0.7304494637900021  0.7699487764370119  1.0000
  C   C79       1.0  0.3237606103763752  0.3302218697542684  0.2568873848418818  1.0000
  C   C80       1.0  0.17021721929550884  0.17578449077156932  0.2430979206048249  1.0000
  C   C81       1.0  0.318532510517322  0.32600310708755137  0.3164583140871144  1.0000
  C   C82       1.0  0.17541320131740423  0.18016749015919942  0.1835213958265385  1.0000
  C   C83       1.0  0.22405812478432094  0.2306338252502158  0.2699168313971896  1.0000
  C   C84       1.0  0.26958097647523255  0.2756846420463859  0.23011182508756886  1.0000
  C   C85       1.0  0.5838278146075735  0.0702344939684139  0.9961607734946513  1.0000
  C   C86       1.0  0.41618790466117866  0.9296569163283125  0.9971511230216947  1.0000
  C   C87       1.0  0.638626832567759  0.006163944156760702  0.9952999937637799  1.0000
  C   C88       1.0  0.3614064156005981  0.9937753915094875  0.9975892046781851  1.0000
  C   C89       1.0  0.4972609826606628  0.9574144937565447  0.9965355486096003  1.0000
  C   C90       1.0  0.5027753355623545  0.0424357103462043  0.9967376901069614  1.0000
  C   C91       1.0  0.06909575757738648  0.4157484556602641  0.0115633368494983  1.0000
  C   C92       1.0  0.9311973861050757  0.5840632605699482  0.9951498451604905  1.0000
  C   C93       1.0  0.005273846383843799  0.36129740604035027  0.005572846026652201  1.0000
  C   C94       1.0  0.9948294137158481  0.6386312507692438  0.0016343166532877  1.0000
  C   C95       1.0  0.9581727145964435  0.5028979746340738  0.9989670576237373  1.0000
  C   C96       1.0  0.042196796262999194  0.49697735536803106  0.0079136566859219  1.0000
  S   S1        1.0  0.9107430644905746  0.5897981118422989  0.4975460976826014  1.0000
  S   S2        1.0  0.08921355479424879  0.4100206661671778  0.4952382813354674  1.0000
  S   S3        1.0  0.5900138290211528  0.9108030713938007  0.5046663844741275  1.0000
  S   S4        1.0  0.41016908109504857  0.08923282009642013  0.5025601142592038  1.0000
  S   S5        1.0  0.7565481430849841  0.2575487372529465  0.6609874019067021  1.0000
  S   S6        1.0  0.7364470748221378  0.2358098664777444  0.8393688586293422  1.0000
  S   S7        1.0  0.23676132875142739  0.7356440827400801  0.3390408443990296  1.0000
  S   S8        1.0  0.2565739605607789  0.7572496307713834  0.1606379020408752  1.0000
  S   S9        1.0  0.265200174653387  0.7640383012320909  0.6610630174092336  1.0000
  S   S10       1.0  0.24191296574500848  0.7422061532866309  0.8392501500056682  1.0000
  S   S11       1.0  0.7413547623294646  0.24279568138874202  0.3387782616207673  1.0000
  S   S12       1.0  0.7651043211756557  0.26490113898289996  0.1606628751542232  1.0000
  S   S13       1.0  0.6583676805871119  0.6643335385656999  0.2528083048670453  1.0000
  S   S14       1.0  0.8449264550610138  0.8352410983748157  0.24864595886761262  1.0000
  S   S15       1.0  0.34788987498568247  0.3293324732499486  0.7472235883077687  1.0000
  S   S16       1.0  0.16154378778276876  0.1582091689287495  0.7513309728424603  1.0000
  S   S17       1.0  0.745839187923991  0.7519040566910036  0.6602534011743515  1.0000
  S   S18       1.0  0.7471900950109568  0.7549674799938587  0.8398154181769968  1.0000
  S   S19       1.0  0.24725504217654753  0.25496093719910823  0.3397903687524817  1.0000
  S   S20       1.0  0.24652464167929364  0.25135146781843803  0.1602434501578784  1.0000
  S   S21       1.0  0.5908452888743766  0.9116992268017087  0.9954342902963589  1.0000
  S   S22       1.0  0.40923098090598126  0.08819405169688821  0.9974377302471922  1.0000
  S   S23       1.0  0.9121483913501504  0.4095965155893069  0.9955794791826947  1.0000
  S   S24       1.0  0.0880133035101025  0.5903987796993208  0.011577430569921901  1.0000
  Br  Br1       1.0  0.8889038808228944  0.32039043880981677  0.4975433351470571  1.0000
  Br  Br2       1.0  0.11077110166424828  0.6795009160198618  0.4965447680611916  1.0000
  Br  Br3       1.0  0.3205763633414519  0.8891351164114879  0.5034028453490507  1.0000
  Br  Br4       1.0  0.6795506533366336  0.11115183499165233  0.5024305427082965  1.0000
  Br  Br5       1.0  0.5757778625599456  0.36185340664613364  0.7827206055667446  1.0000
  Br  Br6       1.0  0.9196745201301509  0.13507104198027522  0.7180539763418707  1.0000
  Br  Br7       1.0  0.41999361796115403  0.6349901065617657  0.217697176320641  1.0000
  Br  Br8       1.0  0.07587760916828759  0.8615585389992475  0.2823947355784071  1.0000
  Br  Br9       1.0  0.3650960265362926  0.5797084693498038  0.7820090086713876  1.0000
  Br  Br10      1.0  0.13836986222454328  0.9242488599872872  0.7181254019438512  1.0000
  Br  Br11      1.0  0.6383436819657716  0.4251735253773603  0.2176157195344004  1.0000
  Br  Br12      1.0  0.864702641213526  0.0803343601411797  0.2815190847695064  1.0000
  Br  Br13      1.0  0.7984257845537072  0.7779645201164271  0.395466788719915  1.0000
  Br  Br14      1.0  0.7010860063556095  0.7248226725874787  0.10665636374753969  1.0000
  Br  Br15      1.0  0.20770996579235396  0.21593906531956006  0.6045100995967374  1.0000
  Br  Br16      1.0  0.3031652230746005  0.27100143283819017  0.8935466996766337  1.0000
  Br  Br17      1.0  0.6033336389075643  0.6069088675410582  0.7863446189579407  1.0000
  Br  Br18      1.0  0.892667286703748  0.897007606988396  0.7137442842201054  1.0000
  Br  Br19      1.0  0.3927940383158343  0.3968683466595522  0.2136762887062744  1.0000
  Br  Br20      1.0  0.10320346071667068  0.10702293459066681  0.2862602719531466  1.0000
  Br  Br21      1.0  0.608064532665388  0.181412690497524  0.9970611392039787  1.0000
  Br  Br22      1.0  0.39178046796686766  0.8185149023386488  0.9978242588517717  1.0000
  Br  Br23      1.0  0.17867731036535867  0.39084093797729486  0.024010748141122897  1.0000
  Br  Br24      1.0  0.8219767769994346  0.6085086060270085  0.9806474195029439  1.0000
  O   O1        1.0  0.26145524526282315  0.4326140486809893  0.49383385853819567  1.0000
  O   O2        1.0  0.5674515748364042  0.7385058572270183  0.5060631023889641  1.0000
  O   O3        1.0  0.7385518494439296  0.5673657297128187  0.5007280716422571  1.0000
  O   O4        1.0  0.4325614910706364  0.26147569092002954  0.4994416768885301  1.0000
  O   O5        1.0  0.41431510058529847  0.40816223011505315  0.6504194453778922  1.0000
  O   O6        1.0  0.41595125635482316  0.4220567725896559  0.3455069871000163  1.0000
  O   O7        1.0  0.5908456510036543  0.5866286076973849  0.34950192705970545  1.0000
  O   O8        1.0  0.5780034377137538  0.5839603719462617  0.6545089540821252  1.0000
  O   O9        1.0  0.34888153268309446  0.6543870445276738  0.5852903255581268  1.0000
  O   O10       1.0  0.6494990903687634  0.34343922610516847  0.5853138782190968  1.0000
  O   O11       1.0  0.656417287798753  0.3503579294931072  0.4146734365449021  1.0000
  O   O12       1.0  0.34580395847901707  0.6512359475944863  0.4146426471990239  1.0000
  O   O13       1.0  0.5761282962996076  0.41065602999510287  0.6533100495282511  1.0000
  O   O14       1.0  0.5894356273475407  0.4242076306810958  0.3467954892930081  1.0000
  O   O15       1.0  0.4198018837082741  0.5852282054344329  0.3464234919606922  1.0000
  O   O16       1.0  0.41475554027272205  0.5801446056910391  0.6534869788333992  1.0000
  O   O17       1.0  0.34601161728052426  0.342053138838665  0.579274039948416  1.0000
  O   O18       1.0  0.6496241902061397  0.6538591996673235  0.5869025618383148  1.0000
  O   O19       1.0  0.65826868092212  0.6534667586681879  0.42073401805537  1.0000
  O   O20       1.0  0.3459732688434157  0.350483451776654  0.41311313104569797  1.0000
  O   O21       1.0  0.5707295015888149  0.2641286498082636  0.5009873606297788  1.0000
  O   O22       1.0  0.2639998141620552  0.5707911865876695  0.49620711920076843  1.0000
  O   O23       1.0  0.42927924113416077  0.7360051032335092  0.5037377413241018  1.0000
  O   O24       1.0  0.7358576769269546  0.4291933654585521  0.4990150510423419  1.0000
  O   O25       1.0  0.5013186734114823  0.38047850121292015  0.4381100297174356  1.0000
  O   O26       1.0  0.6194888441934836  0.4985971361643778  0.5618901325234661  1.0000
  O   O27       1.0  0.501554245206158  0.6223841109282304  0.44115203938697073  1.0000
  O   O28       1.0  0.37760022607242405  0.49840279579454744  0.558906778284836  1.0000
  O   O29       1.0  0.4990299620365093  0.5878232103287643  0.5455151927754898  1.0000
  O   O30       1.0  0.4121120592477893  0.5009640913164617  0.4544874094792348  1.0000
  O   O31       1.0  0.5901515190405461  0.501198516730021  0.45667663426759464  1.0000
  O   O32       1.0  0.4987708500987365  0.4097900683307287  0.5433213322396  1.0000
  O   O33       1.0  0.14766645101259704  0.8410220487374431  0.08489782156451041  1.0000
  O   O34       1.0  0.851481564298453  0.1575267297920746  0.0849301407830652  1.0000
  O   O35       1.0  0.8476656888077015  0.1537222064176262  0.9151141158088693  1.0000
  O   O36       1.0  0.15400935287742354  0.8473673163576619  0.9151285574364466  1.0000
  O   O37       1.0  0.23890886593516567  0.0641660159815771  0.0003917837642788  1.0000
  O   O38       1.0  0.9270628773634043  0.764198566732951  0.9992218646435731  1.0000
  O   O39       1.0  0.7612055076598165  0.9358385811238322  0.9944111389011923  1.0000
  O   O40       1.0  0.07272053760328838  0.2355308676744556  0.0063254447109458  1.0000
  O   O41       1.0  0.0795136052996099  0.08261629333288312  0.15448921113822683  1.0000
  O   O42       1.0  0.0910041330366624  0.08413615699866028  0.8487506316936829  1.0000
  O   O43       1.0  0.9151639960082462  0.9227596643146256  0.8454739672655762  1.0000
  O   O44       1.0  0.9134749132682102  0.9112661753562179  0.1511904305208915  1.0000
  O   O45       1.0  0.16044556826767578  0.1498198442161964  0.9195142331798323  1.0000
  O   O46       1.0  0.8433172235735922  0.8532438472361862  0.9131348810660782  1.0000
  O   O47       1.0  0.8437565596410506  0.845723085228528  0.0804779254021071  1.0000
  O   O48       1.0  0.1524668709152834  0.15107577253431972  0.08688554802640168  1.0000
  O   O49       1.0  0.23566625713983302  0.9259749488063846  0.9987155459937042  1.0000
  O   O50       1.0  0.9345915042603108  0.23879269531926886  0.0030362090110856005  1.0000
  O   O51       1.0  0.7643139056397317  0.07403138875457668  0.996505777692164  1.0000
  O   O52       1.0  0.065238214836647  0.7613956301665825  0.0017167950575114003  1.0000
  O   O53       1.0  0.08842622057068178  0.922267276752649  0.8471475250078768  1.0000
  O   O54       1.0  0.0754651446694297  0.9094563655007165  0.1529163204858364  1.0000
  O   O55       1.0  0.9163527292605946  0.08252432112851692  0.1532139888084956  1.0000
  O   O56       1.0  0.9198324192214284  0.08586850721883371  0.8467944535084371  1.0000
  O   O57       1.0  0.9991977358755406  0.8802365670687706  0.9383218501935532  1.0000
  O   O58       1.0  0.0033888318930478997  0.122162406475411  0.9408792395828415  1.0000
  O   O59       1.0  0.8778825320989936  0.0010333709997639002  0.0590813172642228  1.0000
  O   O60       1.0  0.11971949743954008  0.9965308201888662  0.0615961596277188  1.0000
  O   O61       1.0  0.0006673483887098999  0.0880809030478318  0.045328691063609504  1.0000
  O   O62       1.0  0.9974937254078708  0.910016030365739  0.0434154596852636  1.0000
  O   O63       1.0  0.9120062278617452  0.0026249781769394002  0.9546929209209836  1.0000
  O   O64       1.0  0.090031001122739  0.9991830628021603  0.9565351449683703  1.0000
