data_image0
_chemical_formula_structural       AlH9C27Br6O6
_chemical_formula_sum              "Al1 H9 C27 Br6 O6"
_cell_length_a       4.047878146701592
_cell_length_b       16.203366225080593
_cell_length_c       16.203202750940957
_cell_angle_alpha    120.67025305020135
_cell_angle_beta     89.53966237645697
_cell_angle_gamma    89.51760003835932

_space_group_name_H-M_alt    "P 1"
_space_group_IT_number       1

loop_
  _space_group_symop_operation_xyz
  'x, y, z'

loop_
  _atom_site_type_symbol
  _atom_site_label
  _atom_site_symmetry_multiplicity
  _atom_site_fract_x
  _atom_site_fract_y
  _atom_site_fract_z
  _atom_site_occupancy
  Al  Al1       1.0  0.9999417244971129  0.5010658058710646  0.4988446122784963  1.0000
  H   H1        1.0  0.5000143432242226  0.9203646523335179  0.07956776195646828  1.0000
  H   H2        1.0  0.4717806076948321  0.6546205364119047  0.07802122393753298  1.0000
  H   H3        1.0  0.528307366612445  0.9219196297635788  0.345333556797513  1.0000
  H   H4        1.0  0.7363781023747651  0.051852669436740904  0.15676259920779498  1.0000
  H   H5        1.0  0.2739881471182811  0.05796763190249269  0.4013918370063863  1.0000
  H   H6        1.0  0.2637533893070909  0.8431877276760957  0.9480752505942646  1.0000
  H   H7        1.0  0.7261507263240646  0.5985151248140709  0.9419686423349417  1.0000
  H   H8        1.0  0.7623229139339571  0.6046495837309819  0.15928253811654253  1.0000
  H   H9        1.0  0.2375341665511996  0.8405868687646174  0.39520474840251285  1.0000
  C   C1        1.0  0.49646683283257437  0.5740975850859942  0.6468600247342663  1.0000
  C   C2        1.0  0.49989402290799495  0.5743070469221363  0.42549541766330623  1.0000
  C   C3        1.0  0.5035316588073261  0.3530544973214731  0.42584073898309777  1.0000
  C   C4        1.0  0.49621211106348534  0.7811694125599473  0.06607908421311477  1.0000
  C   C5        1.0  0.5000448330814464  0.8817063033779746  0.11821341375141263  1.0000
  C   C6        1.0  0.5038579387467834  0.9338437581746816  0.2187711922770744  1.0000
  C   C7        1.0  0.5085938499325948  0.8829462479183549  0.267431069282317  1.0000
  C   C8        1.0  0.5000739875762505  0.7824426796453139  0.21752049000088636  1.0000
  C   C9        1.0  0.49148694408577137  0.7324882217220932  0.11696953727084751  1.0000
  C   C10       1.0  0.6213420185920029  0.1898026566598787  0.27815003704218094  1.0000
  C   C11       1.0  0.6287350140394636  0.08998722736119188  0.22870041434350696  1.0000
  C   C12       1.0  0.5053875317342502  0.040044840270432806  0.2717240822947176  1.0000
  C   C13       1.0  0.3807559455514991  0.09353070727953391  0.3660212635630629  1.0000
  C   C14       1.0  0.38562337667680424  0.19341015741964898  0.415419710927587  1.0000
  C   C15       1.0  0.5028705123608079  0.24458058790659715  0.372988395811987  1.0000
  C   C16       1.0  0.3713730595359834  0.7712370185057651  0.9099217745930374  1.0000
  C   C17       1.0  0.3788002370629613  0.7218068848537982  0.8101225305009051  1.0000
  C   C18       1.0  0.49726496360916167  0.6269591697664794  0.7553277089739723  1.0000
  C   C19       1.0  0.6145391723160573  0.5845140532870018  0.8065160794537289  1.0000
  C   C20       1.0  0.6193602853683943  0.6339097201397476  0.9063915295280721  1.0000
  C   C21       1.0  0.4947073272832938  0.7281876846822254  0.9598761886559541  1.0000
  C   C22       1.0  0.6428664937205112  0.6382289472064713  0.2296624820436435  1.0000
  C   C23       1.0  0.6446040362986879  0.5891200340357444  0.27941525848167703  1.0000
  C   C24       1.0  0.4997662437114627  0.6276915257100056  0.37210682642488974  1.0000
  C   C25       1.0  0.3549786404121136  0.7203825445590724  0.41068260519119076  1.0000
  C   C26       1.0  0.35689063159483675  0.7701997870054386  0.36162892325121726  1.0000
  C   C27       1.0  0.49997944205147593  0.7299169943791168  0.26996383905524357  1.0000
  Br  Br1       1.0  0.22614664929089662  0.2601740497509013  0.5441143301590046  1.0000
  Br  Br2       1.0  0.7811880925367589  0.25201157263185076  0.21383041355761626  1.0000
  Br  Br3       1.0  0.21891799836208753  0.7861388895246648  0.7479102177554253  1.0000
  Br  Br4       1.0  0.7740298062203479  0.4558200885921977  0.7397252171612791  1.0000
  Br  Br5       1.0  0.847162951387567  0.46527098694311053  0.20942211160370047  1.0000
  Br  Br6       1.0  0.15218492831107264  0.7903535325587397  0.5344955045980055  1.0000
  O   O1        1.0  0.26780859229075565  0.3943536369075743  0.4090230285253965  1.0000
  O   O2        1.0  0.26006357249464424  0.5174551641510448  0.6052914419033968  1.0000
  O   O3        1.0  0.2611307160702339  0.5899576872025563  0.4833994835221559  1.0000
  O   O4        1.0  0.7399612603435558  0.39463955289764396  0.4825033450605077  1.0000
  O   O5        1.0  0.7386414124820178  0.5164147619327508  0.4098775586875475  1.0000
  O   O6        1.0  0.7321202554233254  0.5909201047794138  0.6055359711657428  1.0000
