data_image0
_chemical_formula_structural       Mn2H24C32N16
_chemical_formula_sum              "Mn2 H24 C32 N16"
_cell_length_a       7.438385228236875
_cell_length_b       9.062042270272407
_cell_length_c       13.496867630272417
_cell_angle_alpha    86.52232835829373
_cell_angle_beta     81.53955325441449
_cell_angle_gamma    65.74937188265766

_space_group_name_H-M_alt    "P 1"
_space_group_IT_number       1

loop_
  _space_group_symop_operation_xyz
  'x, y, z'

loop_
  _atom_site_type_symbol
  _atom_site_label
  _atom_site_symmetry_multiplicity
  _atom_site_fract_x
  _atom_site_fract_y
  _atom_site_fract_z
  _atom_site_occupancy
  Mn  Mn1       1.0  0.09329286880375781  0.8129893752322275  0.7498808069925786  1.0000
  Mn  Mn2       1.0  0.9005239594392976  0.1980356029772068  0.24976955026483688  1.0000
  H   H1        1.0  0.3088807091381581  0.1818897314621921  0.7064346792821751  1.0000
  H   H2        1.0  0.5089497712331975  0.1819849095886639  0.7936864861470098  1.0000
  H   H3        1.0  0.6935550765385015  0.8160320212053592  0.2938521399357726  1.0000
  H   H4        1.0  0.4909486355160625  0.8155416075510685  0.20617910003160486  1.0000
  H   H5        1.0  0.7964035658829902  0.7162720770413954  0.643310132178037  1.0000
  H   H6        1.0  0.48666767260646576  0.7164008047724124  0.8564290429952236  1.0000
  H   H7        1.0  0.20293194575612017  0.2797149818366337  0.35732840833205864  1.0000
  H   H8        1.0  0.5186844557166808  0.27907720305591255  0.143239370760007  1.0000
  H   H9        1.0  0.6032238890822158  0.5983567104738156  0.5758942262038431  1.0000
  H   H10       1.0  0.7977398463193667  0.5985900474571509  0.9239049690179328  1.0000
  H   H11       1.0  0.3816658545684887  0.3930225044208768  0.438287610243755  1.0000
  H   H12       1.0  0.22629006769295765  0.3919925116419591  0.0625362519372885  1.0000
  H   H13       1.0  0.6443361785110541  0.3962973934020723  0.6106953965905575  1.0000
  H   H14       1.0  0.9588240733369845  0.3965795646743119  0.8892747288113227  1.0000
  H   H15       1.0  0.37072295295926966  0.5805834870217056  0.3867855842064643  1.0000
  H   H16       1.0  0.04973710811855636  0.5800119872293692  0.11348562577892808  1.0000
  H   H17       1.0  0.7641224016943371  0.4343191397504925  0.49536242362376737  1.0000
  H   H18       1.0  0.8011049293574785  0.4346770202136555  0.004613905240589117  1.0000
  H   H19       1.0  0.23008614491337914  0.577062930719805  0.5036179010140813  1.0000
  H   H20       1.0  0.19426559728081125  0.5755014258081133  0.9966391339830523  1.0000
  H   H21       1.0  0.030970041191331232  0.19613044495620355  0.6224794921402647  1.0000
  H   H22       1.0  0.7724818444031032  0.1962831767293167  0.8776873018701323  1.0000
  H   H23       1.0  0.971452789374702  0.799640402740863  0.3795217273485392  1.0000
  H   H24       1.0  0.22966665413202494  0.7988834538454981  0.12042119685547448  1.0000
  C   C1        1.0  0.19979360232885315  0.4425012922937057  0.7223256764541972  1.0000
  C   C2        1.0  0.35726589124431035  0.4425606696283922  0.7775654264382083  1.0000
  C   C3        1.0  0.8003514307311694  0.5566977720712033  0.2771597954825467  1.0000
  C   C4        1.0  0.6439996954475546  0.5563281501710975  0.22307802623543438  1.0000
  C   C5        1.0  0.8883906688573335  0.4584268137685612  0.6245140024838918  1.0000
  C   C6        1.0  0.6526262677387821  0.4585450701447158  0.8754516620145552  1.0000
  C   C7        1.0  0.11166848690231752  0.5368145168921714  0.3766982238344383  1.0000
  C   C8        1.0  0.35275506601744433  0.5360024168185404  0.1236041476503118  1.0000
  C   C9        1.0  0.19406704762133836  0.2994926565448567  0.6920013722067182  1.0000
  C   C10       1.0  0.5060546474513502  0.2996143269772277  0.8080021058112266  1.0000
  C   C11       1.0  0.8088514323185334  0.6984012734714329  0.30786800533613967  1.0000
  C   C12       1.0  0.49348084607625264  0.6978443970530678  0.19223501780682986  1.0000
  C   C13       1.0  0.9078546061401344  0.595039504849538  0.6557680253641038  1.0000
  C   C14       1.0  0.4965032216938996  0.5951561628610945  0.8440794452437856  1.0000
  C   C15       1.0  0.09273281527904938  0.4009571056333884  0.3445344363357634  1.0000
  C   C16       1.0  0.5076662728064536  0.40030140024965283  0.15587897692341096  1.0000
  C   C17       1.0  0.749406356665432  0.03218176870188931  0.6144568917314928  1.0000
  C   C18       1.0  0.2178823347111418  0.0321717581466245  0.8853085606432315  1.0000
  C   C19       1.0  0.22536673326629866  0.9808625014055606  0.3739749410781883  1.0000
  C   C20       1.0  0.7936495859064581  0.9805930043342242  0.12574276126696296  1.0000
  C   C21       1.0  0.7157443880664901  0.47370100462802606  0.573858870102292  1.0000
  C   C22       1.0  0.809965208264096  0.47396420260488276  0.9260355975535858  1.0000
  C   C23       1.0  0.2824986151166512  0.5200806860031691  0.4293210845474889  1.0000
  C   C24       1.0  0.19864693520406018  0.51903653702783  0.0710806286570076  1.0000
  C   C25       1.0  0.7012554083310861  0.14050772542609016  0.4583451373342413  1.0000
  C   C26       1.0  0.15786453076603382  0.14061446994811888  0.04128335748246309  1.0000
  C   C27       1.0  0.30442937361321754  0.8668033808872195  0.5256580444744472  1.0000
  C   C28       1.0  0.8292519928306136  0.8659352460429376  0.9742093347591876  1.0000
  C   C29       1.0  0.03777249155871942  0.307812259859304  0.6437307811284256  1.0000
  C   C30       1.0  0.6539579354166281  0.3079230973970085  0.8563098500476584  1.0000
  C   C31       1.0  0.9641790441208117  0.6888000058100515  0.3571216854006707  1.0000
  C   C32       1.0  0.3479157321115951  0.6881582407377492  0.14296814726782256  1.0000
  N   N1        1.0  0.05766309880536379  0.5884697125542857  0.7028046703221732  1.0000
  N   N2        1.0  0.35334523044506483  0.5885430669854657  0.7970031784950322  1.0000
  N   N3        1.0  0.9423599790671915  0.40899151542991063  0.296680851937694  1.0000
  N   N4        1.0  0.650250872817985  0.4082819601558825  0.20370377991036293  1.0000
  N   N5        1.0  0.8384931494455544  0.9704751915649297  0.6821985737416155  1.0000
  N   N6        1.0  0.19030523803152022  0.9704758214458379  0.8176718528240343  1.0000
  N   N7        1.0  0.12538423171316998  0.045611148256711004  0.3105935779558706  1.0000
  N   N8        1.0  0.828464245891233  0.045897559197342695  0.1889615416326436  1.0000
  N   N9        1.0  0.6369821218067602  0.10091086678836093  0.5462304702116753  1.0000
  N   N10       1.0  0.26160700317825575  0.1010917791782759  0.953380652210555  1.0000
  N   N11       1.0  0.3519676072437364  0.9115551495236288  0.4361420457342078  1.0000
  N   N12       1.0  0.7368106028520458  0.9108097163598644  0.06369824758375128  1.0000
  N   N13       1.0  0.7429560005931678  0.18464493566972348  0.3777520603462179  1.0000
  N   N14       1.0  0.0719189081546148  0.1847072517309201  0.12184996710514179  1.0000
  N   N15       1.0  0.27676306426980113  0.8203121643882411  0.6076538199924003  1.0000
  N   N16       1.0  0.9033424955064862  0.8195465137948759  0.8922013077185085  1.0000
