data_image0
_chemical_formula_structural       Hg4H16C4N24Cl8
_chemical_formula_sum              "Hg4 H16 C4 N24 Cl8"
_cell_length_a       4.146447139963767
_cell_length_b       9.898479903857913
_cell_length_c       17.68334173613185
_cell_angle_alpha    90.00025679964384
_cell_angle_beta     89.99962774464632
_cell_angle_gamma    91.29037503832599

_space_group_name_H-M_alt    "P 1"
_space_group_IT_number       1

loop_
  _space_group_symop_operation_xyz
  'x, y, z'

loop_
  _atom_site_type_symbol
  _atom_site_label
  _atom_site_symmetry_multiplicity
  _atom_site_fract_x
  _atom_site_fract_y
  _atom_site_fract_z
  _atom_site_occupancy
  Hg  Hg1       1.0  0.67656439169901  0.3865846444331638  0.5970505822977261  1.0000
  Hg  Hg2       1.0  0.32343952021905403  0.1134105164110011  0.09705055597017781  1.0000
  Hg  Hg3       1.0  0.32343833862424987  0.6134139764762098  0.4029509518541446  1.0000
  Hg  Hg4       1.0  0.6765606781209925  0.8865860859438045  0.9029487161651845  1.0000
  H   H1        1.0  0.3240112108829293  0.33163484795785086  0.9373179171195436  1.0000
  H   H2        1.0  0.6759907454921148  0.16836290735633236  0.43731861879810213  1.0000
  H   H3        1.0  0.6759868167953869  0.6683657989072174  0.06268135502263313  1.0000
  H   H4        1.0  0.3240092721566441  0.8316306634747048  0.5626817843414998  1.0000
  H   H5        1.0  0.6465827627481389  0.4236673526622284  0.9635701767411864  1.0000
  H   H6        1.0  0.353413661439113  0.076330608343234  0.4635722720260418  1.0000
  H   H7        1.0  0.3534077893395776  0.5763292595838151  0.0364290954016155  1.0000
  H   H8        1.0  0.6465890087122617  0.9236670020416398  0.5364253035967863  1.0000
  H   H9        1.0  0.2338876639406422  0.593335406666263  0.8269794459850817  1.0000
  H   H10       1.0  0.766120458612221  0.9066610359143966  0.3269851387046289  1.0000
  H   H11       1.0  0.7661128355184629  0.4066662482375206  0.1730203916604438  1.0000
  H   H12       1.0  0.2338797397201873  0.09333556644256902  0.6730146989347078  1.0000
  H   H13       1.0  0.2868596142084385  0.5888402660390996  0.7288384470785517  1.0000
  H   H14       1.0  0.7131394625456551  0.9111615015200697  0.22884479828200463  1.0000
  H   H15       1.0  0.7131410659266848  0.41116442039277973  0.27116139057068983  1.0000
  H   H16       1.0  0.2868608562221624  0.08883712185994598  0.7711561703677534  1.0000
  C   C1        1.0  0.540687693641857  0.45018452335762055  0.7880027976142973  1.0000
  C   C2        1.0  0.4593202855068911  0.04980501417725951  0.2880063589819316  1.0000
  C   C3        1.0  0.45931985979230205  0.549814092610454  0.21199986754180605  1.0000
  C   C4        1.0  0.5406866656967892  0.9501834966906911  0.711994609649871  1.0000
  N   N1        1.0  0.707831796089671  0.3862044574487413  0.7339596350124183  1.0000
  N   N2        1.0  0.2921688998924452  0.1137998343539408  0.23395852678739001  1.0000
  N   N3        1.0  0.2921643620306966  0.6138052864799023  0.26604133365467675  1.0000
  N   N4        1.0  0.7078413060443367  0.8862028211679771  0.7660413108519395  1.0000
  N   N5        1.0  0.8795069145672441  0.28800113620343376  0.7690115763047205  1.0000
  N   N6        1.0  0.12049036287706368  0.21200241560121919  0.2690132439840839  1.0000
  N   N7        1.0  0.1204868320129577  0.7120086101915318  0.23098769585231352  1.0000
  N   N8        1.0  0.8795123674691112  0.7879962053016669  0.730986593655871  1.0000
  N   N9        1.0  0.8263317703348819  0.2870170675619264  0.8406349561220312  1.0000
  N   N10       1.0  0.1736706869006852  0.21298500347574392  0.3406354134364237  1.0000
  N   N11       1.0  0.17366897002557377  0.7129886293793176  0.15936488152845396  1.0000
  N   N12       1.0  0.8263294512063909  0.7870105883718567  0.6593644242016767  1.0000
  N   N13       1.0  0.6127073714289538  0.3885095438887518  0.8544064022721475  1.0000
  N   N14       1.0  0.38729947677235543  0.1114916169941651  0.35440570725779014  1.0000
  N   N15       1.0  0.3872957202463354  0.6114951400768052  0.14559513188715562  1.0000
  N   N16       1.0  0.6127034342498306  0.8885100354368092  0.645594130385881  1.0000
  N   N17       1.0  0.47011774222826125  0.41297237984803564  0.9233799316341947  1.0000
  N   N18       1.0  0.5298844098962903  0.0870222373665186  0.4233823479674187  1.0000
  N   N19       1.0  0.5298778136463653  0.5870272589848042  0.07662047151654863  1.0000
  N   N20       1.0  0.47010397156788036  0.9129784193789736  0.5766140966623325  1.0000
  N   N21       1.0  0.34746520602872977  0.5547281364591328  0.7809388035746425  1.0000
  N   N22       1.0  0.652525349497992  0.9452760578761923  0.2809317626936903  1.0000
  N   N23       1.0  0.6525355945112423  0.44527857100444374  0.21906442710091065  1.0000
  N   N24       1.0  0.34746562413654664  0.054727627944046696  0.7190697714736702  1.0000
  Cl  Cl1       1.0  0.9995545431764299  0.19488249866532928  0.5680380397556563  1.0000
  Cl  Cl2       1.0  0.0004406265214952994  0.3051144712454672  0.06803899791188432  1.0000
  Cl  Cl3       1.0  0.00044565512543220357  0.8051141037002836  0.43196405989957054  1.0000
  Cl  Cl4       1.0  0.9995523973393644  0.6948831490414521  0.931961405238241  1.0000
  Cl  Cl5       1.0  0.2708807410166116  0.5566562840639904  0.5873204838325068  1.0000
  Cl  Cl6       1.0  0.7291219773868818  0.9433413698111579  0.08732010619370813  1.0000
  Cl  Cl7       1.0  0.7291220495778107  0.4433433473417736  0.4126776572967686  1.0000
  Cl  Cl8       1.0  0.27088316456055855  0.056657248608104296  0.9126769039245207  1.0000
