data_image0
_chemical_formula_structural       Ag2H28C28N10O6
_chemical_formula_sum              "Ag2 H28 C28 N10 O6"
_cell_length_a       5.068304362621013
_cell_length_b       10.461916175719953
_cell_length_c       14.678801588402075
_cell_angle_alpha    90.00274413688716
_cell_angle_beta     91.06177092264903
_cell_angle_gamma    90.0028520564422

_space_group_name_H-M_alt    "P 1"
_space_group_IT_number       1

loop_
  _space_group_symop_operation_xyz
  'x, y, z'

loop_
  _atom_site_type_symbol
  _atom_site_label
  _atom_site_symmetry_multiplicity
  _atom_site_fract_x
  _atom_site_fract_y
  _atom_site_fract_z
  _atom_site_occupancy
  Ag  Ag1       1.0  0.5000074363576772  0.3874823324899167  0.2500050537519129  1.0000
  Ag  Ag2       1.0  0.499994116144464  0.6125138051967411  0.7500110792585486  1.0000
  H   H1        1.0  0.7782009022304947  0.2144593979421572  0.11510665966760307  1.0000
  H   H2        1.0  0.22183178003000142  0.21439562881963783  0.3848862077084973  1.0000
  H   H3        1.0  0.22183569987420526  0.7855873983402332  0.884895428947665  1.0000
  H   H4        1.0  0.7781436223691499  0.7855603621014492  0.6151142013923944  1.0000
  H   H5        1.0  0.1218542419477942  0.44769715604044796  0.08924173714168399  1.0000
  H   H6        1.0  0.8782658276440922  0.4476316894102794  0.4107335924307519  1.0000
  H   H7        1.0  0.8782122547054172  0.5523553742775034  0.9107494836313988  1.0000
  H   H8        1.0  0.12172323392729825  0.5523376847207118  0.5892839775350465  1.0000
  H   H9        1.0  0.03006751997020989  0.368010799794348  0.9291338380209236  1.0000
  H   H10       1.0  0.9700610214571626  0.3679582126592678  0.5708426723970489  1.0000
  H   H11       1.0  0.9699862430789493  0.6320474658513715  0.07085949381473  1.0000
  H   H12       1.0  0.02994592113753211  0.6319891764421968  0.4291696103729166  1.0000
  H   H13       1.0  0.32463395149037677  0.20549251085215292  0.8635009945514154  1.0000
  H   H14       1.0  0.6754608868151095  0.20545669188483373  0.6364753417343321  1.0000
  H   H15       1.0  0.6754207818264106  0.7945600199313674  0.13649513234760488  1.0000
  H   H16       1.0  0.324549046608773  0.7944763579136522  0.3635178644816719  1.0000
  H   H17       1.0  0.8698901216102894  0.9721649381542501  0.8433700673978562  1.0000
  H   H18       1.0  0.1300729062283069  0.9721544219171675  0.6566235656155255  1.0000
  H   H19       1.0  0.13006816244819666  0.0278656088053779  0.15662811320264314  1.0000
  H   H20       1.0  0.8698694745260624  0.02780156853363989  0.34336901585661644  1.0000
  H   H21       1.0  0.7570514888572857  0.12926757796709856  0.8111641154628512  1.0000
  H   H22       1.0  0.24295599955113537  0.12926404085365556  0.6888256497093364  1.0000
  H   H23       1.0  0.24291780253543047  0.870763924997128  0.18883667434067056  1.0000
  H   H24       1.0  0.7570147459049607  0.870684303459562  0.31117658702834916  1.0000
  H   H25       1.0  0.5258175943170613  0.010377339620156096  0.8431865504969378  1.0000
  H   H26       1.0  0.474166536199746  0.010363233378825498  0.6568202677298131  1.0000
  H   H27       1.0  0.47414748817593017  0.9896656349354483  0.1568311951864132  1.0000
  H   H28       1.0  0.5257909966959317  0.9895793757496275  0.3431799364647077  1.0000
  C   C1        1.0  0.6130776682478469  0.24652355012968735  0.07256572019434766  1.0000
  C   C2        1.0  0.3869965804399483  0.24646026324467127  0.42741670910450574  1.0000
  C   C3        1.0  0.38697510740707486  0.753530892351783  0.9274303089883984  1.0000
  C   C4        1.0  0.6129971670788377  0.7534938162419919  0.5725880486921466  1.0000
  C   C5        1.0  0.2485502532697552  0.3784416394767759  0.056210800247811187  1.0000
  C   C6        1.0  0.7515424790001075  0.3783886774841818  0.44377115777272985  1.0000
  C   C7        1.0  0.7514905275373993  0.621607067988009  0.9437853170855629  1.0000
  C   C8        1.0  0.24845589419083325  0.6215778287535372  0.5562427570440815  1.0000
  C   C9        1.0  0.19999553428492334  0.3339295156520734  0.9684209350218962  1.0000
  C   C10       1.0  0.8001076188073455  0.3338732077523829  0.531553140790727  1.0000
  C   C11       1.0  0.8000479455648415  0.6661268384228477  0.031573256971519484  1.0000
  C   C12       1.0  0.19989371322611765  0.6660780042384784  0.4684526821684399  1.0000
  C   C13       1.0  0.36408705518601897  0.24090351147503947  0.9321491732208569  1.0000
  C   C14       1.0  0.6360080490724654  0.24085872301686345  0.5678283093689342  1.0000
  C   C15       1.0  0.6359605867167487  0.7591490191471948  0.06784453987489769  1.0000
  C   C16       1.0  0.36400627934728647  0.7590877089853123  0.4321692358460111  1.0000
  C   C17       1.0  0.5743216998247577  0.1933418874687973  0.9854160070877709  1.0000
  C   C18       1.0  0.4257316690630049  0.1932838555429796  0.5145620113811871  1.0000
  C   C19       1.0  0.4257141951524515  0.8067144665583964  0.014577119762805093  1.0000
  C   C20       1.0  0.5742488981206152  0.8066673553984739  0.4854297291628597  1.0000
  C   C21       1.0  0.7502226675701779  0.09087432864744469  0.9536715786761858  1.0000
  C   C22       1.0  0.24981783009805975  0.09084057790983022  0.546316719348418  1.0000
  C   C23       1.0  0.24979999831646177  0.9091715114077485  0.046325008008885483  1.0000
  C   C24       1.0  0.7501553842015269  0.9091201918575321  0.4536787740018653  1.0000
  C   C25       1.0  0.7260972427553156  0.0473362212110899  0.8568326740293414  1.0000
  C   C26       1.0  0.2738880823202122  0.04732102001840129  0.6431574435112066  1.0000
  C   C27       1.0  0.2738715714704227  0.952698148958248  0.14316397207005588  1.0000
  C   C28       1.0  0.7260555161468075  0.9526349706004918  0.35683725865473537  1.0000
  N   N1        1.0  0.45459704755971586  0.3359649794283968  0.10742838352906148  1.0000
  N   N2        1.0  0.5454691706551528  0.3358990670257  0.39255405018094064  1.0000
  N   N3        1.0  0.5454503476137873  0.6640875512506239  0.8925660038969025  1.0000
  N   N4        1.0  0.4545177176767153  0.6640664828689964  0.6074531117483983  1.0000
  N   N5        1.0  0.9162731168121566  0.0465634158224901  0.01509762654166021  1.0000
  N   N6        1.0  0.0837543817623185  0.046514689453879  0.48489525739759626  1.0000
  N   N7        1.0  0.08377108633737154  0.9534852917513277  0.9849000348584551  1.0000
  N   N8        1.0  0.9162317968175985  0.9534393895330807  0.5151029429113334  1.0000
  N   N9        1.0  0.9999950855396021  0.5925893548707392  0.25000153957427773  1.0000
  N   N10       1.0  0.9999665830969061  0.40740534291578706  0.7499991306950234  1.0000
  O   O1        1.0  0.18632727896800105  0.6515051658987048  0.2122226480715382  1.0000
  O   O2        1.0  0.8136093129190698  0.6514516871578664  0.28778556835129615  1.0000
  O   O3        1.0  0.8136035923368252  0.348508175831455  0.7877741648028119  1.0000
  O   O4        1.0  0.1863200891720923  0.34852342054729485  0.7122097984218098  1.0000
  O   O5        1.0  4.416178391861339e-05  0.46957317535848364  0.24999435212158255  1.0000
  O   O6        1.0  0.9999796833868544  0.530420094137412  0.7500153403077546  1.0000
