data_image0
_chemical_formula_structural       Cu2H8C12N2O8
_chemical_formula_sum              "Cu2 H8 C12 N2 O8"
_cell_length_a       7.236079805158882
_cell_length_b       7.67981156306194
_cell_length_c       7.679721526725259
_cell_angle_alpha    100.6367374372683
_cell_angle_beta     107.22258828428042
_cell_angle_gamma    107.22318185841823

_space_group_name_H-M_alt    "P 1"
_space_group_IT_number       1

loop_
  _space_group_symop_operation_xyz
  'x, y, z'

loop_
  _atom_site_type_symbol
  _atom_site_label
  _atom_site_symmetry_multiplicity
  _atom_site_fract_x
  _atom_site_fract_y
  _atom_site_fract_z
  _atom_site_occupancy
  Cu  Cu1       1.0  0.5179135012677135  0.6001888390605713  0.14462224980533014  1.0000
  Cu  Cu2       1.0  0.48208752828391976  0.8553723054896099  0.39980908133070875  1.0000
  H   H1        1.0  0.0620550657466836  0.0849718880492105  0.15540314528158208  1.0000
  H   H2        1.0  0.9379320431119353  0.8446016946369215  0.9150381759928832  1.0000
  H   H3        1.0  0.937744087617993  0.37108062308424655  0.38949731231059553  1.0000
  H   H4        1.0  0.0622658646918382  0.6105347988280914  0.6289233928933058  1.0000
  H   H5        1.0  0.5136789079767324  0.5373702487431871  0.7299462359607529  1.0000
  H   H6        1.0  0.4863220361966754  0.27003687913134666  0.46261081161431855  1.0000
  H   H7        1.0  0.5136804925259781  0.18574476662729472  0.08155894494711904  1.0000
  H   H8        1.0  0.48630310710585417  0.9184280208177924  0.8142529523661962  1.0000
  C   C1        1.0  0.7901286187912575  0.9869848629803284  0.23698751575299318  1.0000
  C   C2        1.0  0.20986848024296736  0.7630082887176075  0.013020539711334364  1.0000
  C   C3        1.0  0.9724583828363861  0.13494315149119274  0.2301454733751384  1.0000
  C   C4        1.0  0.027540785824662323  0.7698706481221294  0.865067967559362  1.0000
  C   C5        1.0  0.027423826469018326  0.3212015825434875  0.3148272666553353  1.0000
  C   C6        1.0  0.972588807827982  0.6852051312409982  0.6788158043449568  1.0000
  C   C7        1.0  0.2097475289390758  0.4690390580640624  0.3079359677087297  1.0000
  C   C8        1.0  0.7902668284068355  0.6920753822910015  0.5309602550763158  1.0000
  C   C9        1.0  0.5080072799610919  0.3986770912033323  0.7487251822961554  1.0000
  C   C10       1.0  0.49198904678911487  0.2512583293332682  0.6013077261583105  1.0000
  C   C11       1.0  0.5079962706061849  0.2044660577139297  0.9428631749547519  1.0000
  C   C12       1.0  0.4919939088403921  0.057121310205779714  0.7955239989417109  1.0000
  N   N1        1.0  0.516232737307746  0.37522533559097576  0.919418687336474  1.0000
  N   N2        1.0  0.4837604498393944  0.08056638097005478  0.6247644466880258  1.0000
  O   O1        1.0  0.7388154084026581  0.8185904334427079  0.1296407927398988  1.0000
  O   O2        1.0  0.2611851005356839  0.8703525413666708  0.18142378649303478  1.0000
  O   O3        1.0  0.2969135441467543  0.6524894314174361  0.9598823460363163  1.0000
  O   O4        1.0  0.7030719969949145  0.040113099552563404  0.34750344072600103  1.0000
  O   O5        1.0  0.2620079233213986  0.6372617212261247  0.41611835809779046  1.0000
  O   O6        1.0  0.7380078296862322  0.5838941861114577  0.3627426478910464  1.0000
  O   O7        1.0  0.2959375505229929  0.41604706401393793  0.19653070487984786  1.0000
  O   O8        1.0  0.704072830663506  0.8034847970859432  0.5839446972773956  1.0000
