data_image0
_chemical_formula_structural       Cd2H26C34N6O12
_chemical_formula_sum              "Cd2 H26 C34 N6 O12"
_cell_length_a       7.703160659871821
_cell_length_b       8.811545649520841
_cell_length_c       15.26423405062417
_cell_angle_alpha    83.20794538367787
_cell_angle_beta     78.87214541532933
_cell_angle_gamma    78.78197186645328

_space_group_name_H-M_alt    "P 1"
_space_group_IT_number       1

loop_
  _space_group_symop_operation_xyz
  'x, y, z'

loop_
  _atom_site_type_symbol
  _atom_site_label
  _atom_site_symmetry_multiplicity
  _atom_site_fract_x
  _atom_site_fract_y
  _atom_site_fract_z
  _atom_site_occupancy
  Cd  Cd1       1.0  0.48233376024497704  0.9179637607250939  0.8591860064897361  1.0000
  Cd  Cd2       1.0  0.5176602951383416  0.08204174169610919  0.14081457322251376  1.0000
  H   H1        1.0  0.9846512666823343  0.5665713805295455  0.15474250781487345  1.0000
  H   H2        1.0  0.015341025372649105  0.4334236406491386  0.8452556959079232  1.0000
  H   H3        1.0  0.39680223555564004  0.48759634874082275  0.920453328969927  1.0000
  H   H4        1.0  0.6031938597171945  0.5124115189901559  0.07954360089973987  1.0000
  H   H5        1.0  0.00882809240384575  0.8848787493485019  0.915234693193284  1.0000
  H   H6        1.0  0.9911611375913623  0.11512437822432992  0.0847645853044128  1.0000
  H   H7        1.0  0.5546644135289114  0.7185481014920115  0.6945116852225652  1.0000
  H   H8        1.0  0.4453408945838505  0.28144822204296827  0.3054876961156836  1.0000
  H   H9        1.0  0.6981274290396585  0.7268615575681777  0.5339660249993159  1.0000
  H   H10       1.0  0.30187977439140223  0.2731382766292327  0.4660335743602033  1.0000
  H   H11       1.0  0.7036618955592787  0.21401605127211104  0.5472190936308721  1.0000
  H   H12       1.0  0.29633715371943486  0.7859848502121097  0.45278193625792795  1.0000
  H   H13       1.0  0.5542691456502737  0.18400357104446394  0.7065870926011327  1.0000
  H   H14       1.0  0.4457375552117783  0.8159927572598137  0.2934147642656839  1.0000
  H   H15       1.0  0.8464949606082401  0.22193760450314667  0.422687025007015  1.0000
  H   H16       1.0  0.15350649223520213  0.7780644857065867  0.5773143287565078  1.0000
  H   H17       1.0  0.023407909392851416  0.2191993439616127  0.2681204864263123  1.0000
  H   H18       1.0  0.9765906316394466  0.7808038794595406  0.7318804376090285  1.0000
  H   H19       1.0  0.9909400952239696  0.7601765360477019  0.2545040316889883  1.0000
  H   H20       1.0  0.00906844618039322  0.23982331072691207  0.7454960828038041  1.0000
  H   H21       1.0  0.8087583643961269  0.7421399170122457  0.40574368153916396  1.0000
  H   H22       1.0  0.19124541897737402  0.2578633723335173  0.5942553822387  1.0000
  H   H23       1.0  0.805463220613966  0.038335083739248405  0.8300085322382884  1.0000
  H   H24       1.0  0.19453611930529047  0.9616646515712405  0.1699938575074356  1.0000
  H   H25       1.0  0.7205302177114988  0.0336134051308861  0.9344489925425705  1.0000
  H   H26       1.0  0.27946964871284763  0.9663840056400445  0.0655541565217135  1.0000
  C   C1        1.0  0.9717765337254464  0.7380249682314854  0.04110061653005199  1.0000
  C   C2        1.0  0.02821499595989962  0.2619735358525901  0.9588974284125555  1.0000
  C   C3        1.0  0.046909753861392345  0.6019838998473831  0.0871086054449961  1.0000
  C   C4        1.0  0.9530839070067998  0.39801695653329716  0.9128890569805037  1.0000
  C   C5        1.0  0.20114179481630157  0.5097860665906424  0.04466105796387148  1.0000
  C   C6        1.0  0.7988600202042379  0.4902137225032277  0.9553351739323404  1.0000
  C   C7        1.0  0.2785328315943829  0.5550958134996903  0.9578426114200057  1.0000
  C   C8        1.0  0.72146610813234  0.4449051036003339  0.04215449767822577  1.0000
  C   C9        1.0  0.05513367831783713  0.7800024254297995  0.9549900341891657  1.0000
  C   C10       1.0  0.9448569261679937  0.22000070951497008  0.04501106637200541  1.0000
  C   C11       1.0  0.8066062103396378  0.8411865018755904  0.08503078999675749  1.0000
  C   C12       1.0  0.19338335249085498  0.1588096264881855  0.9149735186488215  1.0000
  C   C13       1.0  0.28739733710851584  0.36221757416382866  0.09167911265437571  1.0000
  C   C14       1.0  0.7126103323742187  0.6377857711319805  0.9083169222676446  1.0000
  C   C15       1.0  0.5886732213438749  0.825960697018381  0.6580458591253091  1.0000
  C   C16       1.0  0.4113321050275474  0.1740356239139658  0.3419541756780333  1.0000
  C   C17       1.0  0.6696350887287823  0.832531993118877  0.5684208533764946  1.0000
  C   C18       1.0  0.33036839142292257  0.16746663717319174  0.4315785604401157  1.0000
  C   C19       1.0  0.7169613005289791  0.971968320210031  0.5246524158966466  1.0000
  C   C20       1.0  0.28304060578489043  0.028031455870667795  0.4753470833250547  1.0000
  C   C21       1.0  0.6723790845559992  0.10123320997760031  0.5756303625490489  1.0000
  C   C22       1.0  0.3276191532545101  0.8987653543898588  0.4243709115250383  1.0000
  C   C23       1.0  0.5898110375898256  0.08625183986964662  0.6648992853202884  1.0000
  C   C24       1.0  0.4101929873256296  0.9137444632802315  0.3351015412799755  1.0000
  C   C25       1.0  0.8131599130798436  0.9803263553272288  0.4307275674609201  1.0000
  C   C26       1.0  0.18684224735722674  0.0196722597850041  0.5692719846875107  1.0000
  C   C27       1.0  0.8732205155985185  0.1159366384548264  0.3885814267566374  1.0000
  C   C28       1.0  0.1267809189862561  0.8840654543575399  0.6114192735417988  1.0000
  C   C29       1.0  0.9725627718357329  0.11613425892619489  0.3020413656447971  1.0000
  C   C30       1.0  0.027437324775739624  0.883867821308968  0.697958819520359  1.0000
  C   C31       1.0  0.9560187232812398  0.860064044521657  0.2943819715342855  1.0000
  C   C32       1.0  0.04398775429751821  0.13993926737587972  0.705618775975232  1.0000
  C   C33       1.0  0.854089524401978  0.8509604163942086  0.3799988683627972  1.0000
  C   C34       1.0  0.1459137016265188  0.1490393748663266  0.6200004925270832  1.0000
  N   N1        1.0  0.20831268376134907  0.6907986771777459  0.9149187254351929  1.0000
  N   N2        1.0  0.7916807595009702  0.3092033349661349  0.08508019099377151  1.0000
  N   N3        1.0  0.5508300765923907  0.9504422365021694  0.7058357455125872  1.0000
  N   N4        1.0  0.44917393006440426  0.049554069250334  0.29416442762258305  1.0000
  N   N5        1.0  0.0165810799243787  0.989141627323029  0.2561650313710899  1.0000
  N   N6        1.0  0.983420608783611  0.0108593045208636  0.7438357218540759  1.0000
  O   O1        1.0  0.29063345391622164  0.7388855173503969  0.8352817947741189  1.0000
  O   O2        1.0  0.7093560975594428  0.261122266673496  0.16471778714993232  1.0000
  O   O3        1.0  0.753734555572045  0.9708260118811722  0.040445984587563544  1.0000
  O   O4        1.0  0.246254663340018  0.029172414995834096  0.9595640993904198  1.0000
  O   O5        1.0  0.7323227782297367  0.8022002880988593  0.1627468887456089  1.0000
  O   O6        1.0  0.2676709122519584  0.1977889100190637  0.8372561538665124  1.0000
  O   O7        1.0  0.23073266200388792  0.3314021457848639  0.17375214265152292  1.0000
  O   O8        1.0  0.7692835744049732  0.6686047756620254  0.8262460324930461  1.0000
  O   O9        1.0  0.41665201725034967  0.2784748469457554  0.043021592236428284  1.0000
  O   O10       1.0  0.5833433255095744  0.7215237234988975  0.9569708099899472  1.0000
  O   O11       1.0  0.6907145772471566  0.06666026668234791  0.8737257929129143  1.0000
  O   O12       1.0  0.3092852709185225  0.9333371466912153  0.12627670268626903  1.0000
