data_image0
_chemical_formula_structural       Dy4Cu4H32C56N8O32
_chemical_formula_sum              "Dy4 Cu4 H32 C56 N8 O32"
_cell_length_a       9.141794167
_cell_length_b       9.519032486088138
_cell_length_c       21.51
_cell_angle_alpha    90.0
_cell_angle_beta     90.0
_cell_angle_gamma    116.30204893783937

_space_group_name_H-M_alt    "P 1"
_space_group_IT_number       1

loop_
  _space_group_symop_operation_xyz
  'x, y, z'

loop_
  _atom_site_type_symbol
  _atom_site_label
  _atom_site_symmetry_multiplicity
  _atom_site_fract_x
  _atom_site_fract_y
  _atom_site_fract_z
  _atom_site_occupancy
  Dy  Dy1       1.0  0.8764185575320769  0.646890361029925  0.0086350534635073  1.0000
  Dy  Dy2       1.0  0.6235843671420511  0.3531081596296275  0.50863458856346  1.0000
  Dy  Dy3       1.0  0.12359112700372074  0.35311401886778543  0.991366806136682  1.0000
  Dy  Dy4       1.0  0.3764106314596773  0.6468809862488669  0.4913658763365873  1.0000
  Cu  Cu1       1.0  0.5448791677241402  0.6960153856206759  0.14664574616457318  1.0000
  Cu  Cu2       1.0  0.9551286355623037  0.3039913379722989  0.6466452812645257  1.0000
  Cu  Cu3       1.0  0.45511736523696555  0.3039936816675635  0.8533556485355618  1.0000
  Cu  Cu4       1.0  0.044880533345612206  0.6960071826872536  0.3533542538354268  1.0000
  H   H1        1.0  0.2736953311192707  0.030369603236899002  0.9300213854021421  1.0000
  H   H2        1.0  0.22629110053937038  0.9696277455750176  0.43002278010227707  1.0000
  H   H3        1.0  0.7262990015632056  0.9696418077466049  0.06997629009762818  1.0000
  H   H4        1.0  0.7737175026435352  0.030374290627428  0.5699693165969322  1.0000
  H   H5        1.0  0.5680345929123335  0.7798985828310379  0.932404927940496  1.0000
  H   H6        1.0  0.9319507921541118  0.2201069689143083  0.43240213854021187  1.0000
  H   H7        1.0  0.4319608085987525  0.22011751554299513  0.06759507205950399  1.0000
  H   H8        1.0  0.06804310004616104  0.7798845206594507  0.5675969316596934  1.0000
  H   H9        1.0  0.9957139441571314  0.6695328009798944  0.2217219897721989  1.0000
  H   H10       1.0  0.5042933435014233  0.3304680633749228  0.7217238493723883  1.0000
  H   H11       1.0  0.00430720730260253  0.3304750944607164  0.7782784751278484  1.0000
  H   H12       1.0  0.4957027239289218  0.6695257698941006  0.2782784751278484  1.0000
  H   H13       1.0  0.1532350087657761  0.2538702428941448  0.2751357508135754  1.0000
  H   H14       1.0  0.34676509009543827  0.7461282777654006  0.77513668061367  1.0000
  H   H15       1.0  0.846766515526177  0.746125934070136  0.7248656438865666  1.0000
  H   H16       1.0  0.65324021893165  0.2538761021323097  0.2248609948861002  1.0000
  H   H17       1.0  0.10568786889290752  0.2961645676366231  0.1616754997675471  1.0000
  H   H18       1.0  0.3943002599407635  0.7038222345465996  0.6616778242677839  1.0000
  H   H19       1.0  0.8943065765080931  0.7038257500895  0.8383263598326351  1.0000
  H   H20       1.0  0.6056854720156651  0.2961610520937299  0.3383217108321687  1.0000
  H   H21       1.0  0.7796136486290948  0.0013816083584004  0.8713751743375154  1.0000
  H   H22       1.0  0.7203756213667347  0.9986133967582519  0.37137145513714387  1.0000
  H   H23       1.0  0.22038233113128314  0.9986286307774676  0.1286243607624371  1.0000
  H   H24       1.0  0.27962213071435826  0.0013722335773423  0.6286262203626194  1.0000
  H   H25       1.0  0.717369189562767  0.2193054251338609  0.8368507670850747  1.0000
  H   H26       1.0  0.7826195397566167  0.7806884081351555  0.3368530915853114  1.0000
  H   H27       1.0  0.282622427213184  0.7807024703067427  0.1631441190144116  1.0000
  H   H28       1.0  0.21738800712194722  0.2193065969814967  0.6631422594142293  1.0000
  H   H29       1.0  0.13026265423863492  0.43285004730767446  0.3553937703393757  1.0000
  H   H30       1.0  0.36974615806715866  0.5671555044376646  0.8553970246397  1.0000
  H   H31       1.0  0.8697486773750711  0.5671531607424003  0.6446076243607592  1.0000
  H   H32       1.0  0.6302640295722455  0.43285707839346804  0.1446052998605296  1.0000
  C   C1        1.0  0.9895219000271921  0.9925772096046331  0.9641032078103179  1.0000
  C   C2        1.0  0.510464666586401  0.0074119362738614  0.46410367271036523  1.0000
  C   C3        1.0  0.010483962200623904  0.0074259984454486  0.035899581589959  1.0000
  C   C4        1.0  0.4895068825395655  0.9925643192806747  0.5358977219897696  1.0000
  C   C5        1.0  0.27111102086038846  0.7562389791362918  0.9712575546257582  1.0000
  C   C6        1.0  0.22887593895041652  0.24376188521852526  0.4712561599256162  1.0000
  C   C7        1.0  0.7288915472116173  0.2437665726090543  0.028741980474201498  1.0000
  C   C8        1.0  0.7711140683204718  0.7562401509839205  0.5287415155741542  1.0000
  C   C9        1.0  0.013440256170092375  0.5182367250301851  0.11890794979079539  1.0000
  C   C10       1.0  0.4865565735838758  0.4817594519341029  0.6189093444909374  1.0000
  C   C11       1.0  0.9865705347671678  0.4817653111722606  0.8810934449093464  1.0000
  C   C12       1.0  0.5134340620334257  0.518227350249127  0.3810906555090625  1.0000
  C   C13       1.0  0.4034254389984683  0.8874273215645445  0.9353282194328185  1.0000
  C   C14       1.0  0.09656263973807461  0.1125688553997364  0.4353300790330081  1.0000
  C   C15       1.0  0.5965689312568472  0.1125770583331658  0.0646694560669445  1.0000
  C   C16       1.0  0.9034361435987889  0.8874284934121803  0.5646652719665254  1.0000
  C   C17       1.0  0.382130092573405  0.017713648808801  0.9168335657833566  1.0000
  C   C18       1.0  0.11785310755082197  0.9822743252220577  0.41683449558345126  1.0000
  C   C19       1.0  0.617861021098939  0.9822860436983801  0.083164574616454  1.0000
  C   C20       1.0  0.8821538610784501  0.0177265391327595  0.5831608554160823  1.0000
  C   C21       1.0  0.5471594080768085  0.8792114978149783  0.9181301720130151  1.0000
  C   C22       1.0  0.9528320496733755  0.12078350730167392  0.41812877731288006  1.0000
  C   C23       1.0  0.4528398533150977  0.1207987413208969  0.0818684332868429  1.0000
  C   C24       1.0  0.04716568988344255  0.8792044667291847  0.5818675034867482  1.0000
  C   C25       1.0  0.03253051626207795  0.5779224404826024  0.2323579730357963  1.0000
  C   C26       1.0  0.4674695700748543  0.4220784238722075  0.7323584379358437  1.0000
  C   C27       1.0  0.9674846376596093  0.4220819394151079  0.7676429567642984  1.0000
  C   C28       1.0  0.5325231906753913  0.5779200967873379  0.2676415620641563  1.0000
  C   C29       1.0  0.1195288146081523  0.3456798174889144  0.2611985123198508  1.0000
  C   C30       1.0  0.380470165327317  0.6543233905611672  0.7611957229195738  1.0000
  C   C31       1.0  0.8804732628845287  0.6543151876277378  0.7388038121803788  1.0000
  C   C32       1.0  0.6195312963432258  0.3456845048794435  0.2387986982798722  1.0000
  C   C33       1.0  0.09263032190931143  0.3677972696996364  0.1989163179916318  1.0000
  C   C34       1.0  0.407363754365285  0.6322024228075449  0.6989167828916791  1.0000
  C   C35       1.0  0.9073722837355405  0.6322012509599091  0.8010855416085575  1.0000
  C   C36       1.0  0.5926289938606856  0.3677984415472721  0.30108182240817877  1.0000
  C   C37       1.0  0.6635288073624324  0.0005367062155628  0.8833449558344951  1.0000
  C   C38       1.0  0.8364550558689174  0.9994465804247668  0.38334077173407616  1.0000
  C   C39       1.0  0.3364634001870924  0.9994629862916183  0.1166559739655995  1.0000
  C   C40       1.0  0.16354158981071984  0.0005413936060918  0.6166555090655521  1.0000
  C   C41       1.0  0.6311526209328093  0.12379515571650761  0.865095769409578  1.0000
  C   C42       1.0  0.8688300983242315  0.8761975057048801  0.365094374709436  1.0000
  C   C43       1.0  0.3688384551666887  0.8762115678764673  0.13490283589028707  1.0000
  C   C44       1.0  0.1311719666441675  0.1237998431070366  0.6349009762900977  1.0000
  C   C45       1.0  0.046877086401771406  0.4862499720608113  0.18443142724314038  1.0000
  C   C46       1.0  0.4531175305492781  0.5137508922940057  0.6844318921431877  1.0000
  C   C47       1.0  0.9531298822275076  0.5137508922940057  0.8155676429567649  1.0000
  C   C48       1.0  0.546873595647348  0.486246456517911  0.3155671780567175  1.0000
  C   C49       1.0  0.10553168669847682  0.4436052648762896  0.30653231055323  1.0000
  C   C50       1.0  0.3944749378529551  0.5564002868690494  0.80653231055323  1.0000
  C   C51       1.0  0.8944774822094317  0.5563932557832558  0.6934700139469996  1.0000
  C   C52       1.0  0.6055341684335502  0.4436099522668187  0.1934667596466753  1.0000
  C   C53       1.0  0.49557583362071256  0.5210163476138376  0.034248256624827896  1.0000
  C   C54       1.0  0.004429156377099763  0.47898803228387277  0.5342459321245911  1.0000
  C   C55       1.0  0.5044376606987839  0.47899154782677306  0.9657554625755438  1.0000
  C   C56       1.0  0.9955695768626427  0.5210186913091022  0.4657540678754089  1.0000
  N   N1        1.0  0.4925949378243502  0.1336375039796209  0.8812747559274781  1.0000
  N   N2        1.0  0.007393115863628566  0.8663633603751961  0.38127801022780256  1.0000
  N   N3        1.0  0.5073977477802105  0.866375078851519  0.11872152487215  1.0000
  N   N4        1.0  0.9926165937207329  0.13363633213198517  0.618717340771731  1.0000
  N   N5        1.0  0.06350013550842705  0.5596451329627001  0.2924783821478414  1.0000
  N   N6        1.0  0.43650435138577853  0.44035104400158803  0.792482101348213  1.0000
  N   N7        1.0  0.936510655428826  0.4403569032397457  0.7075230125523007  1.0000
  N   N8        1.0  0.5634971603818926  0.5596474766579647  0.207522082752206  1.0000
  O   O1        1.0  0.16321139779978472  0.7848179991911408  0.9977368665736889  1.0000
  O   O2        1.0  0.3367842754555923  0.2151898962494698  0.49773361227336466  1.0000
  O   O3        1.0  0.8367933830751397  0.2151828651636762  0.0022668526266826994  1.0000
  O   O4        1.0  0.6632094915018669  0.7848250302769344  0.5022677824267774  1.0000
  O   O5        1.0  0.629083891152689  0.6194117059017401  0.0589125987912595  1.0000
  O   O6        1.0  0.8709217494279641  0.3805903303007057  0.5589093444909352  1.0000
  O   O7        1.0  0.3709263591081182  0.3805891584530698  0.9410911204091121  1.0000
  O   O8        1.0  0.12908080611975953  0.6194175651399051  0.4410901906090173  1.0000
  O   O9        1.0  0.9109617748442743  0.8553362741559027  0.942198047419808  1.0000
  O   O10       1.0  0.5890258856464925  0.1446528717225917  0.4421975825197606  1.0000
  O   O11       1.0  0.08904626261361412  0.14466927758944342  0.057804741980476096  1.0000
  O   O12       1.0  0.4109484044345564  0.8553222119843156  0.5578056717805637  1.0000
  O   O13       1.0  0.9471074560173562  0.6091568672720913  0.1111529521152974  1.0000
  O   O14       1.0  0.5529003597933624  0.3908475126256192  0.6111524872152501  1.0000
  O   O15       1.0  0.05290826362933392  0.390843997082726  0.8888479776847973  1.0000
  O   O16       1.0  0.4470984360677834  0.6091474924910332  0.38884704788470253  1.0000
  O   O17       1.0  0.05319851475373845  0.4525933362155002  0.0754230590423077  1.0000
  O   O18       1.0  0.4467955865694222  0.547401668901152  0.5754239888424024  1.0000
  O   O19       1.0  0.9468090070762684  0.5474063562916811  0.924579265457929  1.0000
  O   O20       1.0  0.5531901203384422  0.4525863051297137  0.42457601115759747  1.0000
  O   O21       1.0  0.27806950462551333  0.625988114813822  0.970647140864713  1.0000
  O   O22       1.0  0.22191362035302828  0.3740139213886238  0.4706448163644835  1.0000
  O   O23       1.0  0.7219363325537387  0.3740197806267886  0.029352394235239398  1.0000
  O   O24       1.0  0.7780654606703692  0.6259857711185575  0.5293509995350973  1.0000
  O   O25       1.0  0.05272528058500111  0.11834372053137092  0.9332366341236663  1.0000
  O   O26       1.0  0.4472661173559162  0.8816454253471167  0.4332361692236191  1.0000
  O   O27       1.0  0.9472811223192679  0.8816606593663394  0.066765225476523  1.0000
  O   O28       1.0  0.5527059849707712  0.11832965835978368  0.5667638307763809  1.0000
  O   O29       1.0  0.35959773952685486  0.4575338458329909  0.06116364481636789  1.0000
  O   O30       1.0  0.14040614406949462  0.5424728777599839  0.5611631799163206  1.0000
  O   O31       1.0  0.6404086508531321  0.5424728777599839  0.9388396094839635  1.0000
  O   O32       1.0  0.8595996805854754  0.4575373613758842  0.43883821478382146  1.0000
