data_image0
_chemical_formula_structural       AlH18C24N9O6
_chemical_formula_sum              "Al1 H18 C24 N9 O6"
_cell_length_a       3.8833971049626688
_cell_length_b       15.818090919124355
_cell_length_c       16.043360223100887
_cell_angle_alpha    59.41087582841537
_cell_angle_beta     91.2907459964409
_cell_angle_gamma    87.5279793888706

_space_group_name_H-M_alt    "P 1"
_space_group_IT_number       1

loop_
  _space_group_symop_operation_xyz
  'x, y, z'

loop_
  _atom_site_type_symbol
  _atom_site_label
  _atom_site_symmetry_multiplicity
  _atom_site_fract_x
  _atom_site_fract_y
  _atom_site_fract_z
  _atom_site_occupancy
  Al  Al1       1.0  0.9690963075609176  0.5046072501282595  0.4981190728620179  1.0000
  H   H1        1.0  0.1571021841293003  0.8481833628329911  0.6113080639527697  1.0000
  H   H2        1.0  0.7263369690601423  0.6009714785596357  0.849733303357802  1.0000
  H   H3        1.0  0.7320260288544842  0.041312848184467996  0.608110955805188  1.0000
  H   H4        1.0  0.289168077089144  0.0481609859625323  0.847722254139015  1.0000
  H   H5        1.0  0.7161532806938241  0.8455085124776076  0.045320401501555946  1.0000
  H   H6        1.0  0.2324367606967428  0.6063518311052505  0.04551412159180771  1.0000
  H   H7        1.0  0.8567905687799852  0.4705480776078446  0.7230263770804587  1.0000
  H   H8        1.0  0.9596306947588503  0.4781040114686378  0.8233611154090145  1.0000
  H   H9        1.0  0.03191154121284263  0.7266992901093589  0.47613560069731176  1.0000
  H   H10       1.0  0.9166474064169776  0.8249244815110404  0.4896518821916019  1.0000
  H   H11       1.0  0.862432669552561  0.300782757894723  0.47447101105165507  1.0000
  H   H12       1.0  0.9457605532021346  0.18821196969329182  0.48516315378130076  1.0000
  H   H13       1.0  0.17574457402282212  0.3111732926003016  0.7245722566902445  1.0000
  H   H14       1.0  0.1006860799813936  0.20090651065733306  0.8252427580100987  1.0000
  H   H15       1.0  0.8122759447496859  0.7265268859243291  0.3043390340481268  1.0000
  H   H16       1.0  0.9147607810810641  0.8228958100587389  0.19414730056455937  1.0000
  H   H17       1.0  0.08974089782704205  0.47873283841815345  0.3005045200490885  1.0000
  H   H18       1.0  0.0075386927497618095  0.4877837643045097  0.19057102797070521  1.0000
  C   C1        1.0  0.44948773632120254  0.5813312012362104  0.34565145867406255  1.0000
  C   C2        1.0  0.4578399044812898  0.5792318118165198  0.5757855200966662  1.0000
  C   C3        1.0  0.5020229414363087  0.3498137871920548  0.5753828852928963  1.0000
  C   C4        1.0  0.492205601191408  0.9274086397001684  0.7857850603692856  1.0000
  C   C5        1.0  0.4579114995483239  0.783377178479313  0.7875779176744832  1.0000
  C   C6        1.0  0.4791168697425121  0.7832316506098707  0.9293427739432122  1.0000
  C   C7        1.0  0.266298158858362  0.7243467913496743  0.5916194791749164  1.0000
  C   C8        1.0  0.2823910770240732  0.7746820741999086  0.6424969852011846  1.0000
  C   C9        1.0  0.4444376505260267  0.7294306233309699  0.7348014824143337  1.0000
  C   C10       1.0  0.6005109607885969  0.6345703219384546  0.7775918696495984  1.0000
  C   C11       1.0  0.6172039528236155  0.5854280375653217  0.7255328634432705  1.0000
  C   C12       1.0  0.44577148082612433  0.6294235437198241  0.6311981763608615  1.0000
  C   C13       1.0  0.6358006653191594  0.0839062354650437  0.6397968027472702  1.0000
  C   C14       1.0  0.654776920882469  0.18650913488080081  0.5894977423901155  1.0000
  C   C15       1.0  0.5141171805717377  0.2422534391945277  0.6300398080350008  1.0000
  C   C16       1.0  0.3774879720518314  0.1908380675623818  0.724468605604038  1.0000
  C   C17       1.0  0.38784017665345527  0.08789929600861507  0.7754209944179282  1.0000
  C   C18       1.0  0.5068144503117225  0.0356051607170329  0.7321483881094226  1.0000
  C   C19       1.0  0.6063684042972498  0.7741403621567783  0.0858863118242967  1.0000
  C   C20       1.0  0.6112537442468949  0.7250965674768252  0.18729311001432353  1.0000
  C   C21       1.0  0.4562094955749032  0.6323726955764428  0.2400363683330016  1.0000
  C   C22       1.0  0.3123741315852868  0.5904745555189309  0.18693176807641998  1.0000
  C   C23       1.0  0.3366939983544198  0.6385437144367503  0.08597301987952481  1.0000
  C   C24       1.0  0.4754727861257065  0.7303353293819586  0.03627475024384102  1.0000
  N   N1        1.0  0.4703999076143859  0.8818762547233023  0.7343853925628849  1.0000
  N   N2        1.0  0.46031518967763674  0.730533202684839  0.8850080290267359  1.0000
  N   N3        1.0  0.49877311572269206  0.8813909009594382  0.8830907423131512  1.0000
  N   N4        1.0  0.7822735796313083  0.49280083691919424  0.769571803909081  1.0000
  N   N5        1.0  0.09816288194490849  0.7714929078105045  0.5012832908090632  1.0000
  N   N6        1.0  0.7860970513724511  0.23173020405880607  0.49871930889160165  1.0000
  N   N7        1.0  0.25585283501660444  0.23947044333720408  0.7699320743725838  1.0000
  N   N8        1.0  0.7456851552047468  0.7714246864400423  0.23268030121769098  1.0000
  N   N9        1.0  0.1691088646420411  0.5005864050029629  0.2329111901717981  1.0000
  O   O1        1.0  0.2654390170757281  0.3980870293274279  0.5926124596162695  1.0000
  O   O2        1.0  0.22376268481450273  0.517691390329027  0.3903765749443268  1.0000
  O   O3        1.0  0.21914554977337997  0.6001314953342385  0.5094969718192036  1.0000
  O   O4        1.0  0.7230194780814189  0.39550326882728365  0.51070368800702  1.0000
  O   O5        1.0  0.7074793505341505  0.5147743149494914  0.5934590765516037  1.0000
  O   O6        1.0  0.6738496508551747  0.6004419153901992  0.39368117933372576  1.0000
