data_image0
_chemical_formula_structural       Cd3H16C8N16Cl6
_chemical_formula_sum              "Cd3 H16 C8 N16 Cl6"
_cell_length_a       9.115634924337106
_cell_length_b       9.418468351446347
_cell_length_c       9.022513857441972
_cell_angle_alpha    71.48087220791851
_cell_angle_beta     72.00140829236295
_cell_angle_gamma    60.9424837933969

_space_group_name_H-M_alt    "P 1"
_space_group_IT_number       1

loop_
  _space_group_symop_operation_xyz
  'x, y, z'

loop_
  _atom_site_type_symbol
  _atom_site_label
  _atom_site_symmetry_multiplicity
  _atom_site_fract_x
  _atom_site_fract_y
  _atom_site_fract_z
  _atom_site_occupancy
  Cd  Cd1       1.0  9.271085900857026e-06  0.9999978206134655  2.5192614075548295e-06  1.0000
  Cd  Cd2       1.0  0.878856412112775  0.3724668641801614  0.6469562471475282  1.0000
  Cd  Cd3       1.0  0.12115927945217207  0.6275272236795428  0.3530170126838499  1.0000
  H   H1        1.0  0.8436950194693579  0.2879578287973387  0.27138087192542304  1.0000
  H   H2        1.0  0.15628617660945576  0.7120468868070801  0.7286106889334004  1.0000
  H   H3        1.0  0.5947538424586155  0.6542331053458312  0.9031743166894085  1.0000
  H   H4        1.0  0.4052887485602881  0.34577382173048227  0.09678527072461654  1.0000
  H   H5        1.0  0.27081042640333647  0.1514393181085865  0.07449397563058112  1.0000
  H   H6        1.0  0.729177408244432  0.8485821984089907  0.9255587264466525  1.0000
  H   H7        1.0  0.294785287829093  0.8147835513467213  0.5162562577475639  1.0000
  H   H8        1.0  0.7052384585521311  0.18516121403911964  0.4837462112932014  1.0000
  H   H9        1.0  0.3792650805547311  0.034369045245277605  0.48047335672801217  1.0000
  H   H10       1.0  0.6204009486404091  0.9657779554013571  0.519702314584009  1.0000
  H   H11       1.0  0.2941773030532602  0.20640259438606984  0.356650853002101  1.0000
  H   H12       1.0  0.7059175006132962  0.7936093436137169  0.6432398998309093  1.0000
  H   H13       1.0  0.7254992083270224  0.6315057149569937  0.24381380712448233  1.0000
  H   H14       1.0  0.2745011644002986  0.3684973098714011  0.7561701401134895  1.0000
  H   H15       1.0  0.5506535414298952  0.6013568528947245  0.3067994337785647  1.0000
  H   H16       1.0  0.4493502092991548  0.39864364548529346  0.6931809693935447  1.0000
  C   C1        1.0  0.7971591074986932  0.3453944848874712  0.16056167370722815  1.0000
  C   C2        1.0  0.20283607909006923  0.6546098907267888  0.8394245480793783  1.0000
  C   C3        1.0  0.6721851605020462  0.5354868871411397  0.9696268277142578  1.0000
  C   C4        1.0  0.32784343870078203  0.46452037308764443  0.030340318111626505  1.0000
  C   C5        1.0  0.2531979106944888  0.054736268388054996  0.17201176088677528  1.0000
  C   C6        1.0  0.746798009590535  0.9452716050919248  0.8280262853847158  1.0000
  C   C7        1.0  0.26085302144848305  0.8833147145204523  0.4007512690859939  1.0000
  C   C8        1.0  0.7391626047415089  0.11665474730521912  0.5992589126523239  1.0000
  N   N1        1.0  0.8323340353840862  0.273083833021424  0.04279613101549273  1.0000
  N   N2        1.0  0.16767863787272566  0.72692010991274  0.9571859136879222  1.0000
  N   N3        1.0  0.7534919201309975  0.39280321122152634  0.9218767406172004  1.0000
  N   N4        1.0  0.24654278492312895  0.6071977508044241  0.07809501114731883  1.0000
  N   N5        1.0  0.19046506491675771  0.8505284604031902  0.31528093451551337  1.0000
  N   N6        1.0  0.809568824739607  0.14944429225187866  0.6847036564165092  1.0000
  N   N7        1.0  0.18367823326929064  0.9594602863679638  0.17186604714155596  1.0000
  N   N8        1.0  0.8163524736134917  0.04053087946614649  0.8281356535561312  1.0000
  N   N9        1.0  0.6981209935863575  0.5111820531960021  0.11790403503818671  1.0000
  N   N10       1.0  0.3018853309758003  0.48882328623566434  0.8820750883149628  1.0000
  N   N11       1.0  0.3007557251829098  0.0112771929621829  0.3147863141982369  1.0000
  N   N12       1.0  0.699232874380982  0.9887124667751404  0.6852566587463045  1.0000
  N   N13       1.0  0.37828440105021593  0.0827873629231561  0.36123972584356767  1.0000
  N   N14       1.0  0.621694952094131  0.9171692424683826  0.6388668441406151  1.0000
  N   N15       1.0  0.6276333532586306  0.6356915327831416  0.2060483290349992  1.0000
  N   N16       1.0  0.37236935241762853  0.36431144164810547  0.7939326939629437  1.0000
  Cl  Cl1       1.0  0.014966112474752448  0.4053031639370558  0.34239228724501186  1.0000
  Cl  Cl2       1.0  0.9850493003867412  0.5946970687818619  0.6575779334061805  1.0000
  Cl  Cl3       1.0  0.5840946625612345  0.6010272136276597  0.5940877932088781  1.0000
  Cl  Cl4       1.0  0.4159198160930728  0.39894237254309667  0.4058916702247329  1.0000
  Cl  Cl5       1.0  0.1619082999208672  0.13244117202880548  0.7445083164268452  1.0000
  Cl  Cl6       1.0  0.8381160654509401  0.867551427910108  0.25547825655257833  1.0000
