data_image0
_chemical_formula_structural       AlH21C45Cl6O6
_chemical_formula_sum              "Al1 H21 C45 Cl6 O6"
_cell_length_a       3.9565992906606873
_cell_length_b       23.585202544908313
_cell_length_c       23.537740601288903
_cell_angle_alpha    60.04336494702952
_cell_angle_beta     87.69160515429031
_cell_angle_gamma    87.24704412804469

_space_group_name_H-M_alt    "P 1"
_space_group_IT_number       1

loop_
  _space_group_symop_operation_xyz
  'x, y, z'

loop_
  _atom_site_type_symbol
  _atom_site_label
  _atom_site_symmetry_multiplicity
  _atom_site_fract_x
  _atom_site_fract_y
  _atom_site_fract_z
  _atom_site_occupancy
  Al  Al1       1.0  0.0010173097699492713  0.5001400962522525  0.49965070204045475  1.0000
  H   H1        1.0  0.4477163777694814  0.32422453039615823  0.6755504302514905  1.0000
  H   H2        1.0  0.44626847174687617  0.25730586866988153  0.796391130438735  1.0000
  H   H3        1.0  0.8090817195211671  0.1599279359498595  0.016620449359180608  1.0000
  H   H4        1.0  0.5532521004945677  0.8075453869447528  0.2582583103429458  1.0000
  H   H5        1.0  0.2503322403838625  0.8938274398944372  0.23247407910816503  1.0000
  H   H6        1.0  0.24843451819671  0.013110281454707703  0.16818918703476976  1.0000
  H   H7        1.0  0.5060885260402159  0.10444788195335519  0.10724341371928148  1.0000
  H   H8        1.0  0.4747106288819368  0.6752344982324557  0.5002935615332332  1.0000
  H   H9        1.0  0.4720996337776171  0.7955132824966076  0.4474769480084147  1.0000
  H   H10       1.0  0.7955015172464285  0.0156745380398107  0.3215697135609047  1.0000
  H   H11       1.0  0.6416152231986773  0.2588767136238417  0.4327191389480303  1.0000
  H   H12       1.0  0.2953610362631808  0.23400086610452325  0.3777336599301788  1.0000
  H   H13       1.0  0.27475495637965963  0.16973937958029953  0.32232049628615994  1.0000
  H   H14       1.0  0.5387673567296646  0.10737640735587212  0.2881570153291192  1.0000
  H   H15       1.0  0.4947376442156183  0.5003013152315461  0.32296068431478625  1.0000
  H   H16       1.0  0.49865535896004337  0.4457589380134125  0.2565361910430396  1.0000
  H   H17       1.0  0.8362996079916414  0.3180089967986319  0.15896346418561078  1.0000
  H   H18       1.0  0.572490491512518  0.43214938222681815  0.8076580622612891  1.0000
  H   H19       1.0  0.22324509493186184  0.3756767539749363  0.8929645048133277  1.0000
  H   H20       1.0  0.2208533963344479  0.3201180239973525  0.013253152994003922  1.0000
  H   H21       1.0  0.5303402664771895  0.28790970954926115  0.10413743605582225  1.0000
  C   C1        1.0  0.49134909822632283  0.45255824636097947  0.6002635338515814  1.0000
  C   C2        1.0  0.5277214611916393  0.44724264060272395  0.4518196185663966  1.0000
  C   C3        1.0  0.4870490365000678  0.6005438602948062  0.4464423084257659  1.0000
  C   C4        1.0  0.47033729651038675  0.34740054387263103  0.7053204453886506  1.0000
  C   C5        1.0  0.47447532294371797  0.30979663159433807  0.7732288675529372  1.0000
  C   C6        1.0  0.6739368709802209  0.23871160704670302  0.9221824563752602  1.0000
  C   C7        1.0  0.6733103290146119  0.20692880134092212  0.9904410549373278  1.0000
  C   C8        1.0  0.5021728228915734  0.7120374531531583  0.3414789377459613  1.0000
  C   C9        1.0  0.5247462165974356  0.7798378196022427  0.31143873451555476  1.0000
  C   C10       1.0  0.3797486949224265  0.9204941665429445  0.2514664366953668  1.0000
  C   C11       1.0  0.3776024322502635  0.9883273729716822  0.21491069294161474  1.0000
  C   C12       1.0  0.49079320394115206  0.41560461598940907  0.6734541264389899  1.0000
  C   C13       1.0  0.5116198448436649  0.339099361595899  0.8118770950794382  1.0000
  C   C14       1.0  0.5181305826003422  0.30124892819383586  0.8843902948221182  1.0000
  C   C15       1.0  0.5155608699553512  0.23526694613280344  0.02501892493631889  1.0000
  C   C16       1.0  0.5178620683208875  0.20017023413366541  0.09748198831866964  1.0000
  C   C17       1.0  0.5146223099421333  0.13159264651314836  0.13341450426247542  1.0000
  C   C18       1.0  0.4852706558424629  0.7051604666205551  0.4469502463479527  1.0000
  C   C19       1.0  0.49033843291319107  0.7728463352603185  0.4170992414779703  1.0000
  C   C20       1.0  0.6692542322372288  0.9218888004568341  0.3377249647528087  1.0000
  C   C21       1.0  0.6686822523005631  0.9900094319304173  0.30125008398953657  1.0000
  C   C22       1.0  0.5800146392483115  0.3426510477387339  0.4451530643939348  1.0000
  C   C23       1.0  0.6008617369970963  0.31182719309434503  0.4076623180383903  1.0000
  C   C24       1.0  0.4230064498468239  0.25166294117710925  0.3302135017956471  1.0000
  C   C25       1.0  0.41119113903461374  0.2152267426402261  0.29886376802645026  1.0000
  C   C26       1.0  0.48833952570069533  0.6734799200396892  0.4100054342970408  1.0000
  C   C27       1.0  0.51674851839541  0.8117981548840947  0.3484468897055421  1.0000
  C   C28       1.0  0.5262378702871756  0.8841556093122381  0.31392713367751657  1.0000
  C   C29       1.0  0.522938982793967  0.02493536916001911  0.23927711688919112  1.0000
  C   C30       1.0  0.522394979126915  0.09728262279834611  0.2021138734972964  1.0000
  C   C31       1.0  0.5328412426104024  0.1332256343760463  0.23476404971287212  1.0000
  C   C32       1.0  0.5228991328728302  0.4471350913664125  0.3464970899336705  1.0000
  C   C33       1.0  0.5302040083588507  0.4164138206229425  0.30919507200550794  1.0000
  C   C34       1.0  0.7224111121071388  0.3352116197680601  0.23859926085992098  1.0000
  C   C35       1.0  0.7113865706113884  0.2989577383243472  0.20677289820745398  1.0000
  C   C36       1.0  0.5192252497569285  0.4453428672223865  0.7116800431277568  1.0000
  C   C37       1.0  0.5353055025142552  0.4075267079355244  0.7797838114823958  1.0000
  C   C38       1.0  0.35934659312188433  0.32870414653617536  0.9202762732040453  1.0000
  C   C39       1.0  0.35741601147445584  0.29732112785859494  0.9882994006999153  1.0000
  C   C40       1.0  0.5444511768989387  0.41094401754533283  0.41489862996824184  1.0000
  C   C41       1.0  0.5736468821940335  0.34801699053414126  0.33906662609075505  1.0000
  C   C42       1.0  0.5779289073038141  0.31278096899754354  0.30175873112213475  1.0000
  C   C43       1.0  0.5543606498186264  0.23855562450111023  0.23578774210965747  1.0000
  C   C44       1.0  0.537704806170474  0.2017669198229726  0.20034801127665247  1.0000
  C   C45       1.0  0.5279370918021798  0.23457971243357895  0.13163990802690506  1.0000
  Cl  Cl1       1.0  0.6158305869651812  0.29512221002909916  0.5294028327528009  1.0000
  Cl  Cl2       1.0  0.5545270768975926  0.5292959631972849  0.6750999722054798  1.0000
  Cl  Cl3       1.0  0.511214088859738  0.6766372080913216  0.2923309761472621  1.0000
  Cl  Cl4       1.0  0.9315094192717768  0.40856400650494606  0.1961135106891163  1.0000
  Cl  Cl5       1.0  0.8887309279281297  0.1971676569852008  0.887355887645057  1.0000
  Cl  Cl6       1.0  0.8668361707049713  0.8876349237471499  0.4129905437521515  1.0000
  O   O1        1.0  0.25836086883770554  0.5719086205729694  0.43469750387174594  1.0000
  O   O2        1.0  0.24849425429842853  0.4931750882595338  0.5714553201562537  1.0000
  O   O3        1.0  0.28490357063954963  0.4357539721514527  0.49284743113305024  1.0000
  O   O4        1.0  0.716024245104606  0.5719489914400456  0.48922888328919345  1.0000
  O   O5        1.0  0.7541388569451682  0.48913601735505113  0.4376113014976111  1.0000
  O   O6        1.0  0.7354955520468638  0.4385299619532502  0.5719911189097715  1.0000
