data_image0
_chemical_formula_structural       Zn2H48C56N2O20
_chemical_formula_sum              "Zn2 H48 C56 N2 O20"
_cell_length_a       14.365908505488541
_cell_length_b       16.87556591462552
_cell_length_c       17.535361296745442
_cell_angle_alpha    89.78335803651053
_cell_angle_beta     91.19971383053982
_cell_angle_gamma    90.04825433957724

_space_group_name_H-M_alt    "P 1"
_space_group_IT_number       1

loop_
  _space_group_symop_operation_xyz
  'x, y, z'

loop_
  _atom_site_type_symbol
  _atom_site_label
  _atom_site_symmetry_multiplicity
  _atom_site_fract_x
  _atom_site_fract_y
  _atom_site_fract_z
  _atom_site_occupancy
  Zn  Zn1       1.0  0.5095890810810388  0.4060348656788688  0.4987121086453429  1.0000
  Zn  Zn2       1.0  0.5077466552662102  0.5891778613428186  0.5022110964404334  1.0000
  H   H1        1.0  0.4103125569160895  0.37780228122930737  0.7342081390418187  1.0000
  H   H2        1.0  0.30315042389123903  0.07546279647394269  0.515797793370929  1.0000
  H   H3        1.0  0.24685248248968608  0.0001765749716681999  0.4015105405356536  1.0000
  H   H4        1.0  0.1513155673341728  0.0469392489944198  0.44647413765914484  1.0000
  H   H5        1.0  0.1968415153577823  0.0883513881934874  0.36156361609396015  1.0000
  H   H6        1.0  0.545812606572639  0.8310184505351473  0.7035812801116564  1.0000
  H   H7        1.0  0.49523112937334457  0.9198296589239091  0.6648611113152398  1.0000
  H   H8        1.0  0.6364131368697984  0.9971058138003168  0.7037282586676881  1.0000
  H   H9        1.0  0.5902680537386684  0.9473055745345532  0.7844891858203552  1.0000
  H   H10       1.0  0.6909309241060482  0.9092016789534509  0.7400845969179315  1.0000
  H   H11       1.0  0.756433199506816  0.16545043194242476  0.5293559685356898  1.0000
  H   H12       1.0  0.4231623812962865  0.6110249644107738  0.276166752477863  1.0000
  H   H13       1.0  0.7098078362729934  0.07735544178859041  0.48643500361842473  1.0000
  H   H14       1.0  0.75841485202303  0.9979471582281861  0.6010798013999191  1.0000
  H   H15       1.0  0.8565302769828804  0.047719936626364784  0.5626441739327319  1.0000
  H   H16       1.0  0.8037919441400376  0.08500375858663742  0.6461031534366911  1.0000
  H   H17       1.0  0.44881184821957015  0.8265991246250834  0.2960331317572482  1.0000
  H   H18       1.0  0.5029816406376071  0.915699842544839  0.3301189198442955  1.0000
  H   H19       1.0  0.3607348778258769  0.9935541424352367  0.29433922751750424  1.0000
  H   H20       1.0  0.40241615653477686  0.9419509419883099  0.2133790033814478  1.0000
  H   H21       1.0  0.3036397798785799  0.905402450924555  0.2618830879599869  1.0000
  H   H22       1.0  0.3357961092894612  0.22351116362144546  0.32849299762572304  1.0000
  H   H23       1.0  0.5354600430187731  0.37863261333112047  0.24701671873621217  1.0000
  H   H24       1.0  0.42139728053889763  0.2996879762473057  0.3150688298306434  1.0000
  H   H25       1.0  0.30200551497943456  0.40373615938992197  0.3395001287309398  1.0000
  H   H26       1.0  0.26455520304318014  0.34221064390304423  0.26205963039956964  1.0000
  H   H27       1.0  0.21609701280183202  0.3296003412730072  0.3540772582879512  1.0000
  H   H28       1.0  0.7229878802459524  0.7767034131790991  0.6184702073105443  1.0000
  H   H29       1.0  0.731297948247807  0.6950485419244997  0.5530470373939878  1.0000
  H   H30       1.0  0.7140526049716058  0.5992879743261738  0.6609727559263874  1.0000
  H   H31       1.0  0.8119700238166133  0.6622957026152816  0.6780394694063007  1.0000
  H   H32       1.0  0.7064578160019579  0.6793325653884565  0.7268071782351626  1.0000
  H   H33       1.0  0.6680534940009366  0.22038309776056045  0.6720865447388107  1.0000
  H   H34       1.0  0.5331834065892309  0.6088744135911454  0.7348038650995363  1.0000
  H   H35       1.0  0.5830208711686992  0.29772196422145925  0.6808483724049879  1.0000
  H   H36       1.0  0.7055689858407987  0.4002083607369187  0.6611875188731987  1.0000
  H   H37       1.0  0.7373158183055395  0.3380853195064688  0.740243211154386  1.0000
  H   H38       1.0  0.7913035536880884  0.32523656896987757  0.6505470723178703  1.0000
  H   H39       1.0  0.2723204137017348  0.7764857311967432  0.4039398339589226  1.0000
  H   H40       1.0  0.276377414837583  0.6909685453493992  0.465912499769928  1.0000
  H   H41       1.0  0.27128626591876787  0.6020418692850241  0.3518264118692401  1.0000
  H   H42       1.0  0.17232548292346914  0.6651913838541573  0.3524107888716586  1.0000
  H   H43       1.0  0.26527970238583265  0.6864588038240454  0.290062558484351  1.0000
  H   H44       1.0  0.34228004374496385  0.32236476631804567  0.8378219648836023  1.0000
  H   H45       1.0  0.3666028657745741  0.6869838196934522  0.1765573229026316  1.0000
  H   H46       1.0  0.5440956260398266  0.3171191576361494  0.1351133081921887  1.0000
  H   H47       1.0  0.5377155100722959  0.6888926292323773  0.836573562784217  1.0000
  H   H48       1.0  0.2517061807601594  0.1645634615330422  0.4784351212616968  1.0000
  C   C1        1.0  0.4963207604486967  0.4884986382957947  0.3550849832135654  1.0000
  C   C2        1.0  0.555892148444812  0.7531668389482389  0.5510943144182718  1.0000
  C   C3        1.0  0.571554067240541  0.24177464714398403  0.5390355249916823  1.0000
  C   C4        1.0  0.44594907946868295  0.7526342033508369  0.450293172411051  1.0000
  C   C5        1.0  0.5029040259662736  0.11729472168872948  0.4993390670944677  1.0000
  C   C6        1.0  0.5017856449636966  0.8783403480659826  0.49929709151933815  1.0000
  C   C7        1.0  0.5019034447942518  0.03388116180290268  0.4993335975045241  1.0000
  C   C8        1.0  0.5016946571310044  0.9617461395480971  0.49902583936576417  1.0000
  C   C9        1.0  0.33028161823749264  0.5100226709494536  0.5065230867979551  1.0000
  C   C10       1.0  0.6860280947058045  0.5118713429585212  0.49453528986315115  1.0000
  C   C11       1.0  0.22976227278623182  0.5080970246888937  0.5051092275573765  1.0000
  C   C12       1.0  0.5015670702079902  0.4834515763669173  0.6444472796157612  1.0000
  C   C13       1.0  0.7866296480753832  0.5103496846364945  0.494371446577702  1.0000
  C   C14       1.0  0.1443595981254973  0.5067891924380277  0.5024535963404873  1.0000
  C   C15       1.0  0.8720405273957753  0.5083529197675388  0.4955068672991061  1.0000
  C   C16       1.0  0.051153928465709  0.5063714685036088  0.4997043709763886  1.0000
  C   C17       1.0  0.9652578243799539  0.5068454165290746  0.497306268581589  1.0000
  C   C18       1.0  0.4052664631838283  0.4398642245963487  0.8414136138213308  1.0000
  C   C19       1.0  0.4170765546995058  0.5664958790507201  0.1607740932185067  1.0000
  C   C20       1.0  0.4867173182087043  0.43579654159690756  0.1435173510275476  1.0000
  C   C21       1.0  0.48027318931615787  0.5699843116674329  0.8431280039504544  1.0000
  C   C22       1.0  0.42991113304846357  0.43154300603293183  0.7651758147045982  1.0000
  C   C23       1.0  0.4229399663011789  0.5121297326307044  0.9622789530234499  1.0000
  C   C24       1.0  0.43924411261747315  0.5617041717721775  0.23853959082738638  1.0000
  C   C25       1.0  0.5026249358377372  0.4314596416965769  0.2223810123119279  1.0000
  C   C26       1.0  0.49920112636671377  0.5610258224841758  0.7658316835124737  1.0000
  C   C27       1.0  0.4774105071934899  0.49132195295267406  0.7267040799678952  1.0000
  C   C28       1.0  0.4799842586251728  0.4938346744049012  0.2705524299703441  1.0000
  C   C29       1.0  0.43386076859523837  0.5083108715547551  0.8833244410132011  1.0000
  C   C30       1.0  0.4417314286301988  0.5037896566486779  0.1108691997155304  1.0000
  C   C31       1.0  0.34885225101906064  0.37593405518556716  0.8751079065386733  1.0000
  C   C32       1.0  0.36673323654520834  0.6378603730598299  0.133680195156586  1.0000
  C   C33       1.0  0.5201664298140259  0.36801863798288537  0.0984092169965436  1.0000
  C   C34       1.0  0.42675154127830695  0.5093511873273046  0.0319961492175054  1.0000
  C   C35       1.0  0.5122102866148097  0.6445368591307458  0.879159245572076  1.0000
  C   C36       1.0  0.2819929628729341  0.10693052553150299  0.4630059999251728  1.0000
  C   C37       1.0  0.21554348879299573  0.057610084066183696  0.41504976725580184  1.0000
  C   C38       1.0  0.5614437966421449  0.889234142178722  0.678047343293656  1.0000
  C   C39       1.0  0.6237797752239018  0.9387412089958856  0.7293805481883097  1.0000
  C   C40       1.0  0.7261614879438341  0.10673779749262019  0.5411665581160463  1.0000
  C   C41       1.0  0.7897681171521498  0.05628300833215859  0.590927246884938  1.0000
  C   C42       1.0  0.43565116789353203  0.8856174299759088  0.3203108856432948  1.0000
  C   C43       1.0  0.37149432436149976  0.9346117425461882  0.26975722316775114  1.0000
  C   C44       1.0  0.35596202228119017  0.28448955719764507  0.3431670738543957  1.0000
  C   C45       1.0  0.4342386879883834  0.16032001998398468  0.45797982455785297  1.0000
  C   C46       1.0  0.2801444638786207  0.34361666335153973  0.3236616382108153  1.0000
  C   C47       1.0  0.7040342967954204  0.714553847630391  0.6080133190024313  1.0000
  C   C48       1.0  0.7357193969906178  0.6605621664574811  0.67235098458422  1.0000
  C   C49       1.0  0.6500117670878325  0.2815424080491055  0.6559353829951746  1.0000
  C   C50       1.0  0.7255955044937111  0.3398380946626461  0.6781381827964097  1.0000
  C   C51       1.0  0.29282615583204574  0.7139065179204065  0.4089901194375045  1.0000
  C   C52       1.0  0.2483681728483091  0.6639153063680681  0.3469851949918946  1.0000
  C   C53       1.0  0.5568599608924033  0.8363054818464518  0.5533515504860276  1.0000
  C   C54       1.0  0.5728382872475279  0.15862351524072685  0.5406944818214683  1.0000
  C   C55       1.0  0.4458745078298136  0.8357595973314459  0.4464465319960951  1.0000
  C   C56       1.0  0.43897903030956786  0.2434293576848247  0.4583679622139414  1.0000
  N   N1        1.0  0.5064709453466848  0.28192919583846526  0.4980786929604974  1.0000
  N   N2        1.0  0.5014359597249936  0.7133503238209753  0.5006088438584159  1.0000
  O   O1        1.0  0.5165539199785627  0.4204801397252352  0.3825352714026309  1.0000
  O   O2        1.0  0.32656548276808917  0.6452453440499964  0.0719347854969641  1.0000
  O   O3        1.0  0.5244391943944677  0.36407529084211626  0.028952177345665606  1.0000
  O   O4        1.0  0.5131658138603684  0.659918324403577  0.9472461795960924  1.0000
  O   O5        1.0  0.36500989100888864  0.12135405243822107  0.41848978022257205  1.0000
  O   O6        1.0  0.6094781894520197  0.8763227161874168  0.6066200047340118  1.0000
  O   O7        1.0  0.6393779533037931  0.11764067404701  0.5815313178356547  1.0000
  O   O8        1.0  0.39142967866335004  0.8752767373361008  0.3938595273473879  1.0000
  O   O9        1.0  0.37345019533066187  0.28986007519654317  0.4253613109312582  1.0000
  O   O10       1.0  0.6023700448887939  0.7079099907636744  0.6026928640995878  1.0000
  O   O11       1.0  0.6380857036554062  0.2865320941742695  0.5729451626717932  1.0000
  O   O12       1.0  0.5293329011823147  0.5460073101717029  0.6115327262667378  1.0000
  O   O13       1.0  0.39424575491941033  0.7083126650501368  0.4012995394538734  1.0000
  O   O14       1.0  0.4920881884204035  0.4151516515847575  0.6144000212397671  1.0000
  O   O15       1.0  0.48606747300636494  0.5524642895393512  0.3917333003457344  1.0000
  O   O16       1.0  0.37049344824281866  0.44561635658828885  0.49059468313342347  1.0000
  O   O17       1.0  0.6485495867107928  0.5796843975538334  0.4846882401654469  1.0000
  O   O18       1.0  0.646679112717223  0.4456337198600408  0.5053693832279293  1.0000
  O   O19       1.0  0.3673164139006317  0.5767079328456005  0.5227529820406289  1.0000
  O   O20       1.0  0.3098926813743006  0.37859813766849726  0.9363865508691589  1.0000
