data_image0
_chemical_formula_structural       Cd3H32C38S6N10O14
_chemical_formula_sum              "Cd3 H32 C38 S6 N10 O14"
_cell_length_a       9.102989409863364
_cell_length_b       11.082586711690274
_cell_length_c       13.119572224713847
_cell_angle_alpha    108.13203381902399
_cell_angle_beta     107.50883148635442
_cell_angle_gamma    95.21924441398906

_space_group_name_H-M_alt    "P 1"
_space_group_IT_number       1

loop_
  _space_group_symop_operation_xyz
  'x, y, z'

loop_
  _atom_site_type_symbol
  _atom_site_label
  _atom_site_symmetry_multiplicity
  _atom_site_fract_x
  _atom_site_fract_y
  _atom_site_fract_z
  _atom_site_occupancy
  Cd  Cd1       1.0  0.9999998138612299  0.4999996780957687  0.4999988681578459  1.0000
  Cd  Cd2       1.0  0.8418448647037525  0.7789765629019882  0.6335623768126484  1.0000
  Cd  Cd3       1.0  0.15815481600083814  0.2210247209439089  0.36643684166704565  1.0000
  H   H1        1.0  0.5562009723646355  0.29273496311457586  0.5461803281573552  1.0000
  H   H2        1.0  0.44379918171180316  0.7072634226000646  0.45381899065526454  1.0000
  H   H3        1.0  0.49841041274294184  0.4304522733776536  0.6287836506298632  1.0000
  H   H4        1.0  0.5015897654067559  0.5695461170047551  0.3712126255950849  1.0000
  H   H5        1.0  0.8048963660766121  0.7987034911359036  0.26341952341143615  1.0000
  H   H6        1.0  0.1951023899907867  0.20129390917654177  0.7365815264788581  1.0000
  H   H7        1.0  0.6256270302607588  0.6879467530749537  0.22345132978627202  1.0000
  H   H8        1.0  0.3743728816031365  0.31205550165430657  0.7765474308407647  1.0000
  H   H9        1.0  0.4346641973726406  0.7246871860104704  0.7086082300819571  1.0000
  H   H10       1.0  0.5653320299458926  0.2753092213825853  0.29139126022955963  1.0000
  H   H11       1.0  0.3052459551283775  0.5932904469189495  0.7089325878401098  1.0000
  H   H12       1.0  0.6947504742412676  0.4067117677546221  0.29106771052126856  1.0000
  H   H13       1.0  0.04274870762707654  0.6677713018649529  0.8267544943030177  1.0000
  H   H14       1.0  0.957250037387084  0.332230938345468  0.17324553954905048  1.0000
  H   H15       1.0  0.09479678937459829  0.6889856652162794  0.02956727750071053  1.0000
  H   H16       1.0  0.9052024701562189  0.311008842799616  0.9704300694879394  1.0000
  H   H17       1.0  0.9661377542841978  0.8465137851947376  0.14400937651306844  1.0000
  H   H18       1.0  0.03386196658182431  0.15347782235602386  0.8559895921023328  1.0000
  H   H19       1.0  0.7844639682192495  0.961155027877396  0.04718549160865854  1.0000
  H   H20       1.0  0.2155341064068921  0.0388394621188439  0.9528154105457676  1.0000
  H   H21       1.0  0.6426617162019497  0.050203075031646394  0.961979618183115  1.0000
  H   H22       1.0  0.3573416129381145  0.94980404914881  0.03802343449359589  1.0000
  H   H23       1.0  0.45830418926977506  0.14958499358013466  0.8487006608928029  1.0000
  H   H24       1.0  0.5417000815790373  0.8504211754027368  0.15130081576460708  1.0000
  H   H25       1.0  0.41884141498620414  0.09254905367094318  0.6389837161734634  1.0000
  H   H26       1.0  0.5811647262600775  0.9074503603510213  0.3610186670712639  1.0000
  H   H27       1.0  0.5773394038731184  0.9396055183771355  0.556768910723122  1.0000
  H   H28       1.0  0.42266143066118644  0.06039093542185732  0.4432330931574313  1.0000
  H   H29       1.0  0.014150999755891324  0.9793983857579605  0.6018899345078169  1.0000
  H   H30       1.0  0.9858468868225503  0.0205999837553676  0.39810356363877736  1.0000
  H   H31       1.0  0.11189319567821346  0.96015374101615  0.7167963186161758  1.0000
  H   H32       1.0  0.8881067462772592  0.0398485195478173  0.2831986387762768  1.0000
  C   C1        1.0  0.6701241084995788  0.4755091751496679  0.8507115777439582  1.0000
  C   C2        1.0  0.329874873692198  0.5244940371110616  0.14928723760854723  1.0000
  C   C3        1.0  0.7192828589995132  0.5685837826737128  0.04048025044706801  1.0000
  C   C4        1.0  0.2807131200881657  0.431416492567017  0.9595194423257781  1.0000
  C   C5        1.0  0.5526877594952496  0.638273924845855  0.9154396613812282  1.0000
  C   C6        1.0  0.44731098551891085  0.36172831536456584  0.08456037247083972  1.0000
  C   C7        1.0  0.5977927198543825  0.3881036319911857  0.6149545776431184  1.0000
  C   C8        1.0  0.4022099810258624  0.6118957501436739  0.385044018807534  1.0000
  C   C9        1.0  0.7060582422788926  0.4757911412558755  0.5860885706675846  1.0000
  C   C10       1.0  0.2939456194327689  0.5242082542308779  0.4139095132049562  1.0000
  C   C11       1.0  0.7541943724122363  0.7044654382164383  0.26239901383637954  1.0000
  C   C12       1.0  0.24580366708740092  0.2955338870100164  0.7376039148674778  1.0000
  C   C13       1.0  0.7948584240626176  0.7042266106242823  0.3835139574105358  1.0000
  C   C14       1.0  0.20513780325591574  0.2957697967687736  0.6164855329009812  1.0000
  C   C15       1.0  0.34706924298613734  0.6985871988630522  0.7444524769678085  1.0000
  C   C16       1.0  0.6529278848963288  0.30141308739569445  0.2555482245207586  1.0000
  C   C17       1.0  0.21342572828584144  0.770757046056332  0.721618695882434  1.0000
  C   C18       1.0  0.7865741715414244  0.2292452063390443  0.2783815860384351  1.0000
  C   C19       1.0  0.9882459014107569  0.7326413101065585  0.8786156021055123  1.0000
  C   C20       1.0  0.011752387303126015  0.26735898950407494  0.12138458680495033  1.0000
  C   C21       1.0  0.017171420258336005  0.7453024031074165  0.9922875071759877  1.0000
  C   C22       1.0  0.9828280583951495  0.25469307345796477  0.007710903253837403  1.0000
  C   C23       1.0  0.9445007712097109  0.8305455047850359  0.05395866568149902  1.0000
  C   C24       1.0  0.055498482302788005  0.1694490020639208  0.9460394419540564  1.0000
  C   C25       1.0  0.8428827259821503  0.8961178531719157  0.9994582257700557  1.0000
  C   C26       1.0  0.15711950054286922  0.10387958486233373  0.0005428076797358355  1.0000
  C   C27       1.0  0.8178243182197136  0.8767822896032841  0.8841741088259385  1.0000
  C   C28       1.0  0.1821792651695162  0.12322096789643674  0.11582798074251603  1.0000
  C   C29       1.0  0.7072977587607029  0.9405628035021395  0.819749099084163  1.0000
  C   C30       1.0  0.2927028275427475  0.05943751814452721  0.18025310725772672  1.0000
  C   C31       1.0  0.6257814457412678  0.0268128773438647  0.8719069247992337  1.0000
  C   C32       1.0  0.37422190648866405  0.973189409272493  0.12809562262187063  1.0000
  C   C33       1.0  0.5217451413209205  0.0824173451466379  0.8079622515278475  1.0000
  C   C34       1.0  0.4782559073011329  0.917584918266755  0.19203903910874248  1.0000
  C   C35       1.0  0.5003706874832049  0.05159317602777241  0.6922180950535052  1.0000
  C   C36       1.0  0.4996363543270165  0.9484101168598756  0.3077854993682792  1.0000
  C   C37       1.0  0.5862757971031486  0.9661192998793027  0.6461853355323445  1.0000
  C   C38       1.0  0.413726867667208  0.03388007525390441  0.3538178247998048  1.0000
  S   S1        1.0  0.7076628536626045  0.3584805866921528  0.7424533859514284  1.0000
  S   S2        1.0  0.2923370461646543  0.6415216657032303  0.2575468959694477  1.0000
  S   S3        1.0  0.8233245904558686  0.575026215187883  0.17777500215321146  1.0000
  S   S4        1.0  0.17667462793013303  0.4249731268912882  0.8222251320317825  1.0000
  S   S5        1.0  0.4346404104967904  0.7503298878243498  0.8986366224446416  1.0000
  S   S6        1.0  0.5653599396124348  0.24967430400386806  0.10136426506475969  1.0000
  N   N1        1.0  0.7470691230726914  0.4776648529554279  0.9563562502650315  1.0000
  N   N2        1.0  0.25292708717429246  0.522336393168665  0.043642984655164786  1.0000
  N   N3        1.0  0.6227064125067301  0.6512262698612687  0.02565530827855875  1.0000
  N   N4        1.0  0.37729254561178044  0.34877693773169227  0.9743465496616041  1.0000
  N   N5        1.0  0.5710723764173976  0.553085921243394  0.8245205661878574  1.0000
  N   N6        1.0  0.42892543892465074  0.44691727649849633  0.1754795223896722  1.0000
  N   N7        1.0  0.8932627155892378  0.7976158083689814  0.8266521929744003  1.0000
  N   N8        1.0  0.1067394818275957  0.2023864660624284  0.1733501063779102  1.0000
  N   N9        1.0  0.6860710959022073  0.9118318697448162  0.7077310435255627  1.0000
  N   N10       1.0  0.31393018891406393  0.0881665234870255  0.2922715659435227  1.0000
  O   O1        1.0  0.8141099315507108  0.4255370313701621  0.5566053764005547  1.0000
  O   O2        1.0  0.1858930004888393  0.5744633216480608  0.4433927621974476  1.0000
  O   O3        1.0  0.6797686910613338  0.5881951202838778  0.5955819627881169  1.0000
  O   O4        1.0  0.3202340098189111  0.4118042618509818  0.40441663366253533  1.0000
  O   O5        1.0  0.8305603201116868  0.6037497241645013  0.4018023151896557  1.0000
  O   O6        1.0  0.1694324367492328  0.3962466455067498  0.5981971915623632  1.0000
  O   O7        1.0  0.7843515002751646  0.806405086806173  0.45840510183356326  1.0000
  O   O8        1.0  0.21564746889658445  0.19359328088881264  0.541597772144833  1.0000
  O   O9        1.0  0.07904595139380893  0.7045451584686476  0.647341319748172  1.0000
  O   O10       1.0  0.9209507271900892  0.29545803058910997  0.3526562388198046  1.0000
  O   O11       1.0  0.24004773773842922  0.8904347204737139  0.7775714488980727  1.0000
  O   O12       1.0  0.7599540274513857  0.1095656180256697  0.2224279629249537  1.0000
  O   O13       1.0  0.01737550527665386  0.9931058995418669  0.6795947193898827  1.0000
  O   O14       1.0  0.9826216767706554  0.0068943972193479955  0.3203991362764426  1.0000
