data_image0
_chemical_formula_structural       Ag4H44C22N10O6
_chemical_formula_sum              "Ag4 H44 C22 N10 O6"
_cell_length_a       7.170324059267642
_cell_length_b       10.890311582459615
_cell_length_c       10.49503772494626
_cell_angle_alpha    100.10880526035457
_cell_angle_beta     97.33238220048484
_cell_angle_gamma    98.77746923092613

_space_group_name_H-M_alt    "P 1"
_space_group_IT_number       1

loop_
  _space_group_symop_operation_xyz
  'x, y, z'

loop_
  _atom_site_type_symbol
  _atom_site_label
  _atom_site_symmetry_multiplicity
  _atom_site_fract_x
  _atom_site_fract_y
  _atom_site_fract_z
  _atom_site_occupancy
  Ag  Ag1       1.0  0.112069846101889  0.7547186826285  0.5734379201152962  1.0000
  Ag  Ag2       1.0  0.8879312422588301  0.24528920048478403  0.42656771712618285  1.0000
  Ag  Ag3       1.0  0.9999877349235505  0.9999973454905413  0.9999890236250194  1.0000
  Ag  Ag4       1.0  0.4999876466370666  0.9999961163995792  0.49999205583710443  1.0000
  H   H1        1.0  0.41391332559369  0.4531510594331111  0.576805673714702  1.0000
  H   H2        1.0  0.5860681007103068  0.5468395385149307  0.42319673175146016  1.0000
  H   H3        1.0  0.2280244413683974  0.4906557281287647  0.6619662086928457  1.0000
  H   H4        1.0  0.7719617428927561  0.509342505519349  0.3380342556183605  1.0000
  H   H5        1.0  0.5467053924542142  0.6221162997366035  0.764499820480168  1.0000
  H   H6        1.0  0.4532759727535662  0.37787429154628427  0.23550448367189594  1.0000
  H   H7        1.0  0.564278181405065  0.6819270964117834  0.6193938934706934  1.0000
  H   H8        1.0  0.4357186596223955  0.3180627838997765  0.38060613370408447  1.0000
  H   H9        1.0  0.8087072143837519  0.9888007658795953  0.411235982949293  1.0000
  H   H10       1.0  0.19129347685161244  0.011207073910178198  0.5887819957506153  1.0000
  H   H11       1.0  0.006879649184071402  0.9222305265555518  0.36416826573464783  1.0000
  H   H12       1.0  0.993114727088461  0.0777848145169742  0.6358399522886913  1.0000
  H   H13       1.0  0.12058732522466191  0.47807340983404606  0.43696313332571174  1.0000
  H   H14       1.0  0.8794014953226252  0.5219295928633656  0.5630356064009021  1.0000
  H   H15       1.0  0.30501053565348  0.5852306903446234  0.4231509240256057  1.0000
  H   H16       1.0  0.6949811697936213  0.4147676088458708  0.5768539247178878  1.0000
  H   H17       1.0  0.4546202503310397  0.8323144228456342  0.7430324828603289  1.0000
  H   H18       1.0  0.545378391849269  0.16768211586071394  0.2569622662645656  1.0000
  H   H19       1.0  0.297066686324797  0.7380156610439812  0.8032020179033805  1.0000
  H   H20       1.0  0.7029348821117197  0.2619818516350705  0.19679701745940997  1.0000
  H   H21       1.0  0.7663708625252852  0.7760280714148563  0.434896278763837  1.0000
  H   H22       1.0  0.2336306901626131  0.22398738157882989  0.565108875713257  1.0000
  H   H23       1.0  0.8092150898661007  0.8630828502414687  0.582699498220677  1.0000
  H   H24       1.0  0.19078686417600474  0.13692314685889778  0.4173087431431242  1.0000
  H   H25       1.0  0.16374185345909353  0.5278274916633804  0.0347890893346019  1.0000
  H   H26       1.0  0.8362827922976807  0.4721665647578774  0.9652116596918389  1.0000
  H   H27       1.0  0.28563363690413013  0.5310807745629802  0.1929439983368297  1.0000
  H   H28       1.0  0.7143986061243767  0.46892003578862773  0.8070473129854107  1.0000
  H   H29       1.0  0.9338682846431894  0.5040824324035282  0.18844391354667778  1.0000
  H   H30       1.0  0.06616538709294417  0.49589570774320174  0.8115491395989378  1.0000
  H   H31       1.0  0.926729337858511  0.648881813254242  0.1339307727914942  1.0000
  H   H32       1.0  0.0732923797652845  0.3510942500857226  0.8660673609622264  1.0000
  H   H33       1.0  0.04600558732526137  0.6511360611952951  0.2934959873976837  1.0000
  H   H34       1.0  0.9540081166354499  0.3488465291774149  0.7064939422644372  1.0000
  H   H35       1.0  0.5731074770535473  0.620512501351854  0.1196759059572514  1.0000
  H   H36       1.0  0.42691243823061603  0.37951455627216285  0.8803294095942674  1.0000
  H   H37       1.0  0.4408998505095171  0.6224558716672702  0.9658400581699453  1.0000
  H   H38       1.0  0.5591193262259965  0.3775494708382893  0.0341536102091595  1.0000
  H   H39       1.0  0.7532708467450532  0.770412039287294  0.9986588365476693  1.0000
  H   H40       1.0  0.2467282548221092  0.22961568376113917  0.0013406754911144962  1.0000
  H   H41       1.0  0.7077410411464342  0.8528688888425437  0.1496436875448311  1.0000
  H   H42       1.0  0.2922584657661319  0.14716164781273014  0.850364954588045  1.0000
  H   H43       1.0  0.5684624353380416  0.8606475385068961  0.00010623052258300808  1.0000
  H   H44       1.0  0.43152629145050275  0.13936020380119626  0.9998876430603258  1.0000
  C   C1        1.0  0.3288301197403953  0.527277649546093  0.6012600352212587  1.0000
  C   C2        1.0  0.6711555369829442  0.4727177571648794  0.39873509636768023  1.0000
  C   C3        1.0  0.46237233853108967  0.6461321955669631  0.6799186149169216  1.0000
  C   C4        1.0  0.5376136387104326  0.35385941940000265  0.3200815781515445  1.0000
  C   C5        1.0  0.9339884403905218  0.9492403732273685  0.4479628320649667  1.0000
  C   C6        1.0  0.06600143124119742  0.050756013844178896  0.5520405298988037  1.0000
  C   C7        1.0  0.2810109485642656  0.9629988495782483  0.22392115227977874  1.0000
  C   C8        1.0  0.7189746341401462  0.036995625928931  0.7760690372585443  1.0000
  C   C9        1.0  0.20967090217283163  0.7831136737943966  0.048636342752459406  1.0000
  C   C10       1.0  0.7903077940862958  0.21687689471503546  0.9513629211545974  1.0000
  C   C11       1.0  0.32673080176177655  0.709727615538  0.13080462938215479  1.0000
  C   C12       1.0  0.6732916522962357  0.29027491252883647  0.8691974373714115  1.0000
  C   C13       1.0  0.40271201223202974  0.7806304958633843  0.27087529124398196  1.0000
  C   C14       1.0  0.5972988977617107  0.21937092325882898  0.7291263553957776  1.0000
  C   C15       1.0  0.19906249314080074  0.5832752190323944  0.1351872495241153  1.0000
  C   C16       1.0  0.8009495901297896  0.41671959779426265  0.8648152219809758  1.0000
  C   C17       1.0  0.016478226247833967  0.5983708235949975  0.19144200186415364  1.0000
  C   C18       1.0  0.983529393738344  0.4016107167103087  0.808553790802371  1.0000
  C   C19       1.0  0.49975835813084774  0.6804385446423282  0.06355249896857629  1.0000
  C   C20       1.0  0.5002572031385953  0.3195743252520131  0.9364354996360119  1.0000
  C   C21       1.0  0.6392680156442054  0.7972270947612686  0.05265052780335118  1.0000
  C   C22       1.0  0.3607391409424281  0.20279977873405391  0.9473553655480343  1.0000
  N   N1        1.0  0.2175533373695089  0.5559335994108139  0.48618890191060155  1.0000
  N   N2        1.0  0.782439931662701  0.44406473616074027  0.5138113468832302  1.0000
  N   N3        1.0  0.3583219990520305  0.7489636612379584  0.7213429123290707  1.0000
  N   N4        1.0  0.6416693424060612  0.2510375018253299  0.2786509835413256  1.0000
  N   N5        1.0  0.873508425218077  0.8358297919806356  0.5017309019514398  1.0000
  N   N6        1.0  0.1264884306088732  0.16417803197813186  0.4982742949946868  1.0000
  N   N7        1.0  0.38135019930558656  0.902240179191331  0.3082483465584431  1.0000
  N   N8        1.0  0.6186276007240469  0.0977522719984378  0.6917492625692461  1.0000
  N   N9        1.0  0.1880976793717863  0.9023781841710132  0.1008475415626933  1.0000
  N   N10       1.0  0.8118855786331596  0.09761907550439729  0.8991486365106239  1.0000
  O   O1        1.0  0.27340931060042817  0.07795833804095759  0.2625060433487505  1.0000
  O   O2        1.0  0.7265665007588781  0.9220369339753846  0.7374871115414122  1.0000
  O   O3        1.0  0.1354289315640713  0.7312948091345319  0.9336810346639125  1.0000
  O   O4        1.0  0.8645819262649823  0.26869525836100644  0.0663233081908885  1.0000
  O   O5        1.0  0.48807923892556465  0.724977017134151  0.3491730722974609  1.0000
  O   O6        1.0  0.5119174051790836  0.2750260338881604  0.6508464842219297  1.0000
