data_image0
_chemical_formula_structural       Zn4H24C36N4O12
_chemical_formula_sum              "Zn4 H24 C36 N4 O12"
_cell_length_a       6.633912479355538
_cell_length_b       12.34674202340877
_cell_length_c       14.269169598269752
_cell_angle_alpha    113.35300663614888
_cell_angle_beta     90.00087028137247
_cell_angle_gamma    90.00037484736944

_space_group_name_H-M_alt    "P 1"
_space_group_IT_number       1

loop_
  _space_group_symop_operation_xyz
  'x, y, z'

loop_
  _atom_site_type_symbol
  _atom_site_label
  _atom_site_symmetry_multiplicity
  _atom_site_fract_x
  _atom_site_fract_y
  _atom_site_fract_z
  _atom_site_occupancy
  Zn  Zn1       1.0  0.2500065422908406  0.18587466761360366  0.9800811581592797  1.0000
  Zn  Zn2       1.0  0.7499956590178414  0.8141325854724001  0.019918758080010097  1.0000
  Zn  Zn3       1.0  0.24999718634903445  0.8715759227915002  0.9778177819513659  1.0000
  Zn  Zn4       1.0  0.7500125520226107  0.1284312437842487  0.022184205953557502  1.0000
  H   H1        1.0  0.9417138403605491  0.8254604287438596  0.88005587262802  1.0000
  H   H2        1.0  0.4417513641076453  0.17456682073880356  0.1199541678935816  1.0000
  H   H3        1.0  0.0582808238330514  0.1745370387602634  0.11994253646258102  1.0000
  H   H4        1.0  0.5582538517147383  0.8254157439672057  0.8800366388427818  1.0000
  H   H5        1.0  0.2500155864610889  0.4592693011084918  0.11933554383074355  1.0000
  H   H6        1.0  0.7500016888023778  0.5407264030297299  0.8806622146926913  1.0000
  H   H7        1.0  0.25001335088083465  0.6520058604137731  0.09339459579476994  1.0000
  H   H8        1.0  0.7500099540077372  0.3479862014481655  0.9066046235697698  1.0000
  H   H9        1.0  0.2500173553518863  0.6403530120578224  0.9146040024383311  1.0000
  H   H10       1.0  0.7500044422377812  0.3596451353556134  0.0853995659262523  1.0000
  H   H11       1.0  0.2500078055948904  0.4448553485014983  0.7700703962931642  1.0000
  H   H12       1.0  0.7500004252530275  0.555143940207266  0.22992728245952074  1.0000
  H   H13       1.0  0.24998684886404726  0.2714394747264279  0.6578011359363175  1.0000
  H   H14       1.0  0.7499942486312179  0.7285590186857153  0.34219414571315115  1.0000
  H   H15       1.0  0.25001253679067753  0.9007802229031013  0.6064188414913616  1.0000
  H   H16       1.0  0.7499866497178758  0.09922153787329793  0.3935839564921721  1.0000
  H   H17       1.0  0.24998129686137818  0.8613559313769416  0.4590238610900031  1.0000
  H   H18       1.0  0.7499832191456975  0.138640798512121  0.5409707697969708  1.0000
  H   H19       1.0  0.24998103363201812  0.8108465434108327  0.2734400004193063  1.0000
  H   H20       1.0  0.7499925268541717  0.18915371342765752  0.726555931872447  1.0000
  H   H21       1.0  0.24999755783484554  0.17752894534184807  0.32666171368108377  1.0000
  H   H22       1.0  0.7500106732173535  0.8224789010283619  0.6733454333550882  1.0000
  H   H23       1.0  0.24999935245091362  0.23149924881872855  0.5124048908479182  1.0000
  H   H24       1.0  0.7500043562020408  0.7684926975773224  0.48759709058972334  1.0000
  C   C1        1.0  0.2500008179094094  0.4610682908594229  0.04341503445206748  1.0000
  C   C2        1.0  0.7500089204091296  0.5389335564997709  0.9565856919559794  1.0000
  C   C3        1.0  0.2500133026116274  0.5664323304570189  0.029200491872643484  1.0000
  C   C4        1.0  0.7500084949776494  0.4335676381066449  0.9708023460864155  1.0000
  C   C5        1.0  0.2500035305330002  0.560428193024187  0.9294276498143931  1.0000
  C   C6        1.0  0.7500137449458036  0.4395751293535355  0.07058063273797903  1.0000
  C   C7        1.0  0.2500030582019264  0.45037630593712663  0.848181354411331  1.0000
  C   C8        1.0  0.7500021579309364  0.5496254548634454  0.15182144360225897  1.0000
  C   C9        1.0  0.24999220382832021  0.348657075784189  0.8686764104384537  1.0000
  C   C10       1.0  0.7499994455967353  0.6513393657454289  0.1313251260106513  1.0000
  C   C11       1.0  0.2499916778283477  0.2271418777287693  0.7885146779976894  1.0000
  C   C12       1.0  0.7499984641474028  0.7728537686069931  0.21148446147590527  1.0000
  C   C13       1.0  0.2499958666182565  0.1998644379309553  0.6838759104762389  1.0000
  C   C14       1.0  0.7499927679192381  0.8001294737890063  0.3161218877672951  1.0000
  C   C15       1.0  0.24999098656574864  0.08166723055787628  0.6129530122438283  1.0000
  C   C16       1.0  0.749991618379802  0.9183275051725348  0.3870464923949656  1.0000
  C   C17       1.0  0.2500003020556818  0.9948203759452595  0.6533268190859971  1.0000
  C   C18       1.0  0.7499853176694556  0.005174446337726097  0.3466706139397502  1.0000
  C   C19       1.0  0.2500110699546738  0.028084609274721107  0.7585541592378888  1.0000
  C   C20       1.0  0.7499911313224245  0.9719181774761908  0.24144551138714843  1.0000
  C   C21       1.0  0.2500204841211868  0.9382107675335051  0.8062771958272992  1.0000
  C   C22       1.0  0.7499892538320054  0.0617747596906071  0.1937069909817808  1.0000
  C   C23       1.0  0.24999655131566098  0.050729410778522804  0.5015063032510128  1.0000
  C   C24       1.0  0.7499920834139004  0.9492794614755269  0.49849771631397033  1.0000
  C   C25       1.0  0.2499858194423794  0.9320772072823262  0.43163277162967995  1.0000
  C   C26       1.0  0.7499877411188154  0.0679274005039616  0.568366168447092  1.0000
  C   C27       1.0  0.2499884899712583  0.9027582386370057  0.32710598544687036  1.0000
  C   C28       1.0  0.7499911001506945  0.0972392576534915  0.6728917330259138  1.0000
  C   C29       1.0  0.24998841909325617  0.9908570605374863  0.2885200642062814  1.0000
  C   C30       1.0  0.7500002155299014  0.0091420838585492  0.7114810671621968  1.0000
  C   C31       1.0  0.24999611074134256  0.1092337095523561  0.3569098830170603  1.0000
  C   C32       1.0  0.7500045831523537  0.8907644666232741  0.6430929946996641  1.0000
  C   C33       1.0  0.24999796355371023  0.1383749631109197  0.4615758424220503  1.0000
  C   C34       1.0  0.7499951933520421  0.8616276505227631  0.538427971414052  1.0000
  C   C35       1.0  0.24999244856756767  0.9585035444969632  0.175877852762511  1.0000
  C   C36       1.0  0.7500067378750758  0.04150203166085481  0.8241193411538318  1.0000
  N   N1        1.0  0.2500058491909698  0.35531068749591554  0.9653674301414128  1.0000
  N   N2        1.0  0.7500129335646336  0.6446884281742058  0.03463439192000805  1.0000
  N   N3        1.0  0.25000829300638827  0.1412158453985626  0.8239321963007812  1.0000
  N   N4        1.0  0.7499939082282623  0.8587825038640773  0.17606653816730505  1.0000
  O   O1        1.0  0.2500072915774041  0.9857471352059337  0.9056091681645811  1.0000
  O   O2        1.0  0.749991894823772  0.0142494505880393  0.0943889156086328  1.0000
  O   O3        1.0  0.2500475755159711  0.8314770286027838  0.7506831684744955  1.0000
  O   O4        1.0  0.749972714858309  0.16854245336450194  0.24932406478468042  1.0000
  O   O5        1.0  0.24999221586428177  0.038170979187775296  0.1406872392062724  1.0000
  O   O6        1.0  0.7500190298591606  0.961836331628156  0.8593112959927114  1.0000
  O   O7        1.0  0.2499938484578053  0.8483867368354514  0.11748942487464843  1.0000
  O   O8        1.0  0.7500053380499666  0.1516186662414114  0.8825119122978293  1.0000
  O   O9        1.0  0.985352389475523  0.7971390713884433  0.9317486780467876  1.0000
  O   O10       1.0  0.4853705230900047  0.2028781780577163  0.06825236891901204  1.0000
  O   O11       1.0  0.0146483044385164  0.2028654211193484  0.06825302433597365  1.0000
  O   O12       1.0  0.5146301708027181  0.7971245509934947  0.9317486827838906  1.0000
