data_image0
_chemical_formula_structural       Ag4H28C24I4N4
_chemical_formula_sum              "Ag4 H28 C24 I4 N4"
_cell_length_a       4.686164643593317
_cell_length_b       9.006587114257783
_cell_length_c       18.545938063882424
_cell_angle_alpha    86.37404666296139
_cell_angle_beta     89.99815161540717
_cell_angle_gamma    89.99779882826206

_space_group_name_H-M_alt    "P 1"
_space_group_IT_number       1

loop_
  _space_group_symop_operation_xyz
  'x, y, z'

loop_
  _atom_site_type_symbol
  _atom_site_label
  _atom_site_symmetry_multiplicity
  _atom_site_fract_x
  _atom_site_fract_y
  _atom_site_fract_z
  _atom_site_occupancy
  Ag  Ag1       1.0  0.1543591890904281  0.2915453636976436  0.29337140040986737  1.0000
  Ag  Ag2       1.0  0.6544157145017166  0.2081088044244837  0.20669544208703164  1.0000
  Ag  Ag3       1.0  0.845634408366898  0.7084409066316866  0.7066308121520989  1.0000
  Ag  Ag4       1.0  0.3456034900713831  0.7918947122539918  0.7932995562837558  1.0000
  H   H1        1.0  0.8227154103780662  0.47822627242148746  0.4119538965055936  1.0000
  H   H2        1.0  0.3230749670142359  0.021577404458618298  0.08803424340966606  1.0000
  H   H3        1.0  0.17726751755844816  0.5217637728049878  0.5880428763144889  1.0000
  H   H4        1.0  0.6769570397157666  0.9784496009099397  0.9119723556261972  1.0000
  H   H5        1.0  0.15635563738509717  0.9255169821575748  0.4076369079361867  1.0000
  H   H6        1.0  0.6561722923727444  0.5741168475428963  0.09236681600236098  1.0000
  H   H7        1.0  0.843672103544442  0.07444888218356742  0.5923703965233  1.0000
  H   H8        1.0  0.34376795651175485  0.42587986804748823  0.9076298800405308  1.0000
  H   H9        1.0  0.47893243139909436  0.8590437018358441  0.3080562396095487  1.0000
  H   H10       1.0  0.9787776974966536  0.6404925995586267  0.1919717731970748  1.0000
  H   H11       1.0  0.5211166486200369  0.14092518938258536  0.6919548072016182  1.0000
  H   H12       1.0  0.021149748114837098  0.35948482217124683  0.8080300021115715  1.0000
  H   H13       1.0  0.46218820253230314  0.5991562107018281  0.2658860797786246  1.0000
  H   H14       1.0  0.9621534861400248  0.9003883077320652  0.2341543911873812  1.0000
  H   H15       1.0  0.5378288685634656  0.4008106334556415  0.7341228322921152  1.0000
  H   H16       1.0  0.0378571828889704  0.09958751770083299  0.7658533380434276  1.0000
  H   H17       1.0  0.5995691538753221  0.6583718302854463  0.48818444267109107  1.0000
  H   H18       1.0  0.0996123442363199  0.8414490413870154  0.011855378006558196  1.0000
  H   H19       1.0  0.4004244429305075  0.3416344938309592  0.5118169988998033  1.0000
  H   H20       1.0  0.900411125868402  0.1586327309786739  0.9881333212479074  1.0000
  H   H21       1.0  0.892457898754003  0.7394614263339889  0.5319219895331455  1.0000
  H   H22       1.0  0.3924088177680147  0.7604287255273475  0.9680660041351524  1.0000
  H   H23       1.0  0.10753996634878858  0.26053733605996854  0.4680768411444587  1.0000
  H   H24       1.0  0.6076402600760032  0.23964552888365628  0.031919544006996085  1.0000
  H   H25       1.0  0.6775717632179409  0.8510877083095707  0.4719396437776735  1.0000
  H   H26       1.0  0.1776179151674029  0.6487360254397244  0.02803148919124959  1.0000
  H   H27       1.0  0.32245811149176257  0.1489059353059758  0.5280538495863637  1.0000
  H   H28       1.0  0.8223522082854443  0.35132283041255613  0.9719385878635047  1.0000
  C   C1        1.0  0.9684702922111086  0.5658270665863583  0.3913105547228496  1.0000
  C   C2        1.0  0.4687219854034764  0.933919751794093  0.10869892765246895  1.0000
  C   C3        1.0  0.03151690339860381  0.43416267072151976  0.6086899989960839  1.0000
  C   C4        1.0  0.5312993524034441  0.06609439761649578  0.8913018838940371  1.0000
  C   C5        1.0  0.9650366566296498  0.7063017148954954  0.4196384277230221  1.0000
  C   C6        1.0  0.46512214874343977  0.793466891607295  0.08039079919544177  1.0000
  C   C7        1.0  0.0349804135496399  0.29369296463981703  0.5803696235776952  1.0000
  C   C8        1.0  0.534862911089924  0.20656567251224098  0.9196157359064041  1.0000
  C   C9        1.0  0.7725120149133601  0.7399354180118181  0.4808756633871879  1.0000
  C   C10       1.0  0.27256642300736905  0.7598880389352302  0.01912920275388789  1.0000
  C   C11       1.0  0.2274837161365539  0.2600620128365491  0.5191258807794127  1.0000
  C   C12       1.0  0.7274549138155492  0.240172524026768  0.9808608204569391  1.0000
  C   C13       1.0  0.15200100192611637  0.813437105777794  0.38847830124687005  1.0000
  C   C14       1.0  0.6519228749363676  0.6862256815704554  0.11153915532499066  1.0000
  C   C15       1.0  0.8480480781966905  0.1865342726457371  0.6115294791276182  1.0000
  C   C16       1.0  0.3480237755227975  0.31377650427021553  0.8884585568254972  1.0000
  C   C17       1.0  0.33200773675288525  0.7768494956937244  0.3325716034828828  1.0000
  C   C18       1.0  0.8319483072781039  0.7227301736574674  0.16745229910994644  1.0000
  C   C19       1.0  0.6680221378449502  0.2231253058548005  0.6674350582323567  1.0000
  C   C20       1.0  0.1680111479501889  0.277236307121413  0.8325474437984963  1.0000
  C   C21       1.0  0.3235146013068189  0.6331956607323405  0.3091219624067063  1.0000
  C   C22       1.0  0.8235448955054565  0.8663835187115082  0.19091011190283771  1.0000
  C   C23       1.0  0.6764982018567878  0.36678278383094204  0.6908808799858475  1.0000
  C   C24       1.0  0.17641669322380688  0.13359865717419683  0.8090878310461347  1.0000
  I   I1        1.0  0.15991045713814594  0.3397160846764677  0.13934291770762283  1.0000
  I   I2        1.0  0.6597774199971767  0.15996658103537698  0.36074081763734245  1.0000
  I   I3        1.0  0.8400831394386258  0.6603015759093934  0.8606556949530169  1.0000
  I   I4        1.0  0.34020764238861284  0.8400067013678053  0.6392572278192359  1.0000
  N   N1        1.0  0.14335855232349104  0.5292904204733091  0.3377840367156536  1.0000
  N   N2        1.0  0.6435535437299791  0.9703906003458371  0.16224353453774396  1.0000
  N   N3        1.0  0.8566563843688185  0.470690919213574  0.6622241685006356  1.0000
  N   N4        1.0  0.35643151790859656  0.029599093001245098  0.8377575593209268  1.0000
