data_image0
_chemical_formula_structural       Cu3H14C12N16O6
_chemical_formula_sum              "Cu3 H14 C12 N16 O6"
_cell_length_a       6.072193583935716
_cell_length_b       10.098139728484195
_cell_length_c       10.659373003872874
_cell_angle_alpha    112.03329854360389
_cell_angle_beta     100.66030484752538
_cell_angle_gamma    105.7006685017634

_space_group_name_H-M_alt    "P 1"
_space_group_IT_number       1

loop_
  _space_group_symop_operation_xyz
  'x, y, z'

loop_
  _atom_site_type_symbol
  _atom_site_label
  _atom_site_symmetry_multiplicity
  _atom_site_fract_x
  _atom_site_fract_y
  _atom_site_fract_z
  _atom_site_occupancy
  Cu  Cu1       1.0  0.5000080279347756  0.9999998702069632  0.9999972758068765  1.0000
  Cu  Cu2       1.0  0.7597827195442618  0.5199359718459747  0.5021144816712919  1.0000
  Cu  Cu3       1.0  0.240218477856139  0.48006949612961586  0.4978875497535284  1.0000
  H   H1        1.0  0.8509193781018564  0.8203780424974736  0.00032645782651020267  1.0000
  H   H2        1.0  0.14909761033502625  0.17962287308095876  0.9996765904912479  1.0000
  H   H3        1.0  0.660491589345575  0.9495609561681843  0.445602507647372  1.0000
  H   H4        1.0  0.3394948755580244  0.0504364175748151  0.5543922760497182  1.0000
  H   H5        1.0  0.151291757444909  0.7091735436300297  0.2647400686088233  1.0000
  H   H6        1.0  0.8487107851371147  0.29082848466435957  0.7352637058358837  1.0000
  H   H7        1.0  0.11900805431299924  0.7006252730652135  0.090188497628148  1.0000
  H   H8        1.0  0.8809951523084932  0.29937790854157936  0.909816693327933  1.0000
  H   H9        1.0  0.8944670350114304  0.5693791420383005  0.11553761327036934  1.0000
  H   H10       1.0  0.10553819398032255  0.4306217459774686  0.8844669834871652  1.0000
  H   H11       1.0  0.9003760353107211  0.7772756265150208  0.4640089977590592  1.0000
  H   H12       1.0  0.09962715158701484  0.22272756592511198  0.5360018237917216  1.0000
  H   H13       1.0  0.7919779189059637  0.8099766125536261  0.590183174535518  1.0000
  H   H14       1.0  0.20799677669063496  0.19002073904338349  0.4098159728986985  1.0000
  C   C1        1.0  0.8069733776321824  0.846362757862046  0.09924404877953916  1.0000
  C   C2        1.0  0.1930375844738705  0.1536335422663342  0.9007567252632144  1.0000
  C   C3        1.0  0.6139695259950669  0.9667095381502336  0.24709255189128515  1.0000
  C   C4        1.0  0.38603340055906443  0.0332844328968918  0.7529027883452102  1.0000
  C   C5        1.0  0.8887019543740917  0.7937357181470401  0.1970922697092874  1.0000
  C   C6        1.0  0.11130194325143342  0.20626286504948144  0.8029104324579492  1.0000
  C   C7        1.0  0.4528755783768047  0.05687513446635249  0.2655959199310658  1.0000
  C   C8        1.0  0.5471095985615972  0.9431141737069312  0.7343883717132587  1.0000
  C   C9        1.0  0.7022516420982468  0.9191017736868331  0.34561747808248816  1.0000
  C   C10       1.0  0.29773953815993076  0.08089216257540949  0.6543756568639836  1.0000
  C   C11       1.0  0.02453487992194412  0.6891570980728615  0.16587582877629356  1.0000
  C   C12       1.0  0.9754679966565758  0.31084263733583833  0.8341299857875697  1.0000
  N   N1        1.0  0.6685620089896529  0.9296199646601335  0.12490493943271015  1.0000
  N   N2        1.0  0.33144425419828843  0.07037976392122397  0.875092791198405  1.0000
  N   N3        1.0  0.8361104083278617  0.8324622963466695  0.3201019612216385  1.0000
  N   N4        1.0  0.16388141953332533  0.16753280225575645  0.6798972823984641  1.0000
  N   N5        1.0  0.949051137330059  0.4660564531235281  0.36139157631641444  1.0000
  N   N6        1.0  0.05094835526010406  0.5339490245851837  0.6386177815883586  1.0000
  N   N7        1.0  0.5611047575610754  0.5494694105125149  0.6396052812431067  1.0000
  N   N8        1.0  0.43888910119979835  0.4505348636386514  0.3603833485623227  1.0000
  N   N9        1.0  0.8774836985657045  0.3646281750103881  0.24014068686548035  1.0000
  N   N10       1.0  0.12251449948468002  0.6353692407397274  0.7598600558514265  1.0000
  N   N11       1.0  0.5799385173187728  0.5198149950648554  0.7407027434476987  1.0000
  N   N12       1.0  0.4200589963021668  0.48018701548442516  0.2592986111931523  1.0000
  N   N13       1.0  0.8165696292708231  0.2722036534568489  0.1219233592728415  1.0000
  N   N14       1.0  0.18344594099776376  0.7278064788032592  0.8780949893795479  1.0000
  N   N15       1.0  0.5999385649899265  0.4969678075126963  0.8403874750817337  1.0000
  N   N16       1.0  0.4000609834842235  0.5030376395015492  0.15960592947138957  1.0000
  O   O1        1.0  0.3675716751309608  0.07726627583580378  0.1569188537975847  1.0000
  O   O2        1.0  0.6324419990169402  0.922734606847719  0.8430716329390151  1.0000
  O   O3        1.0  0.40777981056884016  0.1038661972697383  0.38073515677676545  1.0000
  O   O4        1.0  0.5921778639087375  0.8961103986255807  0.6192473348382563  1.0000
  O   O5        1.0  0.9040481562634921  0.7620459434281769  0.5515016933629511  1.0000
  O   O6        1.0  0.09594831329938096  0.23795723197218166  0.44850934270166926  1.0000
