data_image0
_chemical_formula_structural       Al2H20C30O12
_chemical_formula_sum              "Al2 H20 C30 O12"
_cell_length_a       6.661881081591608
_cell_length_b       11.137642750816527
_cell_length_c       17.659048194969703
_cell_angle_alpha    83.84956739130403
_cell_angle_beta     80.9348669181919
_cell_angle_gamma    71.51530073225607

_space_group_name_H-M_alt    "P 1"
_space_group_IT_number       1

loop_
  _space_group_symop_operation_xyz
  'x, y, z'

loop_
  _atom_site_type_symbol
  _atom_site_label
  _atom_site_symmetry_multiplicity
  _atom_site_fract_x
  _atom_site_fract_y
  _atom_site_fract_z
  _atom_site_occupancy
  Al  Al1       1.0  0.48864197658372166  0.5027615724968939  0.5025765493989456  1.0000
  Al  Al2       1.0  0.9883560997086535  0.502658746183883  0.5019517477715071  1.0000
  H   H1        1.0  0.299745292823232  0.34876351040196596  0.5430861134760294  1.0000
  H   H2        1.0  0.6748959383270402  0.6586813268506545  0.46707119622090704  1.0000
  H   H3        1.0  0.6426467341191683  0.5402815695586298  0.2784388041341971  1.0000
  H   H4        1.0  0.7373733884134877  0.5363304942778412  0.13569182906107363  1.0000
  H   H5        1.0  0.04780300524288342  0.4759607421175005  0.2616176659531747  1.0000
  H   H6        1.0  0.9346823578173655  0.5275141892445061  0.7417580413258166  1.0000
  H   H7        1.0  0.3345627029007758  0.468559242838161  0.7265231934238018  1.0000
  H   H8        1.0  0.2429073313874567  0.4723405873164097  0.86925233050345  1.0000
  H   H9        1.0  0.227967067267727  0.23403248911465366  0.3901479025403206  1.0000
  H   H10       1.0  0.43750684552465197  0.7644112631601132  0.4005999832120681  1.0000
  H   H11       1.0  0.7512290237597555  0.889366185792127  0.5533356068988412  1.0000
  H   H12       1.0  0.6383328266242643  0.12616295861931087  0.5435924613283377  1.0000
  H   H13       1.0  0.17485033451003315  0.467456256232559  0.05739426375624393  1.0000
  H   H14       1.0  0.8112361632252244  0.5360916893296731  0.9461448212446303  1.0000
  H   H15       1.0  0.7630440920695847  0.10784573071298097  0.3233233755754767  1.0000
  H   H16       1.0  0.5327426418535098  0.23591767712146347  0.30509070366375113  1.0000
  H   H17       1.0  0.6326176826658739  0.10745081004129277  0.2437461109795934  1.0000
  H   H18       1.0  0.731676328925815  0.8759708338851122  0.2497200614023854  1.0000
  H   H19       1.0  0.7567070130644423  0.750761931862435  0.32274470655497123  1.0000
  H   H20       1.0  0.8698977531198083  0.8738353560141404  0.3275525562058733  1.0000
  C   C1        1.0  0.8595199663633011  0.2772113694971878  0.48557993782106496  1.0000
  C   C2        1.0  0.6891900708034271  0.49421727222943446  0.6410998646743452  1.0000
  C   C3        1.0  0.12485801916607622  0.7300157268522581  0.5036575973245334  1.0000
  C   C4        1.0  0.2886883669977819  0.5117143661025807  0.36279253186845045  1.0000
  C   C5        1.0  0.34005345256747427  0.5096545128041683  0.27752939031604035  1.0000
  C   C6        1.0  0.5344425072212146  0.5265840067340335  0.24234889426802655  1.0000
  C   C7        1.0  0.5858496257278032  0.5249933039801675  0.16329589557992116  1.0000
  C   C8        1.0  0.44347879596428924  0.5063640245812235  0.1178444020633904  1.0000
  C   C9        1.0  0.2481552709810657  0.4882413893710903  0.15409444205725722  1.0000
  C   C10       1.0  0.19700749273432894  0.490255527414561  0.2335599694631797  1.0000
  C   C11       1.0  0.4850226586390534  0.5045396774184141  0.037107616010615595  1.0000
  C   C12       1.0  0.4989456989272584  0.5014643131675809  0.9671466164349811  1.0000
  C   C13       1.0  0.5393946449604952  0.49969010722801943  0.8863902444870323  1.0000
  C   C14       1.0  0.73520247471383  0.5163999839027652  0.8496716009548068  1.0000
  C   C15       1.0  0.7848905966030343  0.5144649224518927  0.77013241416676  1.0000
  C   C16       1.0  0.6396716048672316  0.49660257561733784  0.7265110062713093  1.0000
  C   C17       1.0  0.44464335452243375  0.4811671401562164  0.762231968301876  1.0000
  C   C18       1.0  0.3949032996764502  0.4825519373564332  0.8413323515612279  1.0000
  C   C19       1.0  0.933401156262704  0.1370635500554584  0.47961019500671415  1.0000
  C   C20       1.0  0.1371709253906488  0.06969742766963087  0.4406063272919383  1.0000
  C   C21       1.0  0.7950122275869588  0.07231224108532787  0.5164939647651537  1.0000
  C   C22       1.0  0.2752439341060438  0.13076674347896497  0.39423810685458  1.0000
  C   C23       1.0  0.46563458118835394  0.06401241380092418  0.35319479297856304  1.0000
  C   C24       1.0  0.05965127853685461  0.8705192418276437  0.4894615775953073  1.0000
  C   C25       1.0  0.8579588988460856  0.9394745214261558  0.5218196643143146  1.0000
  C   C26       1.0  0.20007529928869136  0.933383820503103  0.44490823795062795  1.0000
  C   C27       1.0  0.39439368169534106  0.8671868810718733  0.4012371683538661  1.0000
  C   C28       1.0  0.5268697203371387  0.9284011182676719  0.35672376204584577  1.0000
  C   C29       1.0  0.6048695495387549  0.13283501532170308  0.3039345761739014  1.0000
  C   C30       1.0  0.7312796691526273  0.853032294468036  0.31196409189389845  1.0000
  O   O1        1.0  0.6620787534222143  0.33374739917948654  0.4818360496072317  1.0000
  O   O2        1.0  0.8677227060654996  0.5067547553526168  0.609556009020814  1.0000
  O   O3        1.0  0.9847242401139906  0.6755091882469911  0.5004547049027154  1.0000
  O   O4        1.0  0.4287963367276503  0.5294418506623798  0.39807056049161105  1.0000
  O   O5        1.0  0.3140353152161096  0.6737812828559342  0.5187431214552163  1.0000
  O   O6        1.0  0.11115148019987939  0.49707626176952846  0.39372145379905993  1.0000
  O   O7        1.0  0.994370536868985  0.330434690876551  0.4974269731311837  1.0000
  O   O8        1.0  0.5464909673760232  0.4782160234899847  0.6063412729928361  1.0000
  O   O9        1.0  0.25807559067510494  0.4400282770107112  0.5329620875512333  1.0000
  O   O10       1.0  0.7182387523986191  0.566556097336658  0.4712041582851825  1.0000
  O   O11       1.0  0.10905383550345961  0.46849803718142613  0.11123507961566766  1.0000
  O   O12       1.0  0.8761934289221499  0.5348454214846469  0.8922095628032385  1.0000
