data_image0
_chemical_formula_structural       Li2B2H20C16O20
_chemical_formula_sum              "Li2 B2 H20 C16 O20"
_cell_length_a       8.72171148130068
_cell_length_b       8.841312581625983
_cell_length_c       9.30725419969346
_cell_angle_alpha    114.25971498607333
_cell_angle_beta     94.46036696643324
_cell_angle_gamma    106.8736882968957

_space_group_name_H-M_alt    "P 1"
_space_group_IT_number       1

loop_
  _space_group_symop_operation_xyz
  'x, y, z'

loop_
  _atom_site_type_symbol
  _atom_site_label
  _atom_site_symmetry_multiplicity
  _atom_site_fract_x
  _atom_site_fract_y
  _atom_site_fract_z
  _atom_site_occupancy
  Li  Li1       1.0  0.9951608697176155  0.46275635931222336  0.6604906170221982  1.0000
  Li  Li2       1.0  0.004839068747422468  0.5372435777905052  0.3395102077319977  1.0000
  B   B1        1.0  0.4025959277650699  0.22396579923077553  0.35660476189898566  1.0000
  B   B2        1.0  0.5974040131398792  0.7760341372787207  0.6433949883736718  1.0000
  H   H1        1.0  0.12686164158597527  0.8909535009236152  0.9723939105614224  1.0000
  H   H2        1.0  0.8731382993189741  0.1090464355858742  0.027605839711235133  1.0000
  H   H3        1.0  0.15589692918195652  0.8888182265025223  0.7822016373508094  1.0000
  H   H4        1.0  0.8441030117229927  0.11118171000696718  0.21779811292184095  1.0000
  H   H5        1.0  0.32989467740387096  0.964340678679953  0.9425816493942495  1.0000
  H   H6        1.0  0.6701068482512795  0.0356605870181852  0.05741873713373743  1.0000
  H   H7        1.0  0.1991882812523542  0.6769266270147156  0.034501020644661755  1.0000
  H   H8        1.0  0.8008116596525953  0.32307330949477386  0.9654987296279957  1.0000
  H   H9        1.0  0.3988083925548623  0.7411475158261922  0.9935276734575071  1.0000
  H   H10       1.0  0.6011919822642824  0.2588537474560582  0.006472625797549386  1.0000
  H   H11       1.0  0.33261193364723596  0.4382123908180162  0.7686227149669664  1.0000
  H   H12       1.0  0.6673868539817889  0.5617875438688172  0.2313780225143063  1.0000
  H   H13       1.0  0.2998115812223858  0.42897550555221636  0.9535785113782611  1.0000
  H   H14       1.0  0.700188357242652  0.571024431550505  0.04642231337593478  1.0000
  H   H15       1.0  0.07636285850112051  0.1467972861450164  0.835386602019135  1.0000
  H   H16       1.0  0.9236359291279044  0.853202648541817  0.1646141354621308  1.0000
  H   H17       1.0  0.13372854792593364  0.12499497941495012  0.6485918966691955  1.0000
  H   H18       1.0  0.8662702421430026  0.8750049546786587  0.3514077663305388  1.0000
  H   H19       1.0  0.9251725530049342  0.10245965552070399  0.6662608478867185  1.0000
  H   H20       1.0  0.0748262370640021  0.8975402785729046  0.33373881511300874  1.0000
  C   C1        1.0  0.6438500752605093  0.2119810843227654  0.46011107024744297  1.0000
  C   C2        1.0  0.35615058012634654  0.788017528423076  0.5398892927972698  1.0000
  C   C3        1.0  0.5240315069929693  0.022060267609738598  0.3448651390572196  1.0000
  C   C4        1.0  0.4759688678261681  0.9779409956725189  0.6551351601978369  1.0000
  C   C5        1.0  0.24969448814066914  0.34138393600513695  0.2502421090673368  1.0000
  C   C6        1.0  0.7503024414901631  0.6586173182497819  0.7497547049243283  1.0000
  C   C7        1.0  0.1924459906030478  0.3313342430478059  0.3989256319379138  1.0000
  C   C8        1.0  0.8075584100591299  0.6686617234431224  0.6010696843075395  1.0000
  C   C9        1.0  0.203726654606605  0.8683995209428517  0.88246491962493  1.0000
  C   C10       1.0  0.7962740032201695  0.1315990912097575  0.11753436893824445  1.0000
  C   C11       1.0  0.2692608834428469  0.6534196463197475  0.9388051369512243  1.0000
  C   C12       1.0  0.7307390574621023  0.34658029018974185  0.06119461332143322  1.0000
  C   C13       1.0  0.25770642771752245  0.4629146841528565  0.8600398933512071  1.0000
  C   C14       1.0  0.7422930792732386  0.5370839255838717  0.13995930793904424  1.0000
  C   C15       1.0  0.05456808819239  0.17169814958770502  0.7301084377025407  1.0000
  C   C16       1.0  0.9454318502726481  0.8283017875150166  0.26989238705165547  1.0000
  O   O1        1.0  0.5702615141438798  0.3253130886459417  0.46180243904541396  1.0000
  O   O2        1.0  0.4297391436828875  0.6746855235066747  0.5381968495177605  1.0000
  O   O3        1.0  0.781378659179367  0.2503536772582463  0.5350567447602189  1.0000
  O   O4        1.0  0.21862127928567088  0.7496462598444752  0.46494407999396986  1.0000
  O   O5        1.0  0.38680012493212956  0.0360954330234833  0.28520617068983267  1.0000
  O   O6        1.0  0.6132009692487443  0.9639045053086619  0.7147925923742025  1.0000
  O   O7        1.0  0.5494973479174448  0.8853866668125364  0.31432674462637783  1.0000
  O   O8        1.0  0.4505025905475932  0.11461327029018517  0.685674080127818  1.0000
  O   O9        1.0  0.37340288527460064  0.2800356000069755  0.229926164569342  1.0000
  O   O10       1.0  0.6265963435883536  0.719965659672937  0.7700718984497146  1.0000
  O   O11       1.0  0.18882836244286233  0.39460136850879474  0.16725668816704342  1.0000
  O   O12       1.0  0.8111735898067565  0.6054012257417937  0.8327474707879504  1.0000
  O   O13       1.0  0.27717759376686496  0.25781250508829606  0.4547779333402958  1.0000
  O   O14       1.0  0.7228223520179071  0.7421874302347362  0.5452196679692849  1.0000
  O   O15       1.0  0.08407705205624443  0.38383027690433386  0.4528327262247914  1.0000
  O   O16       1.0  0.9159210113312213  0.6161709839190762  0.5471716964105655  1.0000
  O   O17       1.0  0.20143064105177896  0.6906022391702606  0.8160278155526869  1.0000
  O   O18       1.0  0.798569297413259  0.3093976979324608  0.1839730092015088  1.0000
  O   O19       1.0  0.0873414378956099  0.35685753652661845  0.7836964229918312  1.0000
  O   O20       1.0  0.9126585005694282  0.6431424005761032  0.21630440176235785  1.0000
