data_image0
_chemical_formula_structural       Zn4H7C17ClO13
_chemical_formula_sum              "Zn4 H7 C17 Cl1 O13"
_cell_length_a       10.933446461995818
_cell_length_b       11.010706907943582
_cell_length_c       16.13653870275123
_cell_angle_alpha    90.24533125395138
_cell_angle_beta     98.4633357746208
_cell_angle_gamma    98.93399650547629

_space_group_name_H-M_alt    "P 1"
_space_group_IT_number       1

loop_
  _space_group_symop_operation_xyz
  'x, y, z'

loop_
  _atom_site_type_symbol
  _atom_site_label
  _atom_site_symmetry_multiplicity
  _atom_site_fract_x
  _atom_site_fract_y
  _atom_site_fract_z
  _atom_site_occupancy
  Zn  Zn1       1.0  0.4074621741506164  0.5912038974704358  0.5687019949456911  1.0000
  Zn  Zn2       1.0  0.6064696162141202  0.6198637525848056  0.4401882780168762  1.0000
  Zn  Zn3       1.0  0.3792423857317715  0.387058273515315  0.41849607160320085  1.0000
  Zn  Zn4       1.0  0.6009048781269472  0.4023865358321713  0.5724275639263326  1.0000
  H   H1        1.0  0.5961420548897537  0.40742056992709047  0.010141922951262875  1.0000
  H   H2        1.0  0.40507616830974064  0.5890300446646253  0.9902202566804235  1.0000
  H   H3        1.0  0.033901344678632477  0.595065704114262  0.566985792798917  1.0000
  H   H4        1.0  0.3954527876935429  0.9857868445087095  0.4321650483770227  1.0000
  H   H5        1.0  0.6964383100938817  0.9445061048249455  0.6259937619173003  1.0000
  H   H6        1.0  0.7210522071106312  0.0853125206276175  0.5717615095391793  1.0000
  H   H7        1.0  0.6166529054391107  0.0692677831254827  0.645514739351576  1.0000
  C   C1        1.0  0.833884099019265  0.5268693356947979  0.5186218290795139  1.0000
  C   C2        1.0  0.525973922292664  0.8323769678036969  0.5167581240293159  1.0000
  C   C3        1.0  0.475585178267977  0.16816790153637842  0.48390934448038786  1.0000
  C   C4        1.0  0.4812214243030014  0.5150801949799941  0.2755722988337155  1.0000
  C   C5        1.0  0.5172689211454795  0.4852768066581277  0.7251498914377024  1.0000
  C   C6        1.0  0.47550021966420525  0.5199152511926144  0.1857799625001277  1.0000
  C   C7        1.0  0.46719619164006326  0.5297823845612014  0.022723806515117  1.0000
  C   C8        1.0  0.5341142124791317  0.4666036724626536  0.9776021695705879  1.0000
  C   C9        1.0  0.6509060177961531  0.019056957221955897  0.5969837666710947  1.0000
  C   C10       1.0  0.5272254372092959  0.4737936833044997  0.890332615936913  1.0000
  C   C11       1.0  0.47265151579117765  0.5237991757733695  0.10994193535497489  1.0000
  C   C12       1.0  0.5230882701331651  0.47854247929513605  0.8144126315816109  1.0000
  C   C13       1.0  0.023268507501747086  0.46146385532281187  0.4727205692037444  1.0000
  C   C14       1.0  0.9715470708385042  0.5311438760546848  0.5218667238599792  1.0000
  C   C15       1.0  0.4687305620023636  0.033689996182808095  0.4795220715049311  1.0000
  C   C16       1.0  0.5451472533459096  0.9697909922874999  0.5289920660204784  1.0000
  C   C17       1.0  0.1630828915824054  0.4712801092648463  0.4796590906591832  1.0000
  Cl  Cl1       1.0  0.9335525934410642  0.3577932480198029  0.39932409766031185  1.0000
  O   O1        1.0  0.49775756476663696  0.501179786981538  0.49850524382993916  1.0000
  O   O2        1.0  0.5645068253123  0.5945287169800934  0.318000081705577  1.0000
  O   O3        1.0  0.5831419316047358  0.4186188488024526  0.6911460080094612  1.0000
  O   O4        1.0  0.4030591126042751  0.4324882213592502  0.3026530243319314  1.0000
  O   O5        1.0  0.44680137273409304  0.5574088152556769  0.6883936730918521  1.0000
  O   O6        1.0  0.4493169268631121  0.7709124437731134  0.5588544962911328  1.0000
  O   O7        1.0  0.5585978024554307  0.22901532768097607  0.5392790731714071  1.0000
  O   O8        1.0  0.7844137836863467  0.6031028926021521  0.4707900490677517  1.0000
  O   O9        1.0  0.20536796150722123  0.40443025045822617  0.4298979120369069  1.0000
  O   O10       1.0  0.780776395983274  0.4493140504656239  0.5652379108747425  1.0000
  O   O11       1.0  0.22595173458082476  0.5472834771950874  0.5359463668457635  1.0000
  O   O12       1.0  0.5917814015912483  0.7909362085274412  0.4676766682534677  1.0000
  O   O13       1.0  0.3964874059754635  0.21394797483572595  0.431241675371794  1.0000
