data_image0
_chemical_formula_structural       U4H52C24S4N4O44
_chemical_formula_sum              "U4 H52 C24 S4 N4 O44"
_cell_length_a       8.165968918020699
_cell_length_b       12.215421890611909
_cell_length_c       14.418658893656772
_cell_angle_alpha    90.0009487601656
_cell_angle_beta     101.49124259238629
_cell_angle_gamma    90.00043551084369

_space_group_name_H-M_alt    "P 1"
_space_group_IT_number       1

loop_
  _space_group_symop_operation_xyz
  'x, y, z'

loop_
  _atom_site_type_symbol
  _atom_site_label
  _atom_site_symmetry_multiplicity
  _atom_site_fract_x
  _atom_site_fract_y
  _atom_site_fract_z
  _atom_site_occupancy
  U   U1        1.0  0.7562853238477275  0.357786776677159  0.36235755177575857  1.0000
  U   U2        1.0  0.7437189766808744  0.8577902061615534  0.13764258227087106  1.0000
  U   U3        1.0  0.24371175900125766  0.6422155158226773  0.6376419644982645  1.0000
  U   U4        1.0  0.2562856033946516  0.14220799317838842  0.8623577272905081  1.0000
  H   H1        1.0  0.022431928838415202  0.38966604160340507  0.5405089061587987  1.0000
  H   H2        1.0  0.4775609029534921  0.8896687405881567  0.9594931202708352  1.0000
  H   H3        1.0  0.9775676846441925  0.6103329763697474  0.4594922650723703  1.0000
  H   H4        1.0  0.5224399284842605  0.11032864010117999  0.04050679262396528  1.0000
  H   H5        1.0  0.13363351184427333  0.373875641490045  0.45811850321692293  1.0000
  H   H6        1.0  0.36636320681470386  0.8738729081904566  0.04188220004123621  1.0000
  H   H7        1.0  0.8663660858791148  0.6261266510254871  0.5418819727687705  1.0000
  H   H8        1.0  0.6336413100979217  0.1261236538475927  0.9581153284204618  1.0000
  H   H9        1.0  0.49394836819212173  0.3685198036798597  0.1652773216573848  1.0000
  H   H10       1.0  0.006051976016941299  0.8685275192076318  0.33472230219066995  1.0000
  H   H11       1.0  0.5060463260872509  0.6314833074961612  0.8347267970847055  1.0000
  H   H12       1.0  0.9939488239163696  0.13147804784107106  0.6652762202262537  1.0000
  H   H13       1.0  0.6690802770776116  0.41008308221358913  0.14512908275814598  1.0000
  H   H14       1.0  0.8309274485174571  0.9100903699004165  0.3548735422325109  1.0000
  H   H15       1.0  0.3309206491184896  0.5899183917031793  0.8548750017992717  1.0000
  H   H16       1.0  0.16906957116862745  0.08991028529753459  0.6451231929418313  1.0000
  H   H17       1.0  0.8351945722134247  0.2985669944682386  0.722814193623499  1.0000
  H   H18       1.0  0.6648044795346523  0.7985580136789353  0.7771825880941136  1.0000
  H   H19       1.0  0.16480243169243644  0.701434479360188  0.2771818462857283  1.0000
  H   H20       1.0  0.3351950708270622  0.20144427881612614  0.22281580207663146  1.0000
  H   H21       1.0  0.9658125913052302  0.4209467233161136  0.8571231998680842  1.0000
  H   H22       1.0  0.5341960664587261  0.9209410140785295  0.6428770266451662  1.0000
  H   H23       1.0  0.034189505449333496  0.5790490201098778  0.142877540505296  1.0000
  H   H24       1.0  0.4658071851790808  0.0790620970466662  0.3571196743772091  1.0000
  H   H25       1.0  0.8088392774442925  0.5156564276207618  0.8052601309812317  1.0000
  H   H26       1.0  0.6911639827720109  0.0156526749469776  0.6947462642979545  1.0000
  H   H27       1.0  0.19116288246616625  0.48434013446981794  0.1947433904852858  1.0000
  H   H28       1.0  0.3088381140455567  0.9843504362147187  0.3052544761343015  1.0000
  H   H29       1.0  0.6587250801238441  0.4447432338748244  0.6377069759045639  1.0000
  H   H30       1.0  0.8412740672384587  0.9447425320837937  0.8622960496219889  1.0000
  H   H31       1.0  0.34127205006581113  0.5552566027335786  0.36229462616477537  1.0000
  H   H32       1.0  0.15871934590187212  0.055258123162254015  0.1377065463371636  1.0000
  H   H33       1.0  0.5336380562652182  0.4320491645249832  0.7252587207774609  1.0000
  H   H34       1.0  0.9663695892174575  0.9320465655747583  0.774743636822464  1.0000
  H   H35       1.0  0.4663615414441652  0.5679514907159415  0.2747417551951514  1.0000
  H   H36       1.0  0.033626291463605205  0.06795736421570812  0.22525783305957955  1.0000
  H   H37       1.0  0.4178627472409318  0.32869695429926093  0.5801340964982842  1.0000
  H   H38       1.0  0.08213282204572893  0.8286977088172094  0.9198687425592738  1.0000
  H   H39       1.0  0.582135585144634  0.6713045195677126  0.41986555198921127  1.0000
  H   H40       1.0  0.9178679778595795  0.17130458368228574  0.0801297798314877  1.0000
  H   H41       1.0  0.46743433724948613  0.2361519008033355  0.6775188957594693  1.0000
  H   H42       1.0  0.032563445297967106  0.7361496873319596  0.8224849464636961  1.0000
  H   H43       1.0  0.5325602780867628  0.7638503917012756  0.32248174661783213  1.0000
  H   H44       1.0  0.9674348713073828  0.26385260516548936  0.17751400675868473  1.0000
  H   H45       1.0  0.5948630234880172  0.25427081946351393  0.8144714761995218  1.0000
  H   H46       1.0  0.9051453460633995  0.7542702650990378  0.6855291316519256  1.0000
  H   H47       1.0  0.405136479442021  0.745723286638075  0.18552482809084128  1.0000
  H   H48       1.0  0.0948555485442455  0.24572957152948763  0.3144735623491001  1.0000
  H   H49       1.0  0.7192350463611135  0.3426847679279987  0.8972076136662678  1.0000
  H   H50       1.0  0.7807785680567747  0.8426803362832089  0.6027941087946187  1.0000
  H   H51       1.0  0.28076451973881683  0.6573117941127793  0.1027914717303275  1.0000
  H   H52       1.0  0.2192272931437813  0.1573186817121126  0.39720772353661715  1.0000
  C   C1        1.0  0.8820025095623335  0.4446593310071593  0.7906826720525115  1.0000
  C   C2        1.0  0.6180028366652126  0.944652065208146  0.709318927365544  1.0000
  C   C3        1.0  0.11799710390627642  0.5553380496913861  0.20931849916557607  1.0000
  C   C4        1.0  0.3819991969894545  0.05534940865165792  0.2906790319670307  1.0000
  C   C5        1.0  0.9840541221854482  0.4698663353332577  0.7156177475254424  1.0000
  C   C6        1.0  0.5159453442667755  0.9698592017117849  0.7843808126281644  1.0000
  C   C7        1.0  0.015946709280299797  0.5301343199052795  0.28438216539552735  1.0000
  C   C8        1.0  0.484054221833162  0.03013736032899321  0.21561827276843099  1.0000
  C   C9        1.0  0.6158152346478473  0.3878122902140363  0.6865803053993671  1.0000
  C   C10       1.0  0.8841854223746354  0.8878108508890322  0.8134213792774645  1.0000
  C   C11       1.0  0.3841830977377257  0.6121891836529372  0.31341934308812813  1.0000
  C   C12       1.0  0.11581297317383842  0.11219226027982637  0.18658105030971225  1.0000
  C   C13       1.0  0.5201842956269757  0.29342182358631425  0.6325943726592056  1.0000
  C   C14       1.0  0.97981354495316  0.7934211001162056  0.8674077568346448  1.0000
  C   C15       1.0  0.47981530208940637  0.7065796502919142  0.3674061033199507  1.0000
  C   C16       1.0  0.020186052763229205  0.2065803737620158  0.1325927191445047  1.0000
  C   C17       1.0  0.8446647099065672  0.19539312133009898  0.8681740513187107  1.0000
  C   C18       1.0  0.6553413083893248  0.6953853502297136  0.6318213114950735  1.0000
  C   C19       1.0  0.15533482462592474  0.8046042593343403  0.1318236435411322  1.0000
  C   C20       1.0  0.3446570871381454  0.30461530502724804  0.3681811180724779  1.0000
  C   C21       1.0  0.7206732301464955  0.2876930448134587  0.8372651092820931  1.0000
  C   C22       1.0  0.7793332118887051  0.7876905939666661  0.6627357683514675  1.0000
  C   C23       1.0  0.27932508640984827  0.7123035172228854  0.1627338438944932  1.0000
  C   C24       1.0  0.22066890068808223  0.21230924265265125  0.337265667326271  1.0000
  S   S1        1.0  0.6386210590938293  0.21066544011881663  0.5673131001902192  1.0000
  S   S2        1.0  0.8613741324493775  0.7106670314373814  0.9326882695550438  1.0000
  S   S3        1.0  0.36137855440277633  0.7893352151289292  0.43268807105404505  1.0000
  S   S4        1.0  0.1386254494797896  0.28933444243401857  0.0673115111524609  1.0000
  N   N1        1.0  0.7667990638119734  0.3512628462002567  0.7577524309978043  1.0000
  N   N2        1.0  0.7332047167260072  0.8512559839778292  0.7422490660714303  1.0000
  N   N3        1.0  0.2332005181031889  0.6487369903965503  0.24224734969661196  1.0000
  N   N4        1.0  0.26679736429733225  0.14874630853974222  0.2577509790826369  1.0000
  O   O1        1.0  0.06039468227246662  0.56325917036353  0.7262998936159875  1.0000
  O   O2        1.0  0.4395937693730261  0.0632483846720504  0.7736949616629829  1.0000
  O   O3        1.0  0.9396011036432557  0.43673984756220824  0.2736974045969021  1.0000
  O   O4        1.0  0.5604032029233891  0.9367489959562291  0.22629968767023456  1.0000
  O   O5        1.0  0.5243722337213158  0.13098831212222004  0.5150985111925408  1.0000
  O   O6        1.0  0.9756253280261546  0.6309898597918179  0.9849012863423567  1.0000
  O   O7        1.0  0.4756248807091127  0.8690147990285624  0.4849023956313303  1.0000
  O   O8        1.0  0.0243830323175871  0.3690157073107727  0.015100810481243296  1.0000
  O   O9        1.0  0.8112883848802925  0.1248909037507318  0.9243525817719913  1.0000
  O   O10       1.0  0.6887176298810687  0.6248846605106239  0.5756397005169376  1.0000
  O   O11       1.0  0.18871366453360144  0.8751072955666928  0.07564607280605878  1.0000
  O   O12       1.0  0.31128315421601377  0.37511517607015327  0.42435812658253974  1.0000
  O   O13       1.0  0.7065561280492576  0.2891453071311005  0.5051864590438483  1.0000
  O   O14       1.0  0.7934479028982651  0.7891444940843684  0.9948169584630546  1.0000
  O   O15       1.0  0.2934447192037127  0.710855348114265  0.4948141491487732  1.0000
  O   O16       1.0  0.20655795830929694  0.21085534254824992  0.005184873874718195  1.0000
  O   O17       1.0  0.9859252639017341  0.4009741184349097  0.6522397738387226  1.0000
  O   O18       1.0  0.5140693389118455  0.900971486393928  0.8477600695703558  1.0000
  O   O19       1.0  0.0140768486680543  0.5990248995471035  0.3477616618324787  1.0000
  O   O20       1.0  0.48592522903473423  0.09902753154101873  0.15223848696582107  1.0000
  O   O21       1.0  0.0186776637534933  0.3673689730070393  0.4735008137413529  1.0000
  O   O22       1.0  0.48131900685665846  0.8673755231816643  0.026502566671815896  1.0000
  O   O23       1.0  0.9813219655303415  0.632631682247535  0.5265010527745558  1.0000
  O   O24       1.0  0.5186855574036356  0.13261940160225547  0.973497047591742  1.0000
  O   O25       1.0  0.6032346485407843  0.40163341751387094  0.1938452770170187  1.0000
  O   O26       1.0  0.896766637456132  0.9016392674878304  0.306154465983539  1.0000
  O   O27       1.0  0.3967599983769147  0.5983696936416862  0.8061567559101234  1.0000
  O   O28       1.0  0.10323414668294362  0.09836548091674054  0.6938433611551956  1.0000
  O   O29       1.0  0.8170870671195021  0.2252753665114611  0.32333864541327273  1.0000
  O   O30       1.0  0.68289862839773  0.7252776138262507  0.17665348000630837  1.0000
  O   O31       1.0  0.18291366962990446  0.7747261073234458  0.6766570958843373  1.0000
  O   O32       1.0  0.31710349995228165  0.2747205855252872  0.8233486509299937  1.0000
  O   O33       1.0  0.6996763386850304  0.4916497346449234  0.3980004615028108  1.0000
  O   O34       1.0  0.8003316427940846  0.9916527537538328  0.10200820193674791  1.0000
  O   O35       1.0  0.3003220410272148  0.5083476460560094  0.6020012727669126  1.0000
  O   O36       1.0  0.19967042240703134  0.0083454455704128  0.897991147912954  1.0000
  O   O37       1.0  0.9760827085630129  0.1983172726782031  0.8321109146769032  1.0000
  O   O38       1.0  0.52392215755318  0.6983087251353979  0.6678864484666819  1.0000
  O   O39       1.0  0.02391812287473271  0.8016801080111334  0.1678889982178973  1.0000
  O   O40       1.0  0.4760787054660157  0.3016894742048848  0.33211485497795923  1.0000
  O   O41       1.0  0.7773092473269259  0.1638265066509277  0.6378409342531838  1.0000
  O   O42       1.0  0.7226851589039357  0.6638211122382176  0.8621603820113393  1.0000
  O   O43       1.0  0.22268914820754301  0.8361749672433307  0.3621614953209046  1.0000
  O   O44       1.0  0.27731693785762707  0.3361754498250704  0.1378403583685781  1.0000
