data_image0
_chemical_formula_structural       Zn6H8C40O24
_chemical_formula_sum              "Zn6 H8 C40 O24"
_cell_length_a       18.5375557999518
_cell_length_b       18.537462527909867
_cell_length_c       20.78130458501026
_cell_angle_alpha    116.50235147248661
_cell_angle_beta     116.50156305925275
_cell_angle_gamma    89.97709247718086

_space_group_name_H-M_alt    "P 1"
_space_group_IT_number       1

loop_
  _space_group_symop_operation_xyz
  'x, y, z'

loop_
  _atom_site_type_symbol
  _atom_site_label
  _atom_site_symmetry_multiplicity
  _atom_site_fract_x
  _atom_site_fract_y
  _atom_site_fract_z
  _atom_site_occupancy
  Zn  Zn1       1.0  0.999991537503078  0.4299629344692947  0.9999770685602555  1.0000
  Zn  Zn2       1.0  0.5403629399225024  0.540363760395593  0.08071260712709008  1.0000
  Zn  Zn3       1.0  0.45963974614517145  0.4596399796241287  0.9192884644192886  1.0000
  Zn  Zn4       1.0  0.5700380625634907  8.379417487021706e-06  1.8627111352009664e-05  1.0000
  Zn  Zn5       1.0  1.051058917061063e-05  0.570044585870349  2.0316950376289578e-05  1.0000
  Zn  Zn6       1.0  0.4299545027263106  0.9999901001427179  0.9999752843072044  1.0000
  H   H1        1.0  0.8696000617029822  0.37213315874073777  0.5771694308605291  1.0000
  H   H2        1.0  0.20605751355603982  0.8707123572695682  0.5771645921388853  1.0000
  H   H3        1.0  0.7075299427548456  0.20501379298942612  0.5771557955263019  1.0000
  H   H4        1.0  0.37108609579659196  0.7064204827378548  0.5771606733964489  1.0000
  H   H5        1.0  0.29318101896502197  0.6285120520578078  0.42281900743437  1.0000
  H   H6        1.0  0.6296331213652663  0.128630133331427  0.4228332771085021  1.0000
  H   H7        1.0  0.1296588743865996  0.7943132914208848  0.42283065017382176  1.0000
  H   H8        1.0  0.7932376721508161  0.2942451870258864  0.422844286080469  1.0000
  C   C1        1.0  0.13970127591213802  0.500020251963385  0.999995008782804  1.0000
  C   C2        1.0  0.4199716480804694  0.9199262329193804  0.8398122308174579  1.0000
  C   C3        1.0  0.08007495673236056  0.5800301050295503  0.16017982032589373  1.0000
  C   C4        1.0  0.5800182247421329  0.08006988930128496  0.1601830534705328  1.0000
  C   C5        1.0  0.9199335469715276  0.4199828636517324  0.8398174282687093  1.0000
  C   C6        1.0  0.7747045316630049  0.27521749637033116  0.45700217885343625  1.0000
  C   C7        1.0  0.18236190818669215  0.775271115246291  0.45700340398325057  1.0000
  C   C8        1.0  0.6823305715084942  0.18181979936058218  0.457007370732768  1.0000
  C   C9        1.0  0.5000160160170635  0.1396962114250329  0.9999925699430249  1.0000
  C   C10       1.0  0.2746300265109909  0.6817098147063235  0.45698553930152735  1.0000
  C   C11       1.0  0.3180424618273675  0.725118437803211  0.5429831036809034  1.0000
  C   C12       1.0  0.7257402043672697  0.22436388016073042  0.5429993574787416  1.0000
  C   C13       1.0  0.22490115800058413  0.8178160874813757  0.542995478696838  1.0000
  C   C14       1.0  0.8172306444549731  0.318623271105011  0.542999811909574  1.0000
  C   C15       1.0  0.8603061207244735  0.4999899750711308  1.4454423684510211e-05  1.0000
  C   C16       1.0  0.7063600445223485  0.2063594225349022  0.4126963484496428  1.0000
  C   C17       1.0  0.20632280052636526  0.7063232914072942  0.41268179662169757  1.0000
  C   C18       1.0  0.2936484867802989  0.7936407592353734  0.5873005245675316  1.0000
  C   C19       1.0  0.7936455857983729  0.2936520192583601  0.5873106566581114  1.0000
  C   C20       1.0  0.4999860875627461  0.860307714549414  1.1183392338382156e-05  1.0000
  C   C21       1.0  0.6624304201919387  0.1624243305942914  0.324886509331222  1.0000
  C   C22       1.0  0.16241209851451527  0.6624196059211515  0.32487732690179166  1.0000
  C   C23       1.0  0.3375784096173717  0.837577200625482  0.6751104724189998  1.0000
  C   C24       1.0  0.8375746034318325  0.33758248906412563  0.6751183454737201  1.0000
  C   C25       1.0  0.8753815412953967  0.37540440462581165  0.7507053103696605  1.0000
  C   C26       1.0  0.3753873183266235  0.8753902068449478  0.7506965927688823  1.0000
  C   C27       1.0  0.1246108562932306  0.6246134850184435  0.24929251403911923  1.0000
  C   C28       1.0  0.6246008774118151  0.1246225390351441  0.2493010513730454  1.0000
  C   C29       1.0  0.21742922508059334  0.4999991685558954  5.71419697264686e-07  1.0000
  C   C30       1.0  0.5000001212700055  0.21742601989824822  0.9999990615556414  1.0000
  C   C31       1.0  0.7825760459414396  0.5000040412627484  4.035535127342414e-06  1.0000
  C   C32       1.0  0.500003635474904  0.7825784537840264  4.6188135838986575e-06  1.0000
  C   C33       1.0  0.28301505857159254  0.500011762156838  2.7782502697109394e-06  1.0000
  C   C34       1.0  0.5000100720214746  0.283015213621745  8.487999806966242e-06  1.0000
  C   C35       1.0  0.7169865459730925  0.49999274380282105  0.9999946965285601  1.0000
  C   C36       1.0  0.49999343468726937  0.7169925148840052  3.1548509086931434e-06  1.0000
  C   C37       1.0  0.4999856851208048  0.6393523120818903  0.9999815947275223  1.0000
  C   C38       1.0  0.3606520239544294  0.5000194848717429  2.3223703315978435e-05  1.0000
  C   C39       1.0  0.5000254794053871  0.36065464108703094  2.769785753289117e-05  1.0000
  C   C40       1.0  0.6393485581378469  0.4999792506332953  0.9999765604498662  1.0000
  O   O1        1.0  0.10924233025684055  0.43818751910171744  0.9998374781207244  1.0000
  O   O2        1.0  0.5617020023201887  0.10922268259159304  0.9998193586846751  1.0000
  O   O3        1.0  0.8905934471719588  0.5616559133919525  0.9998393246591277  1.0000
  O   O4        1.0  0.438132427519548  0.8906083410994157  0.9998543294355142  1.0000
  O   O5        1.0  0.10940574463482015  0.5618748783729262  0.00015452766541558676  1.0000
  O   O6        1.0  0.5618167161012904  0.8907672478797225  0.00016839435271259732  1.0000
  O   O7        1.0  0.8907788445679188  0.43830252440201206  0.00018860400642513943  1.0000
  O   O8        1.0  0.4383508436740866  0.10940916144946296  0.00017061652520307987  1.0000
  O   O9        1.0  0.9373032412971937  0.3761074875226742  0.875492212188462  1.0000
  O   O10       1.0  0.4995184243390224  0.9373162707166643  0.87550089473077  1.0000
  O   O11       1.0  0.9382138209104837  0.49953494140902427  0.875522318036971  1.0000
  O   O12       1.0  0.3761040824546668  0.938152389916688  0.875491091030433  1.0000
  O   O13       1.0  0.06184691298022213  0.6238985107814586  0.12450221592841605  1.0000
  O   O14       1.0  0.6238934482420361  0.06270177357476571  0.124513218563429  1.0000
  O   O15       1.0  0.06268233569075929  0.5004804699533594  0.1244919196622973  1.0000
  O   O16       1.0  0.500470168385604  0.06179509738153395  0.12448471723441652  1.0000
  O   O17       1.0  0.4646105769259278  0.5732879663681418  0.9289935503596851  1.0000
  O   O18       1.0  0.3557493395807256  0.46464530495338613  0.9290498207059911  1.0000
  O   O19       1.0  0.46439825311562527  0.355745977266871  0.929052599794261  1.0000
  O   O20       1.0  0.5732803222525575  0.4643457078352144  0.9289918616977744  1.0000
  O   O21       1.0  0.5356600752033456  0.42672325447275483  0.07101072974040079  1.0000
  O   O22       1.0  0.426717588764454  0.5353944657290342  0.07101129507285008  1.0000
  O   O23       1.0  0.5353595410157935  0.6442565370171993  0.0709546731718332  1.0000
  O   O24       1.0  0.6442578771630351  0.535605827574223  0.07095162361345331  1.0000
