data_image0
_chemical_formula_structural       Li8H32C24N8O28
_chemical_formula_sum              "Li8 H32 C24 N8 O28"
_cell_length_a       6.615745628945406
_cell_length_b       11.757753750000088
_cell_length_c       12.116048862040486
_cell_angle_alpha    89.99998798458621
_cell_angle_beta     98.81119042017083
_cell_angle_gamma    90.00000896895563

_space_group_name_H-M_alt    "P 1"
_space_group_IT_number       1

loop_
  _space_group_symop_operation_xyz
  'x, y, z'

loop_
  _atom_site_type_symbol
  _atom_site_label
  _atom_site_symmetry_multiplicity
  _atom_site_fract_x
  _atom_site_fract_y
  _atom_site_fract_z
  _atom_site_occupancy
  Li  Li1       1.0  0.08258376512266351  0.1736377329823497  0.270707389130358  1.0000
  Li  Li2       1.0  0.41741685624349856  0.673637167718894  0.22929217664778886  1.0000
  Li  Li3       1.0  0.9174158828731649  0.826362737515595  0.7292933346693289  1.0000
  Li  Li4       1.0  0.5825858454413221  0.3263624522766548  0.7707079712982505  1.0000
  Li  Li5       1.0  0.31941128370476685  0.4902134853963602  0.5795901823348473  1.0000
  Li  Li6       1.0  0.1805892254028691  0.9902128582834423  0.9204100551626198  1.0000
  Li  Li7       1.0  0.6805898883929019  0.5097861345991318  0.42040984063552134  1.0000
  Li  Li8       1.0  0.8194119521800118  0.0097867617119647  0.0795907936128089  1.0000
  H   H1        1.0  0.31968533324197773  0.8864345747777946  0.5801044454112372  1.0000
  H   H2        1.0  0.18031055887181682  0.38643681819545594  0.9198946109603696  1.0000
  H   H3        1.0  0.6803112500940571  0.11356334421235202  0.4198952026322971  1.0000
  H   H4        1.0  0.8196890946091315  0.6135628017998087  0.08010693864444822  1.0000
  H   H5        1.0  0.16893701498682384  0.9182068360701409  0.17585273107808763  1.0000
  H   H6        1.0  0.33106059532769894  0.4182091133624369  0.32414571273812237  1.0000
  H   H7        1.0  0.8310595683493034  0.0817919334226005  0.8241469169653682  1.0000
  H   H8        1.0  0.6689405822553668  0.581792207638145  0.6758551360371426  1.0000
  H   H9        1.0  0.0382575169557171  0.4543843687266076  0.4048930246868281  1.0000
  H   H10       1.0  0.4617431714331416  0.9543846864171072  0.09510731385615398  1.0000
  H   H11       1.0  0.9617436551419585  0.5456152512688917  0.5951069982835477  1.0000
  H   H12       1.0  0.5382564765626867  0.0456157840808302  0.9048934099435256  1.0000
  H   H13       1.0  0.13313198600605597  0.33623424890853926  0.45665117994757765  1.0000
  H   H14       1.0  0.36686867100004145  0.8362345690407194  0.043348355111895394  1.0000
  H   H15       1.0  0.8668691806064003  0.6637653710870451  0.5433480172177454  1.0000
  H   H16       1.0  0.6331309769956944  0.16376505095463048  0.9566523686878695  1.0000
  H   H17       1.0  0.19229670434706492  0.5207116310805873  0.7768392509212632  1.0000
  H   H18       1.0  0.30770216677735357  0.020712226686477198  0.7231601244961324  1.0000
  H   H19       1.0  0.8076998844743739  0.4792879889146491  0.2231612229271676  1.0000
  H   H20       1.0  0.6922974757334471  0.9792899448167275  0.2768397734983381  1.0000
  H   H21       1.0  0.17869471321179728  0.3975852268011266  0.7242693808587646  1.0000
  H   H22       1.0  0.3213057701073581  0.8975854935416907  0.7757300483333864  1.0000
  H   H23       1.0  0.8213064588859637  0.602415243696953  0.275730642111526  1.0000
  H   H24       1.0  0.6786954074757076  0.10241582745889842  0.22427080044187866  1.0000
  H   H25       1.0  0.7583868626678409  0.28625877230950886  0.1985518245151496  1.0000
  H   H26       1.0  0.7416089201568995  0.786258175921155  0.3014482575979684  1.0000
  H   H27       1.0  0.24160972615378273  0.7137425486909096  0.8014486493331248  1.0000
  H   H28       1.0  0.2583907113832851  0.21374229457704527  0.6985499887865529  1.0000
  H   H29       1.0  0.7413285633668494  0.27081788331084766  0.3280654482645886  1.0000
  H   H30       1.0  0.7586718048348261  0.7708173159294488  0.1719350116927032  1.0000
  H   H31       1.0  0.25866955504192646  0.7291834376896207  0.6719351505593494  1.0000
  H   H32       1.0  0.24133089136487482  0.2291831545687728  0.8280643104482053  1.0000
  C   C1        1.0  0.378912917665744  0.6844665905836607  0.4637210438365784  1.0000
  C   C2        1.0  0.1210877060742419  0.18446805954037873  0.03627851989552511  1.0000
  C   C3        1.0  0.6210882544318324  0.31553217890924395  0.5362789791338756  1.0000
  C   C4        1.0  0.8789134769940431  0.815533261460118  0.9637231546847929  1.0000
  C   C5        1.0  0.2080718499356706  0.10772206262330287  0.5006440515577921  1.0000
  C   C6        1.0  0.2919285643627134  0.6077231297887165  0.9993546065917086  1.0000
  C   C7        1.0  0.7919247334004568  0.8922767068694383  0.4993555964856711  1.0000
  C   C8        1.0  0.7080695485606582  0.39227649020666894  0.000645166427339901  1.0000
  C   C9        1.0  0.3069061823247664  0.8009369679300703  0.42033677104397776  1.0000
  C   C10       1.0  0.19309140228506996  0.3009384341636903  0.0796616949275517  1.0000
  C   C11       1.0  0.6930919305985128  0.19906180156272066  0.5796630019751489  1.0000
  C   C12       1.0  0.8069067216088256  0.6990620363341121  0.9203397297015172  1.0000
  C   C13       1.0  0.22632871527747508  0.9967209573266588  0.4378642800402162  1.0000
  C   C14       1.0  0.273668906761408  0.4967224345288415  0.06213332313771501  1.0000
  C   C15       1.0  0.7736678625734398  0.0032778121661677993  0.5621345421981943  1.0000
  C   C16       1.0  0.7263322653362677  0.5032771854666507  0.9378666998326608  1.0000
  C   C17       1.0  0.28630881235915234  0.8936825659156182  0.48977814714157825  1.0000
  C   C18       1.0  0.2136872629926216  0.39368404873218316  0.0102201763322967  1.0000
  C   C19       1.0  0.7136877709769821  0.10631620357711569  0.5102215009018778  1.0000
  C   C20       1.0  0.7863123850031144  0.6063155712631668  0.9897805474674684  1.0000
  C   C21       1.0  0.2028899332454371  0.9113067004916644  0.2664176069374449  1.0000
  C   C22       1.0  0.29710768104185087  0.4113089939388813  0.2335816639874295  1.0000
  C   C23       1.0  0.797108179677842  0.08869206900112658  0.7335821660816819  1.0000
  C   C24       1.0  0.7028919669540699  0.5886923270616435  0.7664190598121721  1.0000
  N   N1        1.0  0.2687185274922541  0.8101734362001735  0.3083553579053486  1.0000
  N   N2        1.0  0.23128058872928386  0.3101748821171171  0.1916432312968439  1.0000
  N   N3        1.0  0.7312826391202021  0.18982618379541097  0.6916438392599744  1.0000
  N   N4        1.0  0.7687175296793995  0.6898255883807707  0.8083573675271793  1.0000
  N   N5        1.0  0.18155467700213992  0.004984769259373  0.3260546336592043  1.0000
  N   N6        1.0  0.31844131863540776  0.5049859078352057  0.1739445890545852  1.0000
  N   N7        1.0  0.8184419063339872  0.995014000233361  0.6739450143842518  1.0000
  N   N8        1.0  0.6815598589475725  0.4950145626627884  0.8260562597207651  1.0000
  O   O1        1.0  0.2429947379970727  0.10536020727819562  0.6065102357618244  1.0000
  O   O2        1.0  0.25700720537076177  0.6053612937570348  0.8934885478095468  1.0000
  O   O3        1.0  0.7570018453390617  0.8946385622145455  0.39348941228163165  1.0000
  O   O4        1.0  0.7429878538635248  0.3946383262381517  0.10651180106322039  1.0000
  O   O5        1.0  0.45791173841470106  0.6225151422563754  0.3961015581379286  1.0000
  O   O6        1.0  0.042090395847871796  0.12251573925894381  0.103897316469066  1.0000
  O   O7        1.0  0.5420909577849002  0.37748447773926586  0.6038977640030581  1.0000
  O   O8        1.0  0.9579092521479635  0.8774847312389935  0.8961034073306138  1.0000
  O   O9        1.0  0.35236252990632266  0.6566296292744126  0.561698062184945  1.0000
  O   O10       1.0  0.14764095977174924  0.1566310153450772  0.938301662481031  1.0000
  O   O11       1.0  0.647640177263618  0.34336914021846354  0.43830291156623247  1.0000
  O   O12       1.0  0.8523617473984685  0.8433703056555615  0.06169931126990488  1.0000
  O   O13       1.0  0.15943424131801007  0.1936508949367877  0.4396205901151546  1.0000
  O   O14       1.0  0.34057096222599637  0.6936512090900917  0.06037769519880242  1.0000
  O   O15       1.0  0.8405684548815983  0.8063487250588538  0.560378732025832  1.0000
  O   O16       1.0  0.6594347931478168  0.3063475604030685  0.9396218768935967  1.0000
  O   O17       1.0  0.15891181984018493  0.47977014360897385  0.7048178645461148  1.0000
  O   O18       1.0  0.34108715739121453  0.9797695575009654  0.795182249948695  1.0000
  O   O19       1.0  0.8410878281556435  0.5202303268889635  0.2951828592535648  1.0000
  O   O20       1.0  0.6589140201917658  0.020230912997028797  0.20481859882664818  1.0000
  O   O21       1.0  0.14213848887462183  0.4202562499691851  0.4620329858599703  1.0000
  O   O22       1.0  0.3578637161355687  0.9202565704325494  0.0379666583012934  1.0000
  O   O23       1.0  0.8578626832230468  0.5797433700263069  0.5379670371104055  1.0000
  O   O24       1.0  0.6421359263750476  0.07974390006547337  0.9620332396933405  1.0000
  O   O25       1.0  0.7877889252544393  0.23254357479588342  0.2631480823772492  1.0000
  O   O26       1.0  0.7122129641448679  0.7325421389613279  0.2368525097867717  1.0000
  O   O27       1.0  0.21220919863954887  0.7674577462045065  0.7368533422517417  1.0000
  O   O28       1.0  0.2877897265695211  0.2674574810343984  0.763145986549162  1.0000
