data_image0
_chemical_formula_structural       Zn12P8H128C208N8O48
_chemical_formula_sum              "Zn12 P8 H128 C208 N8 O48"
_cell_length_a       22.162767086835856
_cell_length_b       22.162752526759235
_cell_length_c       22.16274710788932
_cell_angle_alpha    106.16315268741174
_cell_angle_beta     107.16253448671654
_cell_angle_gamma    115.24857194346511

_space_group_name_H-M_alt    "P 1"
_space_group_IT_number       1

loop_
  _space_group_symop_operation_xyz
  'x, y, z'

loop_
  _atom_site_type_symbol
  _atom_site_label
  _atom_site_symmetry_multiplicity
  _atom_site_fract_x
  _atom_site_fract_y
  _atom_site_fract_z
  _atom_site_occupancy
  Zn  Zn1       1.0  0.14793482231027608  0.24999899637141  0.39793529796094873  1.0000
  Zn  Zn2       1.0  0.35206377092547564  0.7500005004272409  0.10206328958920344  1.0000
  Zn  Zn3       1.0  0.8520636139054146  0.749999432613336  0.602063187468694  1.0000
  Zn  Zn4       1.0  0.6479358094352675  0.25000043014475176  0.8979353188149942  1.0000
  Zn  Zn5       1.0  0.0846384558845372  0.10579625887130112  0.25314572904400734  1.0000
  Zn  Zn6       1.0  0.4153612222097535  0.6685062471027834  0.021156056262881792  1.0000
  Zn  Zn7       1.0  0.14734802684078827  0.39420364609375724  0.47884135631141334  1.0000
  Zn  Zn8       1.0  0.35265117992910416  0.8314937806112324  0.24685570292105297  1.0000
  Zn  Zn9       1.0  0.9153599748353827  0.8942040642891982  0.746855977623291  1.0000
  Zn  Zn10      1.0  0.5846394872190147  0.33149342466948184  0.9788425494742656  1.0000
  Zn  Zn11      1.0  0.8526515488196791  0.6057963453802201  0.5211574462835814  1.0000
  Zn  Zn12      1.0  0.647347254514898  0.1685065385543325  0.7531451013414243  1.0000
  P   P1        1.0  0.41183250956756  0.4616746448272124  0.20192432901359333  1.0000
  P   P2        1.0  0.08816710175819507  0.2900908356279643  0.049841704522016465  1.0000
  P   P3        1.0  0.740249425377577  0.03832568081693206  0.45015769387563864  1.0000
  P   P4        1.0  0.7597524778704993  0.2099082442778764  0.29807635493560264  1.0000
  P   P5        1.0  0.588168755618291  0.5383258231706733  0.7980778193242841  1.0000
  P   P6        1.0  0.9118313387148473  0.7099090049999999  0.9501571664250363  1.0000
  P   P7        1.0  0.2597512751839162  0.9616735283974621  0.5498425881653334  1.0000
  P   P8        1.0  0.24024879706847457  0.7900917411874671  0.7019229576820294  1.0000
  H   H1        1.0  0.06972385509830299  0.10149966142540728  0.11790512376735758  1.0000
  H   H2        1.0  0.4302766127511148  0.5481811164788511  0.03177602225828485  1.0000
  H   H3        1.0  0.016405240477432397  0.3985004954783093  0.46822487826369763  1.0000
  H   H4        1.0  0.48359543529700477  0.951819445518552  0.38209597046858323  1.0000
  H   H5        1.0  0.9302740138354861  0.8985003440470789  0.8820949736146345  1.0000
  H   H6        1.0  0.5697257900174717  0.4518209160057294  0.968226894447362  1.0000
  H   H7        1.0  0.983596035437742  0.6015004330799769  0.5317751425679518  1.0000
  H   H8        1.0  0.5164047007304687  0.04818039309570561  0.6179043129059211  1.0000
  H   H9        1.0  0.9750517467529747  0.9389658073041787  0.17738086176768778  1.0000
  H   H10       1.0  0.5249477038399062  0.702329297153092  0.9639141212669032  1.0000
  H   H11       1.0  0.23841513630969755  0.5610336658670648  0.5360849821387674  1.0000
  H   H12       1.0  0.26158443629403644  0.7976705264263301  0.32261813182989135  1.0000
  H   H13       1.0  0.024948391136540196  0.06103402931261571  0.822618970404406  1.0000
  H   H14       1.0  0.4750524321875673  0.2976705414611658  0.03608616210759405  1.0000
  H   H15       1.0  0.7615861367672421  0.4389663215957496  0.46391478168127515  1.0000
  H   H16       1.0  0.7384157030145955  0.2023297807381964  0.6773818288480057  1.0000
  H   H17       1.0  0.9105461817979899  0.8336313185151878  0.05124997426980811  1.0000
  H   H18       1.0  0.5894533801132057  0.6407042612193835  0.9230855562006184  1.0000
  H   H19       1.0  0.2176198303006274  0.6663686177900628  0.5769142729603303  1.0000
  H   H20       1.0  0.28238076945336826  0.8592957186223205  0.44874790252383445  1.0000
  H   H21       1.0  0.08945509456010829  0.16636913749789528  0.9487494668536273  1.0000
  H   H22       1.0  0.4105473200053637  0.3592954205402136  0.07691530554856738  1.0000
  H   H23       1.0  0.7823814427763054  0.33363136967274426  0.42308549085971237  1.0000
  H   H24       1.0  0.7176193717173049  0.14070458654473586  0.5512516069516523  1.0000
  H   H25       1.0  0.9239711236951746  0.866192609504445  0.9570970839119327  1.0000
  H   H26       1.0  0.5760288152332649  0.5331265463458338  0.9422223439623496  1.0000
  H   H27       1.0  0.09090546484228672  0.6338076035507714  0.5577777814514066  1.0000
  H   H28       1.0  0.4090947716820921  0.9668738009124167  0.5429016459671702  1.0000
  H   H29       1.0  0.07602958156659409  0.13380753880795743  0.04290300393824251  1.0000
  H   H30       1.0  0.42397188258033935  0.4668736099564369  0.05777954869745366  1.0000
  H   H31       1.0  0.9090963788880585  0.3661931641579201  0.44222191535010325  1.0000
  H   H32       1.0  0.5909048002542931  0.03312619455649467  0.4570980590326457  1.0000
  H   H33       1.0  0.1983674047573345  0.22169046527099576  0.15637388801354044  1.0000
  H   H34       1.0  0.301631444857584  0.4580058628733497  0.02332249691423268  1.0000
  H   H35       1.0  0.9346836673068777  0.27830983534886383  0.47667592771144734  1.0000
  H   H36       1.0  0.565316741287674  0.04199386947541232  0.34362545620889057  1.0000
  H   H37       1.0  0.8016338631764055  0.7783090556390136  0.8436266497055201  1.0000
  H   H38       1.0  0.6983675615685954  0.5419938189024831  0.9766765012050913  1.0000
  H   H39       1.0  0.06531704079311847  0.7216912540590172  0.5233244171503274  1.0000
  H   H40       1.0  0.43468340130211647  0.9580069062393904  0.6563741817723994  1.0000
  H   H41       1.0  0.2805551380310547  0.30918778858039536  0.12293579040701993  1.0000
  H   H42       1.0  0.21944419737235424  0.34237922753104044  0.028632393281192513  1.0000
  H   H43       1.0  0.8137479626218179  0.19081326270397603  0.4713680641921769  1.0000
  H   H44       1.0  0.6862542152198329  0.1576205443701823  0.37706557359108916  1.0000
  H   H45       1.0  0.7194455620875075  0.6908118931792018  0.8770650713421659  1.0000
  H   H46       1.0  0.7805553750069548  0.6576202953926683  0.9713667320104095  1.0000
  H   H47       1.0  0.18625274361614433  0.8091878287013685  0.5286327318720012  1.0000
  H   H48       1.0  0.3137464933230873  0.8423800724924959  0.6229341915624788  1.0000
  H   H49       1.0  0.4179280779784377  0.47920285382547695  0.3439791193367725  1.0000
  H   H50       1.0  0.08207138353773757  0.4260502570263398  0.0612748910922178  1.0000
  H   H51       1.0  0.8647752457404677  0.020796588551568983  0.4387252352245667  1.0000
  H   H52       1.0  0.6352262390591008  0.0739503395413904  0.15602174043163325  1.0000
  H   H53       1.0  0.5820720604443536  0.5207983984294628  0.6560220007575381  1.0000
  H   H54       1.0  0.9179281865366132  0.5739497404400421  0.9387252651100011  1.0000
  H   H55       1.0  0.13522545765925997  0.9792035617582969  0.5612753038280119  1.0000
  H   H56       1.0  0.3647756046712444  0.926050428167301  0.8439779563698837  1.0000
  H   H57       1.0  0.33173003258291794  0.3926325239419056  0.3754887376438277  1.0000
  H   H58       1.0  0.16827008730324877  0.5437590147823456  0.060902186933915844  1.0000
  H   H59       1.0  0.9828555775558667  0.10736739550890896  0.4390972682983473  1.0000
  H   H60       1.0  0.5171439995724467  0.9562411967789687  0.12451090317155426  1.0000
  H   H61       1.0  0.6682701091210246  0.6073691968633027  0.6245120597538758  1.0000
  H   H62       1.0  0.8317300515624594  0.456241764927391  0.939098353452188  1.0000
  H   H63       1.0  0.017144559890724095  0.8926329136530811  0.5609031435819533  1.0000
  H   H64       1.0  0.48285727492361014  0.043759261231578236  0.8754889891542917  1.0000
  H   H65       1.0  0.4679034365444749  0.5916521373129058  0.1787164663931833  1.0000
  H   H66       1.0  0.032096879450357094  0.210811944639424  0.12374835993534108  1.0000
  H   H67       1.0  0.5870636195820751  0.9083482906631205  0.37625093141915034  1.0000
  H   H68       1.0  0.9129380206401693  0.28918807207352887  0.32128590881031754  1.0000
  H   H69       1.0  0.5320978337845758  0.40834879723778517  0.8212849080456833  1.0000
  H   H70       1.0  0.9679021166894156  0.7891868040308052  0.8762521859820183  1.0000
  H   H71       1.0  0.41293594765403435  0.09165076570778298  0.6237489677714693  1.0000
  H   H72       1.0  0.08706325013180559  0.7108123899319525  0.6787148859203427  1.0000
  H   H73       1.0  0.4388768577964655  0.6889059339356507  0.1876081668243117  1.0000
  H   H74       1.0  0.061122695204538495  0.24873108548142409  0.2500289969265311  1.0000
  H   H75       1.0  0.49870258535204215  0.8110934700061562  0.2499702067844679  1.0000
  H   H76       1.0  0.0013001479063916993  0.251270372334048  0.31239275106092634  1.0000
  H   H77       1.0  0.5611244129755092  0.31109452806983023  0.8123926279063483  1.0000
  H   H78       1.0  0.9388768744268814  0.7512693845301612  0.7499717389839019  1.0000
  H   H79       1.0  0.5012992485348275  0.1889058920517285  0.7500304581068634  1.0000
  H   H80       1.0  0.9987011261467413  0.7487305582217019  0.6876077209731263  1.0000
  H   H81       1.0  0.28246365109441024  0.5900712250775512  0.2621020512752636  1.0000
  H   H82       1.0  0.21753569430602232  0.47963802806968664  0.3076075389295738  1.0000
  H   H83       1.0  0.6720309219813102  0.9099271179391692  0.19239163167900844  1.0000
  H   H84       1.0  0.8279716920261462  0.02036265396948511  0.2378982543471081  1.0000
  H   H85       1.0  0.7175359156987753  0.40992830383855516  0.7378984276235628  1.0000
  H   H86       1.0  0.7824644398594174  0.520361812542042  0.6923931956473339  1.0000
  H   H87       1.0  0.32796864755976424  0.09007146388906045  0.8076072366009939  1.0000
  H   H88       1.0  0.17202901651677394  0.9796379628931859  0.7621015108064598  1.0000
  H   H89       1.0  0.31243284393266885  0.4925461929686747  0.25498427365526777  1.0000
  H   H90       1.0  0.18756840041370987  0.442551091980988  0.1801139138459575  1.0000
  H   H91       1.0  0.7624383828549312  0.007453446416107595  0.319886043374524  1.0000
  H   H92       1.0  0.7375635852319248  0.05744819762783474  0.24501623298792913  1.0000
  H   H93       1.0  0.6875684268393056  0.5074542690368059  0.7450165210753922  1.0000
  H   H94       1.0  0.8124311616791998  0.55744749783711  0.8198867592436728  1.0000
  H   H95       1.0  0.23756175219634906  0.9925454491052078  0.6801135317859632  1.0000
  H   H96       1.0  0.262437120029844  0.9425519506845674  0.7549838548622391  1.0000
  H   H97       1.0  0.518582082579357  0.4202657012517506  0.22839864364122772  1.0000
  H   H98       1.0  0.9814174595660743  0.20981657622567687  0.9016837764382045  1.0000
  H   H99       1.0  0.8081331322322354  0.07973358911165448  0.5983156094699922  1.0000
  H   H100      1.0  0.6918673975309273  0.29018218958761094  0.27160127151524444  1.0000
  H   H101      1.0  0.48141918774969367  0.5797352332989333  0.771602730797639  1.0000
  H   H102      1.0  0.018580406972404304  0.7901820156061278  0.09831548422397418  1.0000
  H   H103      1.0  0.1918670037952381  0.9202662495026035  0.40168467390451223  1.0000
  H   H104      1.0  0.30813160605701023  0.7098165510927501  0.7283974695924798  1.0000
  H   H105      1.0  0.6458192416613712  0.477493498768517  0.32957118358915943  1.0000
  H   H106      1.0  0.8541809549757245  0.183753174595516  0.8316750713640317  1.0000
  H   H107      1.0  0.8520789109250869  0.02250599774804822  0.6683240587040871  1.0000
  H   H108      1.0  0.6479221046770361  0.3162460024634298  0.17042814515632898  1.0000
  H   H109      1.0  0.35418146457658384  0.5225075926368276  0.6704296124750186  1.0000
  H   H110      1.0  0.1458174775158838  0.8162452583841641  0.16832431647043225  1.0000
  H   H111      1.0  0.14792122465946989  0.9774943134114128  0.331676804378624  1.0000
  H   H112      1.0  0.35207803135043747  0.6837538361508281  0.8295721382181682  1.0000
  H   H113      1.0  0.6414805895891645  0.6673598870530167  0.4391224522373207  1.0000
  H   H114      1.0  0.8585181238437655  0.297637522720663  0.025881173713870005  1.0000
  H   H115      1.0  0.7717575866746386  0.8326380186471598  0.47411689992505057  1.0000
  H   H116      1.0  0.7282402083639709  0.2023580295574162  0.06087935649438238  1.0000
  H   H117      1.0  0.35851897489906287  0.33264011640577007  0.560879057572123  1.0000
  H   H118      1.0  0.14147917532246615  0.7023607574155265  0.9741178312702348  1.0000
  H   H119      1.0  0.22824368737849446  0.16736291190859728  0.5258835721090023  1.0000
  H   H120      1.0  0.2717599328067024  0.7976422756096468  0.9391201529811042  1.0000
  H   H121      1.0  0.514072632120225  0.6112162237604365  0.3383722579823569  1.0000
  H   H122      1.0  0.9859271469236786  0.3242973312234269  0.09714467267549035  1.0000
  H   H123      1.0  0.7271523661875604  0.8887832549296419  0.40285452831756885  1.0000
  H   H124      1.0  0.7728466393817329  0.17570072013109697  0.1616306683447278  1.0000
  H   H125      1.0  0.48592750160229065  0.38878408939649506  0.6616290563027578  1.0000
  H   H126      1.0  0.014071291244398796  0.675702983947204  0.9028552291821726  1.0000
  H   H127      1.0  0.2728483404933257  0.11121736393049994  0.5971456880384025  1.0000
  H   H128      1.0  0.22715292971641793  0.8242983342423429  0.8383687796434814  1.0000
  C   C1        1.0  0.9954749157112344  0.9879151356352621  0.02717462762507938  1.0000
  C   C2        1.0  0.5045230683145049  0.5316979763725699  0.9924384351721472  1.0000
  C   C3        1.0  0.0392599403164624  0.5120848810435704  0.5075617194958398  1.0000
  C   C4        1.0  0.4607405282913604  0.9683024116367278  0.47282524935911857  1.0000
  C   C5        1.0  0.004521823178336598  0.012085185544009398  0.9728247642099463  1.0000
  C   C6        1.0  0.49547819687134625  0.46830249162530896  0.0075637131657303  1.0000
  C   C7        1.0  0.9607413318746295  0.48791605150965  0.4924392037406164  1.0000
  C   C8        1.0  0.5392601798086432  0.031698677771153316  0.5271750955026491  1.0000
  C   C9        1.0  0.0319403904713695  0.04131146520688131  0.0990167368804649  1.0000
  C   C10       1.0  0.468058263883904  0.567075111980543  0.0093700665976754  1.0000
  C   C11       1.0  0.0577056997831988  0.4586881999136023  0.49063035270042127  1.0000
  C   C12       1.0  0.44229452372047  0.9329246910227198  0.4009829134622152  1.0000
  C   C13       1.0  0.9680552146498937  0.9586891756741097  0.9009828518124152  1.0000
  C   C14       1.0  0.5319458410014305  0.4329278555908829  0.9906336171422085  1.0000
  C   C15       1.0  0.942295007783528  0.5413114738561263  0.5093687042391295  1.0000
  C   C16       1.0  0.5577061862415745  0.0670763963876908  0.5990169801971491  1.0000
  C   C17       1.0  0.9802845073631373  0.9498512411031966  0.133602348568992  1.0000
  C   C18       1.0  0.5197137080820154  0.6533175527206225  0.9695655634205808  1.0000
  C   C19       1.0  0.18375238775703195  0.5501487859303325  0.5304334109276853  1.0000
  C   C20       1.0  0.31624786060361737  0.846682812949176  0.3663960015204921  1.0000
  C   C21       1.0  0.019713371857051198  0.05014969747490031  0.8663962010149721  1.0000
  C   C22       1.0  0.4802875571038355  0.3466829152772632  0.03043658491730371  1.0000
  C   C23       1.0  0.8162471883463596  0.4498507329984419  0.4695648119591027  1.0000
  C   C24       1.0  0.68375284935842  0.15331827446123458  0.633603892138872  1.0000
  C   C25       1.0  0.9439564833608144  0.8927862719820682  0.06416758231093665  1.0000
  C   C26       1.0  0.5560420512474593  0.620210635651155  0.9488289155577548  1.0000
  C   C27       1.0  0.17138240058000057  0.6072139783099999  0.5511700860852642  1.0000
  C   C28       1.0  0.3286175267554938  0.879789508757568  0.435831191686205  1.0000
  C   C29       1.0  0.0560419580884286  0.10721451173883172  0.9358319968501264  1.0000
  C   C30       1.0  0.44395921438131564  0.3797893598015206  0.05117265307191582  1.0000
  C   C31       1.0  0.8286205778948454  0.3927874127899146  0.4488301220724082  1.0000
  C   C32       1.0  0.6713820461570846  0.12021142980429281  0.564169221527621  1.0000
  C   C33       1.0  0.9518362076623602  0.9117507797778117  0.01093056589661501  1.0000
  C   C34       1.0  0.5481622098390985  0.5590937008467378  0.9599140117684258  1.0000
  C   C35       1.0  0.09918122310295269  0.5882504887382681  0.5400863534033249  1.0000
  C   C36       1.0  0.4008188218726331  0.940906840976126  0.4890681324940117  1.0000
  C   C37       1.0  0.048162233786882794  0.088250003943088  0.9890690132644411  1.0000
  C   C38       1.0  0.45183962413812395  0.4409075493945024  0.040088520753336354  1.0000
  C   C39       1.0  0.9008200523692975  0.4117509123652212  0.4599142471365313  1.0000
  C   C40       1.0  0.5991801869488568  0.05909425444038872  0.5109317023451254  1.0000
  C   C41       1.0  0.20750513114574426  0.25013950534558665  0.28650243715626544  1.0000
  C   C42       1.0  0.2924912945074638  0.57899568264731  0.04263183908621921  1.0000
  C   C43       1.0  0.03636356526028809  0.24985611638387442  0.4573641422923061  1.0000
  C   C44       1.0  0.46363606666186996  0.921002810924989  0.21349257663306523  1.0000
  C   C45       1.0  0.7924932906165479  0.7498584670736933  0.7134990781844339  1.0000
  C   C46       1.0  0.7075065846223721  0.42100336774742425  0.9573648428673208  1.0000
  C   C47       1.0  0.963635444799628  0.7501416732136689  0.542632085791773  1.0000
  C   C48       1.0  0.536362391455391  0.07899606663535498  0.7865010740758934  1.0000
  C   C49       1.0  0.25983165894977833  0.30199659866107  0.2677961893931737  1.0000
  C   C50       1.0  0.24016414486118254  0.5079619057424337  0.04216197804582573  1.0000
  C   C51       1.0  0.9657999584970791  0.19800309013122291  0.4578364189238468  1.0000
  C   C52       1.0  0.5342011029883905  0.9920374445521463  0.232202457395381  1.0000
  C   C53       1.0  0.7401678984428556  0.6980010520590268  0.7322046778872605  1.0000
  C   C54       1.0  0.7598337324066191  0.49203714664977116  0.9578351551101179  1.0000
  C   C55       1.0  0.0342013169751709  0.8019983109722656  0.542164181616009  1.0000
  C   C56       1.0  0.46579904288255847  0.007963799712925332  0.7677968578892945  1.0000
  C   C57       1.0  0.24606087615437383  0.2785624264789703  0.19688903247141806  1.0000
  C   C58       1.0  0.25393754089498083  0.4508263731964988  0.03250006623132146  1.0000
  C   C59       1.0  0.9183263113907145  0.22143829642797644  0.46749894164490513  1.0000
  C   C60       1.0  0.5816745274644359  0.049173411407842524  0.30311075941107646  1.0000
  C   C61       1.0  0.7539409582657655  0.72143835121706  0.8031129203421374  1.0000
  C   C62       1.0  0.7460614645550051  0.5491723654863918  0.9674982236739923  1.0000
  C   C63       1.0  0.08167325965982292  0.7785626441313555  0.5325019227713241  1.0000
  C   C64       1.0  0.41832505289630717  0.9508275191641433  0.6968878489931144  1.0000
  C   C65       1.0  0.2923851060291724  0.3275748986045954  0.1785467558548532  1.0000
  C   C66       1.0  0.20761384124298127  0.38616182535428584  0.0351888708820525  1.0000
  C   C67       1.0  0.8509746656103798  0.17242685414457512  0.46481160580731984  1.0000
  C   C68       1.0  0.6490284770449788  0.11383754679042093  0.3214525885932956  1.0000
  C   C69       1.0  0.7076161581804854  0.672424626300341  0.8214546842690141  1.0000
  C   C70       1.0  0.7923846015350263  0.6138375407309978  0.9648089691543761  1.0000
  C   C71       1.0  0.14902774274433028  0.8275751723476149  0.5351899572911024  1.0000
  C   C72       1.0  0.35097166226365306  0.8861627603741127  0.6785473720846014  1.0000
  C   C73       1.0  0.3543422708119762  0.4005224508024339  0.2310091175350735  1.0000
  C   C74       1.0  0.14565684575642723  0.3766650294635596  0.04617818675834675  1.0000
  C   C75       1.0  0.830487214756097  0.099478595497331  0.4538215956717195  1.0000
  C   C76       1.0  0.6695146154341601  0.12333349063625587  0.2689915064118369  1.0000
  C   C77       1.0  0.6456595640510868  0.5994778543483933  0.7689922555702751  1.0000
  C   C78       1.0  0.8543410323972224  0.6233330778382324  0.9538177869811764  1.0000
  C   C79       1.0  0.16951348447662437  0.900522031352679  0.5461804254938798  1.0000
  C   C80       1.0  0.33048666048101444  0.8766674379220306  0.7310085144198056  1.0000
  C   C81       1.0  0.3691651425019202  0.4231168965355963  0.30243315481991573  1.0000
  C   C82       1.0  0.1308341966447344  0.4332676520874729  0.0539496492726741  1.0000
  C   C83       1.0  0.8793170805139637  0.07688468836717269  0.4460499155370314  1.0000
  C   C84       1.0  0.620683970545464  0.06673236645747939  0.1975671711934766  1.0000
  C   C85       1.0  0.6308361259650893  0.5768840400125583  0.6975686708213616  1.0000
  C   C86       1.0  0.8691642494144387  0.5667321825480868  0.9460478680671544  1.0000
  C   C87       1.0  0.12068361916168158  0.9231154659376345  0.5539515259203683  1.0000
  C   C88       1.0  0.3793173090937927  0.9332685581058727  0.8024319472333517  1.0000
  C   C89       1.0  0.321737792777121  0.3747871167892498  0.32050907640886084  1.0000
  C   C90       1.0  0.17826101856198306  0.4987690985102091  0.053047208127210865  1.0000
  C   C91       1.0  0.9457221984055834  0.1252127902769756  0.44695229941527964  1.0000
  C   C92       1.0  0.5542782367592662  0.001229623738836785  0.1794906041889844  1.0000
  C   C93       1.0  0.6782629068985243  0.6252130375155573  0.6794923650485317  1.0000
  C   C94       1.0  0.8217379897262304  0.5012305812681603  0.9469513387897025  1.0000
  C   C95       1.0  0.054278499850944684  0.8747868934800922  0.5530490135363169  1.0000
  C   C96       1.0  0.4457219067163719  0.9987702068855455  0.8205078743758848  1.0000
  C   C97       1.0  0.3918165875349473  0.5348897702710501  0.2160528773324657  1.0000
  C   C98       1.0  0.10818445403716477  0.32423607985573716  0.1430727894218293  1.0000
  C   C99       1.0  0.6811641380410335  0.9651098771252363  0.3569268503659657  1.0000
  C   C100      1.0  0.8188373494719626  0.17576313495680998  0.28394618387815745  1.0000
  C   C101      1.0  0.6081841172838978  0.46511085058656226  0.7839477902259092  1.0000
  C   C102      1.0  0.8918145481316557  0.6757621902768847  0.8569258231800915  1.0000
  C   C103      1.0  0.31883826037985585  0.03488885553277746  0.6430738131918474  1.0000
  C   C104      1.0  0.18116279586571687  0.8242366936701088  0.7160518434843013  1.0000
  C   C105      1.0  0.42742551432782955  0.5910894799243707  0.19759696026662968  1.0000
  C   C106      1.0  0.0725749548523993  0.2701688764613125  0.16366388351622166  1.0000
  C   C107      1.0  0.6065073375560671  0.9089105763029438  0.3363352410667488  1.0000
  C   C108      1.0  0.8934952804108531  0.2298302512031539  0.30240512783893075  1.0000
  C   C109      1.0  0.5725751900480917  0.40891161347844457  0.8024042869999591  1.0000
  C   C110      1.0  0.9274234715198232  0.7298281468726202  0.8363355700032431  1.0000
  C   C111      1.0  0.39349336114337763  0.09108863490891388  0.6636654921766337  1.0000
  C   C112      1.0  0.10650542627002578  0.7701703676569807  0.6975950885170406  1.0000
  C   C113      1.0  0.4117516185633931  0.646216137822563  0.20292669631495386  1.0000
  C   C114      1.0  0.08824792818818848  0.291173523582529  0.2344644542426266  1.0000
  C   C115      1.0  0.5567109799316937  0.8537835708051772  0.2655348550633079  1.0000
  C   C116      1.0  0.9432919992110127  0.2088270496316438  0.29707488570456764  1.0000
  C   C117      1.0  0.5882502177187873  0.35378463787600367  0.7970748052961909  1.0000
  C   C118      1.0  0.9117487966005556  0.7088239803027111  0.765535520164818  1.0000
  C   C119      1.0  0.44329085111694144  0.14621485015722152  0.7344655528164311  1.0000
  C   C120      1.0  0.05670927768035479  0.7911748220195847  0.7029258433410845  1.0000
  C   C121      1.0  0.3586276662905803  0.6453394819844148  0.22545113184551716  1.0000
  C   C122      1.0  0.1413732248945649  0.36682411638303597  0.28671247282565565  1.0000
  C   C123      1.0  0.5801118705985572  0.854659554341154  0.21328729082362216  1.0000
  C   C124      1.0  0.9198903314828397  0.13317744082893035  0.27455025150874224  1.0000
  C   C125      1.0  0.6413741723869107  0.3546627073548264  0.774551206485441  1.0000
  C   C126      1.0  0.8586252179737881  0.6331771378856105  0.7132872348412037  1.0000
  C   C127      1.0  0.419889954330685  0.14533745697550418  0.7867131827411172  1.0000
  C   C128      1.0  0.08011094585145169  0.8668239582770952  0.7254498978287033  1.0000
  C   C129      1.0  0.3232132822087549  0.589701405785263  0.24419204623863774  1.0000
  C   C130      1.0  0.17678703531936427  0.42097817140293614  0.2664881328621505  1.0000
  C   C131      1.0  0.6544910983424896  0.9102972644516638  0.23351206018298837  1.0000
  C   C132      1.0  0.8455116731385812  0.07902234025445377  0.2558085222023505  1.0000
  C   C133      1.0  0.6767874174668832  0.41029874851954423  0.755809395218755  1.0000
  C   C134      1.0  0.8232113981484375  0.5790212046696935  0.7335119631863236  1.0000
  C   C135      1.0  0.3455101587715816  0.08969990771458206  0.7664887374118763  1.0000
  C   C136      1.0  0.1544890372663872  0.9209782746107463  0.7441907917488066  1.0000
  C   C137      1.0  0.3399820537004032  0.5353104807185217  0.23993731303934138  1.0000
  C   C138      1.0  0.1600191945199043  0.3999553290899272  0.19532857568298573  1.0000
  C   C139      1.0  0.704627169456046  0.9646880410310387  0.30467097468333293  1.0000
  C   C140      1.0  0.7953741104325472  0.10004406827639653  0.260061129378748  1.0000
  C   C141      1.0  0.6600186445561177  0.46468920303854594  0.7600639999122478  1.0000
  C   C142      1.0  0.839980376973557  0.6000451389241945  0.8046717090250368  1.0000
  C   C143      1.0  0.2953735207286953  0.03530834689438923  0.6953289875252439  1.0000
  C   C144      1.0  0.20462660272030317  0.8999555995009274  0.7399365739535853  1.0000
  C   C145      1.0  0.33975352292968347  0.7029722289771101  0.23079720100835743  1.0000
  C   C146      1.0  0.16024305137993616  0.39104181089866336  0.3632175875989532  1.0000
  C   C147      1.0  0.5278225803903708  0.7970267003447661  0.13678161110860293  1.0000
  C   C148      1.0  0.9721794255755968  0.10896535706617523  0.26920443525919074  1.0000
  C   C149      1.0  0.6602443386462866  0.2970296726686073  0.7692065688136936  1.0000
  C   C150      1.0  0.8397548213682808  0.6089600787622443  0.6367834750086487  1.0000
  C   C151      1.0  0.47217754996063377  0.20297125607854125  0.8632181582426954  1.0000
  C   C152      1.0  0.027823575957704294  0.8910412020689903  0.7307953816526621  1.0000
  C   C153      1.0  0.5071057395299475  0.5113133654607863  0.27702368722665227  1.0000
  C   C154      1.0  0.9928947633483957  0.269917897690135  0.0042084209480108175  1.0000
  C   C155      1.0  0.7657101198032874  0.9886871834914641  0.49579140676852507  1.0000
  C   C156      1.0  0.7342904440119183  0.23008078874760668  0.22297705638063547  1.0000
  C   C157      1.0  0.49289438576820277  0.4886860125930709  0.7229787236540873  1.0000
  C   C158      1.0  0.0071036766817300975  0.7300824154830323  0.9957910297072418  1.0000
  C   C159      1.0  0.23429228899433946  0.01131437045551553  0.5042095766216832  1.0000
  C   C160      1.0  0.2657091269482663  0.7699182636283622  0.7770219404051703  1.0000
  C   C161      1.0  0.5451898379026758  0.47440860832767134  0.2746772307016839  1.0000
  C   C162      1.0  0.9548104716720615  0.22948711422957047  0.9292188992937866  1.0000
  C   C163      1.0  0.800267631126779  0.02559051997006613  0.5707796801664459  1.0000
  C   C164      1.0  0.6997309983246182  0.2705111882606842  0.2253225283441935  1.0000
  C   C165      1.0  0.4548102920957503  0.5255917088241943  0.7253249859882516  1.0000
  C   C166      1.0  0.04518853147295229  0.7705120989959938  0.07078042152214437  1.0000
  C   C167      1.0  0.19973250020041888  0.9744083795461833  0.42922079739885527  1.0000
  C   C168      1.0  0.3002685740546908  0.7294883346630243  0.7746765969474154  1.0000
  C   C169      1.0  0.6161064184582797  0.5059123265757037  0.33087859271272174  1.0000
  C   C170      1.0  0.8838939351280003  0.21477157661754362  0.8898061502903688  1.0000
  C   C171      1.0  0.8249661526079209  0.994087404182146  0.6101920919353746  1.0000
  C   C172      1.0  0.6750334366138873  0.285225119511054  0.16912224972544015  1.0000
  C   C173      1.0  0.38389484628464726  0.494088613967385  0.6691241353333695  1.0000
  C   C174      1.0  0.11610336776231377  0.7852266995237118  0.11019195228891483  1.0000
  C   C175      1.0  0.1750345507917999  0.0059127461277271075  0.38980844711720414  1.0000
  C   C176      1.0  0.3249661292031049  0.714773466312117  0.8308775209593762  1.0000
  C   C177      1.0  0.6507910592039179  0.5754568401606619  0.3904548570906883  1.0000
  C   C178      1.0  0.8492084140328158  0.23966283982122133  0.9246665610245871  1.0000
  C   C179      1.0  0.8149987718199154  0.9245436281708237  0.5753325050253225  1.0000
  C   C180      1.0  0.685001133217426  0.26033374813359694  0.10954516285683259  1.0000
  C   C181      1.0  0.3492085071463435  0.4245431613006545  0.609546201516352  1.0000
  C   C182      1.0  0.15078944594334584  0.7603348149100385  0.07533334503081328  1.0000
  C   C183      1.0  0.1850036416779943  0.0754588648741645  0.42466828417408214  1.0000
  C   C184      1.0  0.3149990028100475  0.7396660904806609  0.8904551205176645  1.0000
  C   C185      1.0  0.6138098856541844  0.6132807567139408  0.3925285332539231  1.0000
  C   C186      1.0  0.8861892216624766  0.2787164223451129  0.9994724413933299  1.0000
  C   C187      1.0  0.7792458084790608  0.8867170129593873  0.5005259475177084  1.0000
  C   C188      1.0  0.7207538810052795  0.22127973527823025  0.10747249072681338  1.0000
  C   C189      1.0  0.3861896759958014  0.38671830564936727  0.6074727195439209  1.0000
  C   C190      1.0  0.1138080775037551  0.7212818577910837  0.0005265635907746272  1.0000
  C   C191      1.0  0.22075660031857314  0.11328454098759265  0.49947503587250003  1.0000
  C   C192      1.0  0.27924568809287104  0.7787193190952095  0.8925269572614029  1.0000
  C   C193      1.0  0.5426098343587425  0.581552485642554  0.3362154401138256  1.0000
  C   C194      1.0  0.9573909138599318  0.2936048796572804  0.03894540498620802  1.0000
  C   C195      1.0  0.7546606419315863  0.9184465725067597  0.461054349538898  1.0000
  C   C196      1.0  0.7453385338173673  0.20639326654389115  0.16378538221614747  1.0000
  C   C197      1.0  0.45739029235853224  0.4184473629590428  0.6637870992727174  1.0000
  C   C198      1.0  0.042608092123323595  0.7063952746637625  0.9610541728413297  1.0000
  C   C199      1.0  0.24534176358488932  0.08155451288994445  0.5389469565479176  1.0000
  C   C200      1.0  0.25466047118969476  0.7936059446842022  0.8362134873973802  1.0000
  C   C201      1.0  0.7265943561102189  0.6085994758595206  0.4513839164809923  1.0000
  C   C202      1.0  0.7734068800882029  0.22478971352253999  0.8820041888013536  1.0000
  C   C203      1.0  0.8427856446615107  0.8914011887691515  0.6179925252555805  1.0000
  C   C204      1.0  0.6572147827756536  0.27520885203075085  0.04861657676656949  1.0000
  C   C205      1.0  0.27340634542746756  0.391400676447816  0.5486170737739968  1.0000
  C   C206      1.0  0.22658985019631217  0.7752058961869468  0.11799256436843557  1.0000
  C   C207      1.0  0.15721505962405755  0.10859801645030125  0.3820068543805776  1.0000
  C   C208      1.0  0.34278819862777243  0.7247953683479975  0.951385756033133  1.0000
  N   N1        1.0  0.024597361906245393  0.022756508345303  0.1502937451158175  1.0000
  N   N2        1.0  0.47540141980211803  0.6256951779029335  0.9981576458341197  1.0000
  N   N3        1.0  0.1275374196034349  0.47724327678860584  0.5018406387064474  1.0000
  N   N4        1.0  0.3724627056740104  0.8743046607284696  0.34970499999519683  1.0000
  N   N5        1.0  0.9753988077490304  0.9772435031358241  0.8497058422435373  1.0000
  N   N6        1.0  0.5246021138965345  0.3743055937844557  0.001844817002073096  1.0000
  N   N7        1.0  0.8724632982496983  0.5227573300867333  0.4981568704350749  1.0000
  N   N8        1.0  0.6275368709626504  0.1256962738384502  0.650294510813808  1.0000
  O   O1        1.0  0.16064800549354166  0.18101094864636738  0.23814533624053522  1.0000
  O   O2        1.0  0.3393482351710517  0.5774961465505796  0.02035898756564334  1.0000
  O   O3        1.0  0.057132676265545995  0.3189873791610296  0.47963482575045907  1.0000
  O   O4        1.0  0.4428637544173313  0.9225043604359089  0.2618525618263661  1.0000
  O   O5        1.0  0.8393492829433669  0.8189868709294216  0.7618557962498046  1.0000
  O   O6        1.0  0.6606490906873644  0.42250540944257853  0.9796368561373967  1.0000
  O   O7        1.0  0.9428663366325976  0.6810113515319924  0.5203616593452267  1.0000
  O   O8        1.0  0.5571324241052266  0.07749611360308238  0.738145349229157  1.0000
  O   O9        1.0  0.21262106257443486  0.27791772768641476  0.34746472097953784  1.0000
  O   O10       1.0  0.28737670686955147  0.634841295533832  0.06529788763234731  1.0000
  O   O11       1.0  0.06954658000684329  0.22208066323415918  0.43470494068989757  1.0000
  O   O12       1.0  0.43045281600495844  0.8651579134768923  0.15253330110279256  1.0000
  O   O13       1.0  0.7873756542328678  0.7220783685505482  0.6525357703153248  1.0000
  O   O14       1.0  0.7126211522207625  0.3651573042878482  0.9347031778394668  1.0000
  O   O15       1.0  0.9304501666834636  0.7779172892266855  0.5652901989968623  1.0000
  O   O16       1.0  0.5695461988455717  0.13484270340201462  0.8474646004209134  1.0000
  O   O17       1.0  0.375131402032494  0.7544142708511214  0.21269632110225697  1.0000
  O   O18       1.0  0.12486403980218337  0.33756452120327657  0.3792814450341453  1.0000
  O   O19       1.0  0.45828121866635735  0.7455858213970855  0.12071574036819034  1.0000
  O   O20       1.0  0.04171884407395509  0.1624376719987595  0.28730225330406267  1.0000
  O   O21       1.0  0.6248670281541562  0.24558463667123212  0.7873040976428242  1.0000
  O   O22       1.0  0.8751292938776912  0.6624329867093763  0.6207157045183961  1.0000
  O   O23       1.0  0.5417194940435763  0.25441431892544847  0.8792825426723498  1.0000
  O   O24       1.0  0.9582818715645586  0.8375652976026016  0.7126981543785079  1.0000
  O   O25       1.0  0.2955951153560931  0.7048445155681194  0.2542434995588394  1.0000
  O   O26       1.0  0.20440391985674466  0.4586488943060802  0.4092499875871242  1.0000
  O   O27       1.0  0.5493969916773337  0.7951526849696294  0.09074566071328866  1.0000
  O   O28       1.0  0.9506031044333978  0.04134994610851786  0.24575550604704677  1.0000
  O   O29       1.0  0.7044095559252952  0.29515782060597934  0.7457597316451159  1.0000
  O   O30       1.0  0.795591673378304  0.5413465665548572  0.5907472851371267  1.0000
  O   O31       1.0  0.45060484016680385  0.2048429027190082  0.9092517201195919  1.0000
  O   O32       1.0  0.04939761944877569  0.9586501822292138  0.7542400697790442  1.0000
  O   O33       1.0  0.7572617652528137  0.571004582695295  0.44319843627973665  1.0000
  O   O34       1.0  0.7427415491234297  0.18594375249117684  0.8137444296399254  1.0000
  O   O35       1.0  0.8721997802217556  0.9289990010225394  0.6862555065320635  1.0000
  O   O36       1.0  0.6278036904648587  0.31405845962044054  0.056801261597072994  1.0000
  O   O37       1.0  0.24273780854561264  0.42899541077615305  0.5568008175176686  1.0000
  O   O38       1.0  0.25725801678391497  0.8140567215153425  0.1862572086753218  1.0000
  O   O39       1.0  0.12779978710469914  0.07100194353171926  0.3137462602889798  1.0000
  O   O40       1.0  0.37220269978199366  0.6859466818466444  0.9432005434498764  1.0000
  O   O41       1.0  0.7545265160124046  0.6695540081225317  0.5055406958656405  1.0000
  O   O42       1.0  0.7454738067819446  0.25101291620251226  0.9150292396657634  1.0000
  O   O43       1.0  0.8359825510247347  0.8304446506373252  0.5849692486641302  1.0000
  O   O44       1.0  0.6640170828669697  0.24898738427394565  0.9944629174370764  1.0000
  O   O45       1.0  0.24547361442895269  0.33044583648412373  0.4944609411160813  1.0000
  O   O46       1.0  0.2545223449580689  0.7489823937961618  0.08496996504039335  1.0000
  O   O47       1.0  0.16401929607712154  0.16955847380499017  0.4150319930712031  1.0000
  O   O48       1.0  0.33598702476625414  0.7510146362096038  0.005539155683983689  1.0000
