data_image0
_chemical_formula_structural       Cu4H36C36Br4N20
_chemical_formula_sum              "Cu4 H36 C36 Br4 N20"
_cell_length_a       10.4589600234803
_cell_length_b       10.455683460379209
_cell_length_c       12.032397089330198
_cell_angle_alpha    106.93590318313531
_cell_angle_beta     106.4772759321868
_cell_angle_gamma    109.77382787211498

_space_group_name_H-M_alt    "P 1"
_space_group_IT_number       1

loop_
  _space_group_symop_operation_xyz
  'x, y, z'

loop_
  _atom_site_type_symbol
  _atom_site_label
  _atom_site_symmetry_multiplicity
  _atom_site_fract_x
  _atom_site_fract_y
  _atom_site_fract_z
  _atom_site_occupancy
  Cu  Cu1       1.0  0.38449193187429387  0.19128207336728306  0.5894265998662932  1.0000
  Cu  Cu2       1.0  0.6019191150539314  0.2950766404404845  0.9105973587971974  1.0000
  Cu  Cu3       1.0  0.6155092721436617  0.8087178651505268  0.41057496915979647  1.0000
  Cu  Cu4       1.0  0.3980820308701922  0.7049210341140011  0.08940279596088627  1.0000
  H   H1        1.0  0.35814794934000094  0.1305221597515498  0.35990418629420873  1.0000
  H   H2        1.0  0.7705765838698823  0.498284163107712  0.14015780879933706  1.0000
  H   H3        1.0  0.6418527812800647  0.8694789094194917  0.6400967199418163  1.0000
  H   H4        1.0  0.22942215734830268  0.5017169210709013  0.8598417833188846  1.0000
  H   H5        1.0  0.2803870257853589  0.26176855347232214  0.409989584573978  1.0000
  H   H6        1.0  0.8517369528995927  0.3704157637429971  0.09008597211530393  1.0000
  H   H7        1.0  0.7196117154328262  0.7382325307062912  0.5900100075442437  1.0000
  H   H8        1.0  0.14826377772047292  0.6295853054280443  0.909914934120721  1.0000
  H   H9        1.0  0.531124399030041  0.4474572231555599  0.5903563932535648  1.0000
  H   H10       1.0  0.8570625447743935  0.44077386891074605  0.9096998236400752  1.0000
  H   H11       1.0  0.46887533892681427  0.5525438555513985  0.4096442724814083  1.0000
  H   H12       1.0  0.14293718910699477  0.5592272057319505  0.09030000897919876  1.0000
  H   H13       1.0  0.7269824146831709  0.3516017019166639  0.6383461942133479  1.0000
  H   H14       1.0  0.7133122551634655  0.5887263075348557  0.8616492312367968  1.0000
  H   H15       1.0  0.2730193045246451  0.648399353654206  0.36165411940804404  1.0000
  H   H16       1.0  0.28668696352806927  0.4112736500547811  0.1383518567871747  1.0000
  H   H17       1.0  0.619026424092482  0.19734746791232985  0.482855066359619  1.0000
  H   H18       1.0  0.7146500074761518  0.636366669316672  0.017179396951789185  1.0000
  H   H19       1.0  0.3809732557705486  0.802651346831304  0.517144185107341  1.0000
  H   H20       1.0  0.2853476911359252  0.36363216856305053  0.9828202066287448  1.0000
  H   H21       1.0  0.0022302255784864403  0.6515061208729661  0.3085880121336686  1.0000
  H   H22       1.0  0.3430039782560073  0.19336701730798464  0.1913622788710327  1.0000
  H   H23       1.0  0.9977724985189269  0.348494937354765  0.6914150413358513  1.0000
  H   H24       1.0  0.6569952241336736  0.806632924024626  0.8086354766901779  1.0000
  H   H25       1.0  0.17537213641934807  0.09423778641038182  0.706504163962805  1.0000
  H   H26       1.0  0.38814126822101963  0.9688176936443681  0.7935964048584482  1.0000
  H   H27       1.0  0.824630629470036  0.9057655195236406  0.29349697131196006  1.0000
  H   H28       1.0  0.6118552756727523  0.03117437407407659  0.2064012147640852  1.0000
  H   H29       1.0  0.199168331877992  0.9039289215630646  0.3631255704137999  1.0000
  H   H30       1.0  0.5409451479360996  0.3358772001599916  0.13696429999892956  1.0000
  H   H31       1.0  0.80083485339091  0.09607099381865679  0.6368756464987086  1.0000
  H   H32       1.0  0.459055935818732  0.6641182063669148  0.8630336073754492  1.0000
  H   H33       1.0  0.979574909169088  0.84933598538705  0.6675925296908148  1.0000
  H   H34       1.0  0.1821949440560147  0.8117702534573397  0.8324265155818937  1.0000
  H   H35       1.0  0.020424882806132375  0.15066735321897076  0.332408717196465  1.0000
  H   H36       1.0  0.817800727437671  0.18822635578791136  0.1675745251912844  1.0000
  C   C1        1.0  0.37181773439179727  0.23196200041211779  0.43231714380781483  1.0000
  C   C2        1.0  0.7996068052170244  0.43953748486189426  0.06775024008762642  1.0000
  C   C3        1.0  0.6281849774792219  0.7680390456228421  0.5676834103146361  1.0000
  C   C4        1.0  0.2003914126603731  0.5604624741351427  0.932248941203902  1.0000
  C   C5        1.0  0.5114256830704207  0.33478394475469025  0.5320722128504869  1.0000
  C   C6        1.0  0.8026781622355018  0.4793812931694106  0.9679682898126246  1.0000
  C   C7        1.0  0.48857404673550753  0.6652171258237514  0.46792678665309495  1.0000
  C   C8        1.0  0.19732152577845596  0.5206175297027329  0.03203262788571951  1.0000
  C   C9        1.0  0.6493774060820173  0.3150419032845804  0.5393354070488031  1.0000
  C   C10       1.0  0.775781866240507  0.6101463460364795  0.9606631835158268  1.0000
  C   C11       1.0  0.3506227930463338  0.684958032576368  0.4606634221291515  1.0000
  C   C12       1.0  0.22421582829610995  0.3898524877789881  0.039335586949022165  1.0000
  C   C13       1.0  0.03756144588120945  0.7467739712470304  0.3978408957992485  1.0000
  C   C14       1.0  0.3491696483095196  0.13948155763469572  0.1021807911955648  1.0000
  C   C15       1.0  0.9624407426490222  0.2532259496063531  0.6021592474965161  1.0000
  C   C16       1.0  0.6508285114740529  0.860516137399024  0.8978169758279578  1.0000
  C   C17       1.0  0.9765602229933634  0.7281391576943578  0.4851738292520694  1.0000
  C   C18       1.0  0.24322277095644992  0.9911313622580306  0.014793764238078107  1.0000
  C   C19       1.0  0.02344155838374458  0.2718641659040911  0.5148287317530134  1.0000
  C   C20       1.0  0.7567753969780499  0.0088663409041985  0.9852056690168286  1.0000
  C   C21       1.0  0.13421136445477774  0.9930161537158211  0.6197199270874805  1.0000
  C   C22       1.0  0.37369239472341326  0.014341773551635097  0.880378426794856  1.0000
  C   C23       1.0  0.8657888927674052  0.0069860461084516965  0.3802803163584869  1.0000
  C   C24       1.0  0.6263067617988224  0.9856559160104222  0.11962041384541768  1.0000
  C   C25       1.0  0.1467804829251733  0.8874435541050402  0.4275638500646792  1.0000
  C   C26       1.0  0.4601111457601376  0.21902747254523547  0.07253297206747077  1.0000
  C   C27       1.0  0.8532227604375605  0.1125586252399984  0.5724387811158353  1.0000
  C   C28       1.0  0.5398874792703837  0.7809690837067365  0.9274637915147396  1.0000
  C   C29       1.0  0.024535309654133586  0.8559871198039275  0.5970366012918761  1.0000
  C   C30       1.0  0.25935691277223333  0.9272925489380269  0.9030166731464107  1.0000
  C   C31       1.0  0.9754649434925822  0.1440150759560908  0.40296280903839216  1.0000
  C   C32       1.0  0.7406402125561583  0.07270290792531138  0.0969827715708149  1.0000
  C   C33       1.0  0.8714046579093804  0.5792429926901121  0.4618684357431846  1.0000
  C   C34       1.0  0.11758941852035308  0.9093907747905944  0.0380735276477394  1.0000
  C   C35       1.0  0.12859659605148005  0.42075920166250563  0.5381328813195267  1.0000
  C   C36       1.0  0.8824082800917239  0.0906080630891282  0.9619260759327943  1.0000
  Br  Br1       1.0  0.4087544559616276  0.370622875401061  0.7966764602475324  1.0000
  Br  Br2       1.0  0.5739221131065547  0.11208321574484607  0.7032203394415151  1.0000
  Br  Br3       1.0  0.5912436661054342  0.6293725759906152  0.20332405808643733  1.0000
  Br  Br4       1.0  0.4260786593054888  0.8879201011324939  0.29677864859975506  1.0000
  N   N1        1.0  0.8148207964361374  0.5510200978505965  0.5443202249461478  1.0000
  N   N2        1.0  0.006817702768529336  0.7704020766651566  0.9556334545977023  1.0000
  N   N3        1.0  0.18518045752471574  0.4489820965020213  0.4556810921165635  1.0000
  N   N4        1.0  0.993179530596585  0.2295978999963068  0.04436715242415801  1.0000
  N   N5        1.0  0.8241198640020144  0.4500024298357346  0.35694342221245995  1.0000
  N   N6        1.0  0.09327921818889709  0.9671889235032509  0.14295692572655133  1.0000
  N   N7        1.0  0.17588191329962638  0.5500008896984593  0.6430583056769379  1.0000
  N   N8        1.0  0.9067184844986399  0.0328099184407193  0.8570435109696746  1.0000
  N   N9        1.0  0.7364187734524633  0.3390085297336043  0.37283919220232786  1.0000
  N   N10       1.0  0.9663345985911957  0.8637558552007292  0.12707200765716914  1.0000
  N   N11       1.0  0.2635814837697196  0.6609936700906687  0.6271610512436397  1.0000
  N   N12       1.0  0.03366461602487898  0.13624409832465287  0.8729282472511104  1.0000
  N   N13       1.0  0.733074264492501  0.40258598209357643  0.4853772535843746  1.0000
  N   N14       1.0  0.9173085336432649  0.7477623645977474  0.014544136564346326  1.0000
  N   N15       1.0  0.26692646205210474  0.5974150830132102  0.5146228195359583  1.0000
  N   N16       1.0  0.08268968830959979  0.2522375984635516  0.9854558778428739  1.0000
  N   N17       1.0  0.1980137595181688  0.0090021613908178  0.5383153612665768  1.0000
  N   N18       1.0  0.47098324931689456  0.15958860488220947  0.9617899419359902  1.0000
  N   N19       1.0  0.8019884290120629  0.9909977594625587  0.46168478202918817  1.0000
  N   N20       1.0  0.5290148024299411  0.8404045703533781  0.03820666278290458  1.0000
