data_image0
_chemical_formula_structural       AlH27C45S3O15
_chemical_formula_sum              "Al1 H27 C45 S3 O15"
_cell_length_a       4.179591108783813
_cell_length_b       23.532162402662554
_cell_length_c       23.452938058513332
_cell_angle_alpha    60.088151498981176
_cell_angle_beta     88.30588821303411
_cell_angle_gamma    88.28199893153334

_space_group_name_H-M_alt    "P 1"
_space_group_IT_number       1

loop_
  _space_group_symop_operation_xyz
  'x, y, z'

loop_
  _atom_site_type_symbol
  _atom_site_label
  _atom_site_symmetry_multiplicity
  _atom_site_fract_x
  _atom_site_fract_y
  _atom_site_fract_z
  _atom_site_occupancy
  Al  Al1       1.0  0.09299939057083147  0.4998428677527258  0.4988203796064496  1.0000
  H   H1        1.0  0.591333561044145  0.3190052881820407  0.6708690305710832  1.0000
  H   H2        1.0  0.5513298985515008  0.2502417481392172  0.7902847137124809  1.0000
  H   H3        1.0  0.7915449939967444  0.15427181825350542  0.024224470070187503  1.0000
  H   H4        1.0  0.5597149138477349  0.688858542980931  0.31672799085809805  1.0000
  H   H5        1.0  0.5757301228738569  0.8090376280832315  0.2652906058235161  1.0000
  H   H6        1.0  0.25904351867225006  0.8859599750746842  0.2469185579681079  1.0000
  H   H7        1.0  0.21933870555720594  0.004895552824791601  0.17899347566861218  1.0000
  H   H8        1.0  0.4754022737811567  0.10019518768855559  0.11040470456035929  1.0000
  H   H9        1.0  0.5726077866956202  0.6715485709831484  0.5081913578690022  1.0000
  H   H10       1.0  0.527631973129381  0.7905781818895009  0.45794244672519807  1.0000
  H   H11       1.0  0.7779148627657192  0.0231239508251448  0.3197977956444404  1.0000
  H   H12       1.0  0.653682450768116  0.3184611112270872  0.4909794879574391  1.0000
  H   H13       1.0  0.6693938331628432  0.26652886073026844  0.4218462086527666  1.0000
  H   H14       1.0  0.30474788322598556  0.24748562571758734  0.36948337043681073  1.0000
  H   H15       1.0  0.24998807909086906  0.1792312977969814  0.3188543490213078  1.0000
  H   H16       1.0  0.5039953448203534  0.1100825072888512  0.2885650814528731  1.0000
  H   H17       1.0  0.5576683379863923  0.5081752369362889  0.3173203699237348  1.0000
  H   H18       1.0  0.5285824057805397  0.45627653237986016  0.24943998046116883  1.0000
  H   H19       1.0  0.8141433971045728  0.3163934472286911  0.15323035007321548  1.0000
  H   H20       1.0  0.5447451129213619  0.4922801332603584  0.688970163786223  1.0000
  H   H21       1.0  0.5629557568724621  0.4233009476364273  0.8095125177667696  1.0000
  H   H22       1.0  0.2464909949153622  0.3662144613394672  0.8860003459481548  1.0000
  H   H23       1.0  0.2030764918810277  0.31534408371817346  0.005502745856183838  1.0000
  H   H24       1.0  0.4966655884066853  0.2874391673723196  0.1007310339599243  1.0000
  H   H25       1.0  0.4519591664804778  0.4384506049619004  0.1281376088787313  1.0000
  H   H26       1.0  0.4341157111653117  0.1307524789954115  0.9253807211837354  1.0000
  H   H27       1.0  0.3887340046009199  0.9250748908504538  0.4427018867674659  1.0000
  C   C1        1.0  0.582738979783329  0.45024009348397  0.5986833692213551  1.0000
  C   C2        1.0  0.6076937673251593  0.4499026991912203  0.44877613644064235  1.0000
  C   C3        1.0  0.5823816526296426  0.5993063908060492  0.44878374988682873  1.0000
  C   C4        1.0  0.5803321092896424  0.34176289042341074  0.7015421891591201  1.0000
  C   C5        1.0  0.5660797306225119  0.3027269847028293  0.769524298987136  1.0000
  C   C6        1.0  0.6890101871664597  0.2294154984857214  0.9258717155685403  1.0000
  C   C7        1.0  0.6659304875533677  0.2006572070878292  0.9942791628160703  1.0000
  C   C8        1.0  0.5606028749745418  0.711570230535749  0.34743805991714527  1.0000
  C   C9        1.0  0.5640718597660452  0.7794909339347313  0.31881227912734306  1.0000
  C   C10       1.0  0.38099798612603303  0.9158724988937693  0.26274752782165217  1.0000
  C   C11       1.0  0.357759502084967  0.9836023867228222  0.2239869430117735  1.0000
  C   C12       1.0  0.5705964413979883  0.4100818320262504  0.6719461103724454  1.0000
  C   C13       1.0  0.5618134522852216  0.33056037931780935  0.8103884038579423  1.0000
  C   C14       1.0  0.5467792709532304  0.2917695825459248  0.8833440189811625  1.0000
  C   C15       1.0  0.4968911673452324  0.2303376538029553  0.02499282706090611  1.0000
  C   C16       1.0  0.48438936043465464  0.19752438198956673  0.09749290052424436  1.0000
  C   C17       1.0  0.48002151612858773  0.12885548946248088  0.13527772825329984  1.0000
  C   C18       1.0  0.5681977926198413  0.7019616869510158  0.45479167317183306  1.0000
  C   C19       1.0  0.5514281564084057  0.7697330189872246  0.4260440814883069  1.0000
  C   C20       1.0  0.6753857736188991  0.9254161257273661  0.3431143826089669  1.0000
  C   C21       1.0  0.6575249402609983  0.9935661822720977  0.30346290665978837  1.0000
  C   C22       1.0  0.6323198868501549  0.3486074472334266  0.43776151980064526  1.0000
  C   C23       1.0  0.6369694000457288  0.31959860991736366  0.3985460718295286  1.0000
  C   C24       1.0  0.4227194391818756  0.26237629403367885  0.3221813115673271  1.0000
  C   C25       1.0  0.3920386879080979  0.22352394517601942  0.2935644569947797  1.0000
  C   C26       1.0  0.5689676546206924  0.6722810258413148  0.4159382110722588  1.0000
  C   C27       1.0  0.5565938442231727  0.8103225725293157  0.3573411205411575  1.0000
  C   C28       1.0  0.5420215953568003  0.8830410773570422  0.32344516526689643  1.0000
  C   C29       1.0  0.4993832257949791  0.0243900496833831  0.24350801642128767  1.0000
  C   C30       1.0  0.4876303156478058  0.0966567185922571  0.20410702052513593  1.0000
  C   C31       1.0  0.4966041296330701  0.1345086483652764  0.2350512328911165  1.0000
  C   C32       1.0  0.5796863722064742  0.4550152490912112  0.3402217860147303  1.0000
  C   C33       1.0  0.5700166669310106  0.42559907009572834  0.30161423383445646  1.0000
  C   C34       1.0  0.7198015813817662  0.34085377577510906  0.2286970538101656  1.0000
  C   C35       1.0  0.6954995529028379  0.30106115542558604  0.20047465818366556  1.0000
  C   C36       1.0  0.5536765155371269  0.4390385614401425  0.7115445100936807  1.0000
  C   C37       1.0  0.5587521877877463  0.3996535973558153  0.7796737425639718  1.0000
  C   C38       1.0  0.3741507191094938  0.3200490489442984  0.9161532464670755  1.0000
  C   C39       1.0  0.3483700795707351  0.291178820083573  0.9840885489095115  1.0000
  C   C40       1.0  0.6071818473832806  0.41685345562704873  0.4084944681362117  1.0000
  C   C41       1.0  0.6031846426100244  0.3573107926348342  0.32974624913950373  1.0000
  C   C42       1.0  0.5867739256740592  0.3224629678618314  0.2918424653843843  1.0000
  C   C43       1.0  0.529386435088739  0.24224082705126196  0.23146406740407593  1.0000
  C   C44       1.0  0.5023444544563063  0.20306515119436602  0.1985591395386876  1.0000
  C   C45       1.0  0.49262580653122257  0.2340480897276009  0.129696378015268  1.0000
  S   S1        1.0  0.9171510011881167  0.41592086312637394  0.17531993409362895  1.0000
  S   S2        1.0  0.9007057368075735  0.1774634853100991  0.9016423746183762  1.0000
  S   S3        1.0  0.8667244931566954  0.9014525200701018  0.4192873292688831  1.0000
  O   O1        1.0  0.3586817392677944  0.5709524327810128  0.437058075652857  1.0000
  O   O2        1.0  0.3500456282131594  0.49016211599155224  0.5703180759122688  1.0000
  O   O3        1.0  0.3735574611021307  0.43851819944892867  0.4890470523014656  1.0000
  O   O4        1.0  0.8174373540409263  0.5712281393991744  0.4870246783372067  1.0000
  O   O5        1.0  0.8413959128943418  0.48760021051433716  0.4386759869538181  1.0000
  O   O6        1.0  0.825924317972941  0.4401692844331677  0.5705034726646545  1.0000
  O   O7        1.0  0.6464951202169401  0.4627861202318684  0.13084379516596562  1.0000
  O   O8        1.0  0.05626262297507619  0.44512348467932844  0.20941438699428966  1.0000
  O   O9        1.0  0.1380705398073303  0.4031187744144873  0.1326832131987175  1.0000
  O   O10       1.0  0.6382427043598682  0.13375201046368804  0.8981762713607537  1.0000
  O   O11       1.0  0.054600800470744615  0.21246315784928527  0.83840087393299  1.0000
  O   O12       1.0  0.1123365328194552  0.1342215836280545  0.9563570032448749  1.0000
  O   O13       1.0  0.5886558292719145  0.8977023856853987  0.466722586095834  1.0000
  O   O14       1.0  0.022962048759176026  0.8385069357495283  0.4472191884125111  1.0000
  O   O15       1.0  0.07161972943830362  0.9561126480397278  0.4081715646053112  1.0000
