data_image0
_chemical_formula_structural       Zn4H34C56N6O18
_chemical_formula_sum              "Zn4 H34 C56 N6 O18"
_cell_length_a       10.743149358685244
_cell_length_b       11.45797581203241
_cell_length_c       11.659095664607882
_cell_angle_alpha    114.248350797865
_cell_angle_beta     103.95796461889965
_cell_angle_gamma    91.3516660865328

_space_group_name_H-M_alt    "P 1"
_space_group_IT_number       1

loop_
  _space_group_symop_operation_xyz
  'x, y, z'

loop_
  _atom_site_type_symbol
  _atom_site_label
  _atom_site_symmetry_multiplicity
  _atom_site_fract_x
  _atom_site_fract_y
  _atom_site_fract_z
  _atom_site_occupancy
  Zn  Zn1       1.0  0.20566422658960448  0.5422801445373437  0.40243448411195704  1.0000
  Zn  Zn2       1.0  0.7943358206566631  0.4577204711004298  0.5975655200280697  1.0000
  Zn  Zn3       1.0  0.1519526346179134  0.75109493927264  0.7657881910614747  1.0000
  Zn  Zn4       1.0  0.8480506904490641  0.24890856784763563  0.2342128263937226  1.0000
  H   H1        1.0  0.030731620351993196  0.13582568170524206  0.6905115353910816  1.0000
  H   H2        1.0  0.9692743012875555  0.8641759833298084  0.309494499175031  1.0000
  H   H3        1.0  0.2103972876772247  0.9996599156986504  0.6701185152856579  1.0000
  H   H4        1.0  0.7896075595567144  0.0003406963133513991  0.32988171810313094  1.0000
  H   H5        1.0  0.337107718667596  0.9902462366693852  0.5154569487962274  1.0000
  H   H6        1.0  0.6628892002274824  0.009752369415295399  0.4845372731117336  1.0000
  H   H7        1.0  0.1725941984543695  0.9583081068337904  0.203758909868263  1.0000
  H   H8        1.0  0.8274029676497463  0.041692516612847896  0.7962413017797015  1.0000
  H   H9        1.0  0.5363221569378993  0.01633238039569559  0.12661138498631894  1.0000
  H   H10       1.0  0.4636754368103481  0.9836643935041701  0.8733882799188419  1.0000
  H   H11       1.0  0.4724343441721147  0.2631487737664315  0.4957334343517487  1.0000
  H   H12       1.0  0.527563092132148  0.7368537543741025  0.5042658658923072  1.0000
  H   H13       1.0  0.4297482265148318  0.41874281329720014  0.33011244558222325  1.0000
  H   H14       1.0  0.5702593638872956  0.5812568526424896  0.6698888986435776  1.0000
  H   H15       1.0  0.20115769904125358  0.6632119141556813  0.2200028927972894  1.0000
  H   H16       1.0  0.7988378774747532  0.33677712620897887  0.7799932982012405  1.0000
  H   H17       1.0  0.359291875744681  0.7130755252033864  0.11757026901260287  1.0000
  H   H18       1.0  0.6407040578626565  0.2869232055413136  0.8824314983039087  1.0000
  H   H19       1.0  0.598915829334331  0.4610890862322136  0.2315626879207925  1.0000
  H   H20       1.0  0.4010896790305267  0.5389163579320736  0.7684395801731794  1.0000
  H   H21       1.0  0.9647822381771292  0.5584137434293339  0.10061077205963188  1.0000
  H   H22       1.0  0.03521453699620739  0.44158395255892197  0.8993864934792483  1.0000
  H   H23       1.0  0.0573444629535516  0.6901779930497014  0.006132423160678923  1.0000
  H   H24       1.0  0.942656014810737  0.3098187589577889  0.9938661715935593  1.0000
  H   H25       1.0  0.9320688330750642  0.8406224658287084  0.9408307858808979  1.0000
  H   H26       1.0  0.0679350518622286  0.15937815817525086  0.059170091772536175  1.0000
  H   H27       1.0  0.7069221823681249  0.8631044292970246  0.9597085502617587  1.0000
  H   H28       1.0  0.2930819756432044  0.13689808531733413  0.04029055334477496  1.0000
  H   H29       1.0  0.5152905044164982  0.7570586260469481  0.04178312841766283  1.0000
  H   H30       1.0  0.4847088507332772  0.24294390627668605  0.9582166085830932  1.0000
  H   H31       1.0  0.09562009284434943  0.5009508706490848  0.651322530656138  1.0000
  H   H32       1.0  0.9043832149793047  0.49905272097223724  0.34868366265699513  1.0000
  H   H33       1.0  0.2306642048283578  0.5431572209450408  0.6379255719947848  1.0000
  H   H34       1.0  0.7693348801212707  0.45684340668469037  0.362075076409887  1.0000
  C   C1        1.0  0.12911939033004674  0.2970703081715698  0.40652334636755677  1.0000
  C   C2        1.0  0.8708807862685217  0.7029312879801635  0.5934779273564953  1.0000
  C   C3        1.0  0.14493676083886703  0.21174200136933752  0.4773938517731933  1.0000
  C   C4        1.0  0.8550642343346128  0.7882586726940132  0.5226098213171395  1.0000
  C   C5        1.0  0.06844181565376319  0.21173016390152094  0.5601749501733976  1.0000
  C   C6        1.0  0.9315591852674887  0.7882704819948144  0.43982699763095906  1.0000
  C   C7        1.0  0.9601891740495107  0.2894747683001241  0.5811387711451415  1.0000
  C   C8        1.0  0.03980746027598057  0.7105220035081882  0.41886067538167265  1.0000
  C   C9        1.0  0.0916200049515794  0.13392022553290417  0.6276027077805323  1.0000
  C   C10       1.0  0.9083830441674791  0.866081405060491  0.37240094636454996  1.0000
  C   C11       1.0  0.1908447561160003  0.058288061900789494  0.6159836686715394  1.0000
  C   C12       1.0  0.8091563856530968  0.9417135081754819  0.3840160981448829  1.0000
  C   C13       1.0  0.2630728638167811  0.05424358889164438  0.5303097177507395  1.0000
  C   C14       1.0  0.7369288435704036  0.9457550699012954  0.46968818397794354  1.0000
  C   C15       1.0  0.24044470552146896  0.12881020492148557  0.45949332968424966  1.0000
  C   C16       1.0  0.759554376554277  0.8711904367917495  0.5405081813634068  1.0000
  C   C17       1.0  0.31622314730592654  0.10984425452063108  0.3629575593516207  1.0000
  C   C18       1.0  0.6837741510243802  0.8901573353564699  0.6370430592373777  1.0000
  C   C19       1.0  0.26974721446377  0.010971773713706097  0.23570921647412038  1.0000
  C   C20       1.0  0.7302509110631092  0.9890288518244785  0.7642912135521979  1.0000
  C   C21       1.0  0.348677083257428  0.9769832191612404  0.15040548946042492  1.0000
  C   C22       1.0  0.6513209071693781  0.02301645402999239  0.849595396267844  1.0000
  C   C23       1.0  0.3025035963549882  0.8736236169237159  0.013178870334463947  1.0000
  C   C24       1.0  0.6974994671335111  0.12637794325214458  0.986820470595674  1.0000
  C   C25       1.0  0.4739344252951056  0.042800255567790685  0.1917362682420815  1.0000
  C   C26       1.0  0.5260635622578106  0.9571994317069538  0.8082654801291793  1.0000
  C   C27       1.0  0.5165332336380928  0.14849789302471086  0.3140672893947069  1.0000
  C   C28       1.0  0.4834658570593149  0.8515027064380118  0.6859316337239817  1.0000
  C   C29       1.0  0.6438886731267672  0.22744957359484622  0.3495743814904983  1.0000
  C   C30       1.0  0.3561094610217737  0.7725510096928188  0.6504234606068519  1.0000
  C   C31       1.0  0.4378225751515076  0.1818335569210987  0.39959738541536877  1.0000
  C   C32       1.0  0.5621766506459736  0.8181679948885685  0.6004010820013616  1.0000
  C   C33       1.0  0.417830229073985  0.48334499021945  0.2820246680611829  1.0000
  C   C34       1.0  0.582175178030262  0.5166527386762352  0.7179754255258428  1.0000
  C   C35       1.0  0.28971579931444325  0.6193269666542774  0.21933882644182015  1.0000
  C   C36       1.0  0.7102820898517451  0.38066499126835396  0.7806598847795029  1.0000
  C   C37       1.0  0.3801373564893921  0.6487995758515764  0.16501672229045264  1.0000
  C   C38       1.0  0.6198602372588554  0.3511971980482896  0.8349829426147151  1.0000
  C   C39       1.0  0.512280358559387  0.5080410135834725  0.22939587444499665  1.0000
  C   C40       1.0  0.487722431855083  0.4919586559819891  0.7706052405320347  1.0000
  C   C41       1.0  0.5997869107133625  0.6287318908616297  0.12555825367692797  1.0000
  C   C42       1.0  0.40021258241036867  0.37127157972544467  0.8744401649788853  1.0000
  C   C43       1.0  0.7110764043166072  0.7236741759624576  0.04291604708417632  1.0000
  C   C44       1.0  0.2889230773115798  0.2763293509586474  0.9570858221435968  1.0000
  C   C45       1.0  0.783354321795052  0.6378448399058313  0.08380965236575114  1.0000
  C   C46       1.0  0.21664503335472327  0.3621576924178029  0.9161900846350118  1.0000
  C   C47       1.0  0.9092237387780528  0.624129810352997  0.07008297530362013  1.0000
  C   C48       1.0  0.0907743896227089  0.3758708011016836  0.9299165920797067  1.0000
  C   C49       1.0  0.9597244836872465  0.69767723338672  0.017868479383331096  1.0000
  C   C50       1.0  0.040276525855667  0.30232337025909567  0.9821308804920577  1.0000
  C   C51       1.0  0.8876000604132698  0.783687710243157  0.9794375702366407  1.0000
  C   C52       1.0  0.11240190855239973  0.21631289549420527  0.020562008017101552  1.0000
  C   C53       1.0  0.7620165567463957  0.7974254991530781  0.9903505999343376  1.0000
  C   C54       1.0  0.23798567667164866  0.2025770394451953  0.009649792201479044  1.0000
  C   C55       1.0  0.496552993160691  0.5956838931085499  0.17235849080043408  1.0000
  C   C56       1.0  0.5034480163822296  0.4043167105372658  0.8276408690749546  1.0000
  N   N1        1.0  0.30855717596280396  0.5401525683994421  0.27992828481297477  1.0000
  N   N2        1.0  0.6914449590685124  0.45984224084672565  0.7200690701729043  1.0000
  N   N3        1.0  0.7117060863821578  0.5806557751290597  0.1346884344300036  1.0000
  N   N4        1.0  0.28829326876761735  0.41934675719457437  0.8653113025707595  1.0000
  N   N5        1.0  0.5947285915909291  0.7154544602809378  0.07060270305032637  1.0000
  N   N6        1.0  0.4052707606849637  0.2845480861262003  0.9293978965934214  1.0000
  O   O1        1.0  0.21820863406613003  0.3933257873956533  0.45207473617000443  1.0000
  O   O2        1.0  0.781789623686926  0.6066758045729939  0.5479261007973474  1.0000
  O   O3        1.0  0.0375237207067443  0.26953965540478453  0.3042088939971349  1.0000
  O   O4        1.0  0.9624777193541834  0.730457084610748  0.6957890564924653  1.0000
  O   O5        1.0  0.9667206380600533  0.4016750745969232  0.5743606008957798  1.0000
  O   O6        1.0  0.033279133238295296  0.5983236645139627  0.4256420399341322  1.0000
  O   O7        1.0  0.8649698231147838  0.24985473479553377  0.6051689451971639  1.0000
  O   O8        1.0  0.1350282155209115  0.750138105056507  0.39482499710726404  1.0000
  O   O9        1.0  0.1819466816610741  0.8638545379329583  0.9526516225440813  1.0000
  O   O10       1.0  0.8180530759150315  0.13615086551503444  0.047347609993806786  1.0000
  O   O11       1.0  0.38107637785795834  0.8045486868638746  0.9615873028949623  1.0000
  O   O12       1.0  0.6189207911200469  0.19545192249925944  0.03841204611001091  1.0000
  O   O13       1.0  0.7297013483763379  0.1702710450592022  0.2965025196059868  1.0000
  O   O14       1.0  0.2702952722269103  0.8297323910862172  0.7034935186288035  1.0000
  O   O15       1.0  0.6566255268134287  0.3472032421110924  0.42661885977962294  1.0000
  O   O16       1.0  0.3433709414464162  0.6527993261884218  0.5733828100150545  1.0000
  O   O17       1.0  0.17619770194230708  0.5668587343696314  0.6982280019221745  1.0000
  O   O18       1.0  0.8238034312051354  0.43314287795715956  0.30177435282322307  1.0000
