data_image0
_chemical_formula_structural       Cd4H32C48N8O16
_chemical_formula_sum              "Cd4 H32 C48 N8 O16"
_cell_length_a       7.752250245
_cell_length_b       8.066190024
_cell_length_c       19.4647
_cell_angle_alpha    90.0
_cell_angle_beta     90.0
_cell_angle_gamma    90.0

_space_group_name_H-M_alt    "P 1"
_space_group_IT_number       1

loop_
  _space_group_symop_operation_xyz
  'x, y, z'

loop_
  _atom_site_type_symbol
  _atom_site_label
  _atom_site_symmetry_multiplicity
  _atom_site_fract_x
  _atom_site_fract_y
  _atom_site_fract_z
  _atom_site_occupancy
  Cd  Cd1       1.0  0.009732657952916703  0.0322457069850941  0.0106264160249054  1.0000
  Cd  Cd2       1.0  0.5097358670211491  0.9677518105541694  0.9893725564740307  1.0000
  Cd  Cd3       1.0  0.5097319971770347  0.4677524319131977  0.5106274435259692  1.0000
  Cd  Cd4       1.0  0.009733947900954804  0.5322475651114189  0.4893746114761583  1.0000
  H   H1        1.0  0.28986293385579404  0.2983688696694671  0.9539977497726682  1.0000
  H   H2        1.0  0.7898571132877594  0.7016187299283985  0.0460001952252043  1.0000
  H   H3        1.0  0.78986356302795  0.2016305089715047  0.4540003185253312  1.0000
  H   H4        1.0  0.2898590640116795  0.7983806457371898  0.5460007089757326  1.0000
  H   H5        1.0  0.2976761491269429  0.5512639780081656  0.8812655730630324  1.0000
  H   H6        1.0  0.7976574290785197  0.44872486133238  0.11873339943590369  1.0000
  H   H7        1.0  0.7976845179873353  0.9487428361134747  0.3812640318114333  1.0000
  H   H8        1.0  0.2976671194906686  0.0512720378232459  0.6187344269369673  1.0000
  H   H9        1.0  0.017947047064140506  0.6810402412607459  0.8440941807477101  1.0000
  H   H10       1.0  0.5179270370676721  0.3189622352492165  0.15590736050388898  1.0000
  H   H11       1.0  0.5179554159245257  0.8189678126035675  0.3440890432423842  1.0000
  H   H12       1.0  0.0179367274798281  0.18103962287710126  0.6559094155060166  1.0000
  H   H13       1.0  0.7393453279835427  0.5505288106016977  0.8846717390969303  1.0000
  H   H14       1.0  0.23932792948687626  0.4494811043643239  0.11532980215466888  1.0000
  H   H15       1.0  0.23935243849961554  0.9494730445492436  0.3846681428431964  1.0000
  H   H16       1.0  0.7393362983472687  0.050524472990026915  0.6153313434062682  1.0000
  H   H17       1.0  0.2913244449837792  0.1425332153816399  0.2549024644613098  1.0000
  H   H18       1.0  0.7913250741559354  0.8574705008710097  0.7450959942870908  1.0000
  H   H19       1.0  0.7913237842078971  0.35746120428863304  0.7549024644613098  1.0000
  H   H20       1.0  0.2913167052955502  0.6425301145372586  0.24509856303976107  1.0000
  H   H21       1.0  0.0181108704650725  0.1795395342399644  0.32298211634394386  1.0000
  H   H22       1.0  0.5181089197411455  0.8204641820126781  0.6770158286539214  1.0000
  H   H23       1.0  0.5181076297931071  0.3204610841436804  0.8229821163439439  1.0000
  H   H24       1.0  0.018104420724874608  0.6795376731382561  0.1770189111571199  1.0000
  H   H25       1.0  0.7332516134481395  0.1399533108742972  0.2611748447189015  1.0000
  H   H26       1.0  0.23324969432794526  0.8600491656356724  0.7388241277800347  1.0000
  H   H27       1.0  0.233248404379907  0.3600535062227266  0.761175358469437  1.0000
  H   H28       1.0  0.7332438737599105  0.6399489702872361  0.23882566903163388  1.0000
  H   H29       1.0  0.7353116604661383  0.0714054588704514  0.1366894943153483  1.0000
  H   H30       1.0  0.23530974134594376  0.9285982573821914  0.8633094781835808  1.0000
  H   H31       1.0  0.23530716144986746  0.4286025979692454  0.6366894943153482  1.0000
  H   H32       1.0  0.7353039207779093  0.5713986387980512  0.36331101943518007  1.0000
  C   C1        1.0  0.17048340265491654  0.356935553394294  0.9371631723067892  1.0000
  C   C2        1.0  0.6704775820868749  0.6430532859462446  0.0628368276932108  1.0000
  C   C3        1.0  0.670486611723149  0.1430663047320238  0.43716419980786003  1.0000
  C   C4        1.0  0.1704756629666804  0.8569436102339978  0.5628368276932108  1.0000
  C   C5        1.0  0.1740320497097159  0.4983852336777019  0.8961329997379862  1.0000
  C   C6        1.0  0.674015909557369  0.5016060851481898  0.10386700026201369  1.0000
  C   C7        1.0  0.6740378386740249  0.0016203436766418005  0.39613299973798627  1.0000
  C   C8        1.0  0.17402431002147986  0.9983895712893727  0.6038664865114781  1.0000
  C   C9        1.0  0.018668128017843306  0.5699419411545463  0.8758419086859773  1.0000
  C   C10       1.0  0.5186648873458779  0.4300592956127431  0.12415860506455088  1.0000
  C   C11       1.0  0.5186752069301905  0.930063633224421  0.3758393399333144  1.0000
  C   C12       1.0  0.018657808433530907  0.0699438022562475  0.6241606600666856  1.0000
  C   C13       1.0  0.864585093124788  0.4989480768523009  0.898129948059818  1.0000
  C   C14       1.0  0.36457156447224304  0.5010581188856946  0.1018710794412456  1.0000
  C   C15       1.0  0.3645909136928297  0.0010537812740239  0.3981273793071551  1.0000
  C   C16       1.0  0.8645773534365591  0.9989462157505927  0.6018715931917811  1.0000
  C   C17       1.0  0.8706826775043057  0.3577513040746609  0.9394509034303126  1.0000
  C   C18       1.0  0.3706730186958752  0.6422561314060147  0.060549096569687294  1.0000
  C   C19       1.0  0.3706872081243021  0.1422468348236379  0.4394493621787134  1.0000
  C   C20       1.0  0.8706762277641078  0.8577544019436589  0.560551151571822  1.0000
  C   C21       1.0  0.706454232889641  0.27337937656302114  0.9628085714138946  1.0000
  C   C22       1.0  0.20645231376944656  0.7266292986603204  0.0371909148355769  1.0000
  C   C23       1.0  0.20645747356159924  0.22661876233527076  0.46280857141389475  1.0000
  C   C24       1.0  0.7064516529935645  0.7733775154613198  0.5371914285861052  1.0000
  C   C25       1.0  0.15579605428487756  0.09384976026446173  0.1609441707295787  1.0000
  C   C26       1.0  0.6557941035609576  0.9061527162455081  0.8390548017693574  1.0000
  C   C27       1.0  0.6557941035609576  0.4061508581191831  0.6609431432285078  1.0000
  C   C28       1.0  0.15578831459664855  0.5938454196774074  0.3390563430209567  1.0000
  C   C29       1.0  0.1650114430742278  0.1302374475278043  0.2309467908572955  1.0000
  C   C30       1.0  0.6650082024022697  0.8697662687248382  0.7690511541405698  1.0000
  C   C31       1.0  0.6650056225061933  0.3697594516278145  0.7309467908572955  1.0000
  C   C32       1.0  0.16500499333403706  0.6302331069407501  0.26905423664376826  1.0000
  C   C33       1.0  0.012760166000035203  0.15022829816735594  0.2682204195286886  1.0000
  C   C34       1.0  0.5127569253280697  0.8497766578279666  0.7317785529702475  1.0000
  C   C35       1.0  0.5127543454319936  0.3497723202162959  0.7682204195286886  1.0000
  C   C36       1.0  0.012752426311799103  0.6502227178376216  0.2317806079723823  1.0000
  C   C37       1.0  0.8558276358892203  0.12844106039126765  0.2342717843069764  1.0000
  C   C38       1.0  0.3558244268209877  0.8715626558613823  0.7657261606908888  1.0000
  C   C39       1.0  0.3558244268209877  0.3715632772204103  0.7342743530596394  1.0000
  C   C40       1.0  0.8558198962009913  0.6284354800615333  0.2657297569446229  1.0000
  C   C41       1.0  0.8560095185627008  0.09013549120920322  0.1644196930854349  1.0000
  C   C42       1.0  0.35600888939054454  0.9098682250434393  0.8355797931640367  1.0000
  C   C43       1.0  0.35600888939054454  0.4098700861451476  0.6644191793348995  1.0000
  C   C44       1.0  0.8560030688225027  0.5901286711367959  0.3355818481661643  1.0000
  C   C45       1.0  0.3188906345734211  0.0716992778845054  0.1191099785766028  1.0000
  C   C46       1.0  0.8188886838495011  0.9282994793974382  0.8808889939223334  1.0000
  C   C47       1.0  0.8188848140053795  0.4282963815284405  0.6191094648260673  1.0000
  C   C48       1.0  0.3188841848332231  0.5716998962681501  0.3808900214233972  1.0000
  N   N1        1.0  0.0218297906609948  0.2878880850923053  0.9579464363694257  1.0000
  N   N2        1.0  0.5218201002488387  0.7121094324469652  0.04205304988003889  1.0000
  N   N3        1.0  0.5218317097811893  0.2121112935486664  0.4579469501199611  1.0000
  N   N4        1.0  0.021824630868842107  0.7878924227039761  0.5420540773811027  1.0000
  N   N5        1.0  0.0031410234745337007  0.0756106660251419  0.1283266631389139  1.0000
  N   N6        1.0  0.5031390727506138  0.9243942899701738  0.8716723093600223  1.0000
  N   N7        1.0  0.5031390727506138  0.424393671586529  0.6283266631389139  1.0000
  N   N8        1.0  0.0031345737343358  0.5756038459527346  0.3716738506116215  1.0000
  O   O1        1.0  0.7204166304618556  0.1681115862588527  0.0124887617070897  1.0000
  O   O2        1.0  0.2204121314455847  0.831888410765764  0.9875091832907756  1.0000
  O   O3        1.0  0.22041471134166105  0.3318865526394391  0.5124882479565541  1.0000
  O   O4        1.0  0.7204114706697027  0.6681122046425045  0.4875122657939741  1.0000
  O   O5        1.0  0.5692669690128158  0.3048180110664873  0.9314523213817836  1.0000
  O   O6        1.0  0.06925860015242342  0.6952030615836122  0.0685497336203511  1.0000
  O   O7        1.0  0.0692637599445831  0.19517392911843257  0.43145078013018434  1.0000
  O   O8        1.0  0.5692566494285033  0.804819869192805  0.5685481923687519  1.0000
  O   O9        1.0  0.3056970460323427  0.1073753528522161  0.0545741778707125  1.0000
  O   O10       1.0  0.8056950953084225  0.8926184454590285  0.9454247946282236  1.0000
  O   O11       1.0  0.8056976752044991  0.3926215463034097  0.5545757191223117  1.0000
  O   O12       1.0  0.3056931761882282  0.6073796904638868  0.4454263358798229  1.0000
  O   O13       1.0  0.4516649862094298  0.021412835488142407  0.1488854182186188  1.0000
  O   O14       1.0  0.9516630354855098  0.9785834423084481  0.8511145817813811  1.0000
  O   O15       1.0  0.951664325433548  0.4785902623808553  0.6488879869712889  1.0000
  O   O16       1.0  0.45165853646923904  0.5214196525851664  0.3511150955319096  1.0000
