data_image0
_chemical_formula_structural       MnH22C26N4O6
_chemical_formula_sum              "Mn1 H22 C26 N4 O6"
_cell_length_a       5.091873072998807
_cell_length_b       7.347115598202541
_cell_length_c       14.621819886419944
_cell_angle_alpha    98.48231048883459
_cell_angle_beta     89.19232731012062
_cell_angle_gamma    94.72000474415141

_space_group_name_H-M_alt    "P 1"
_space_group_IT_number       1

loop_
  _space_group_symop_operation_xyz
  'x, y, z'

loop_
  _atom_site_type_symbol
  _atom_site_label
  _atom_site_symmetry_multiplicity
  _atom_site_fract_x
  _atom_site_fract_y
  _atom_site_fract_z
  _atom_site_occupancy
  Mn  Mn1       1.0  0.499996182039112  0.49999576692437137  0.5000050741519644  1.0000
  H   H1        1.0  0.11394460111088019  0.5464996403606152  0.0536948955800511  1.0000
  H   H2        1.0  0.8860648705166553  0.4535200011639732  0.9463073458237758  1.0000
  H   H3        1.0  0.06759537623258181  0.863783894261765  0.1266468662691906  1.0000
  H   H4        1.0  0.932403704287303  0.13622745160022023  0.8733519223115422  1.0000
  H   H5        1.0  0.6884682634636404  0.8160503630821767  0.3186433526683032  1.0000
  H   H6        1.0  0.3115612200149798  0.18397758788336926  0.6813651164089407  1.0000
  H   H7        1.0  0.7477033391356186  0.504341662389173  0.23915724206057118  1.0000
  H   H8        1.0  0.2523562173004875  0.49566485144425343  0.7608407000047775  1.0000
  H   H9        1.0  0.31017894398420504  0.07230321978442333  0.004511485067674  1.0000
  H   H10       1.0  0.6898610866543747  0.927701815968739  0.99548284065105  1.0000
  H   H11       1.0  0.2756060673754845  0.2877596347166147  0.9664401399839163  1.0000
  H   H12       1.0  0.7244181395173682  0.7122711762645865  0.033563752438176706  1.0000
  H   H13       1.0  0.06754398431917252  0.22110722501659558  0.0560465453802621  1.0000
  H   H14       1.0  0.932467792390746  0.7789112683007033  0.943949453256522  1.0000
  H   H15       1.0  0.9701343029348167  0.09987703175582402  0.209945738598023  1.0000
  H   H16       1.0  0.029881267750603516  0.9001167739560288  0.7900455254850911  1.0000
  H   H17       1.0  0.0411498239721837  0.42213520544419225  0.3345014579746177  1.0000
  H   H18       1.0  0.9588404735081544  0.577853616507767  0.6655064087120479  1.0000
  H   H19       1.0  0.6679442295832061  0.10020688853975912  0.3671112860122037  1.0000
  H   H20       1.0  0.3320540682792057  0.8998155485658687  0.6328863509058635  1.0000
  H   H21       1.0  0.29117866701879785  0.07477933330734032  0.5139426166767577  1.0000
  H   H22       1.0  0.7087263921135117  0.9251637382916656  0.4860406680363313  1.0000
  C   C1        1.0  0.43691409175141166  0.5018557798601222  0.1403860799449888  1.0000
  C   C2        1.0  0.5630676029176485  0.49816080034148064  0.8596158055917371  1.0000
  C   C3        1.0  0.2438448185610724  0.6056507414284553  0.11071536115655789  1.0000
  C   C4        1.0  0.7561545218199015  0.39436072144938816  0.8892800168417025  1.0000
  C   C5        1.0  0.21491112728822506  0.7852086813224235  0.1524484415074028  1.0000
  C   C6        1.0  0.7850661713877899  0.2147649219185156  0.8475553981019956  1.0000
  C   C7        1.0  0.3742886664441015  0.8632962531656078  0.227803139375709  1.0000
  C   C8        1.0  0.6257395698369236  0.13669985503932483  0.7722061506652763  1.0000
  C   C9        1.0  0.5682155233240279  0.7613305437412662  0.258460988692562  1.0000
  C   C10       1.0  0.4318209152187436  0.23866448069099994  0.7415420864119895  1.0000
  C   C11       1.0  0.6000009516839313  0.5840521305220462  0.21438204941303235  1.0000
  C   C12       1.0  0.39998238472188063  0.4159436241031501  0.7856229345609833  1.0000
  C   C13       1.0  0.46965921943163375  0.30896360041129617  0.096891759576323  1.0000
  C   C14       1.0  0.5303268958168986  0.6910572104951883  0.9031091192675403  1.0000
  C   C15       1.0  0.2679362323861341  0.21558318081535788  0.0273169195905254  1.0000
  C   C16       1.0  0.7320577183812631  0.7844077450239838  0.972670605873624  1.0000
  C   C17       1.0  0.1254687204323162  0.14645234012570543  0.2596371585743924  1.0000
  C   C18       1.0  0.8745441231101195  0.8535877935560027  0.7403736082031641  1.0000
  C   C19       1.0  0.164176621674045  0.30737176936670363  0.3198519566760183  1.0000
  C   C20       1.0  0.8358281695129292  0.6926435244371523  0.6801547020031435  1.0000
  C   C21       1.0  0.4902167394904994  0.14516359130521286  0.3411592636438172  1.0000
  C   C22       1.0  0.5098198794185363  0.8548328368442669  0.6588432423396995  1.0000
  C   C23       1.0  0.9758703439283211  0.2632540124383169  0.5390623894514093  1.0000
  C   C24       1.0  0.02409130843086871  0.7367181322756053  0.4609385344815848  1.0000
  C   C25       1.0  0.07728191856929102  0.0780110920547088  0.5124120503825509  1.0000
  C   C26       1.0  0.9226404071031808  0.9219487151384628  0.4875726644910259  1.0000
  N   N1        1.0  0.33425166151027236  0.042094726342583016  0.27352073592985693  1.0000
  N   N2        1.0  0.6658228746872012  0.9579362920244493  0.7264936294382593  1.0000
  N   N3        1.0  0.391977383423594  0.3050804022111677  0.37027424047867896  1.0000
  N   N4        1.0  0.6079882034603301  0.6948979405259265  0.6297080454511885  1.0000
  O   O1        1.0  0.6597598296559042  0.22759149727907166  0.11723134873339089  1.0000
  O   O2        1.0  0.34020764639701173  0.772416791109855  0.88276570119352  1.0000
  O   O3        1.0  0.1489703298382992  0.3963187187084714  0.5657845809665574  1.0000
  O   O4        1.0  0.8510337584596996  0.6036262201107048  0.43421702489119696  1.0000
  O   O5        1.0  0.7287713264916534  0.27860423622692576  0.5358505393152271  1.0000
  O   O6        1.0  0.2712003683990645  0.721394103350761  0.46415597922148066  1.0000
