data_image0
_chemical_formula_structural       Zn2H28C32S4N4O10
_chemical_formula_sum              "Zn2 H28 C32 S4 N4 O10"
_cell_length_a       8.940532112176745
_cell_length_b       10.88164826084115
_cell_length_c       11.551289847279257
_cell_angle_alpha    102.97122657184464
_cell_angle_beta     111.4469179396996
_cell_angle_gamma    108.56824344815274

_space_group_name_H-M_alt    "P 1"
_space_group_IT_number       1

loop_
  _space_group_symop_operation_xyz
  'x, y, z'

loop_
  _atom_site_type_symbol
  _atom_site_label
  _atom_site_symmetry_multiplicity
  _atom_site_fract_x
  _atom_site_fract_y
  _atom_site_fract_z
  _atom_site_occupancy
  Zn  Zn1       1.0  0.8338234548243763  0.6415801005670971  0.016764205733089545  1.0000
  Zn  Zn2       1.0  0.16617655871890943  0.3584198647438015  0.9832343235645166  1.0000
  H   H1        1.0  0.6677318468428979  0.10359270816599057  0.3024226474143674  1.0000
  H   H2        1.0  0.3322693807777809  0.8964072744115085  0.6975770927916043  1.0000
  H   H3        1.0  0.8438031936107889  0.1407669097372874  0.4620736882488997  1.0000
  H   H4        1.0  0.15619858340904358  0.8592362200436837  0.5379268464570826  1.0000
  H   H5        1.0  0.917441069780466  0.3987389958376325  0.5284326332557824  1.0000
  H   H6        1.0  0.08255650768840879  0.6012630657156063  0.4715665025079471  1.0000
  H   H7        1.0  0.6969972746028361  0.297583970184931  0.49448249555709367  1.0000
  H   H8        1.0  0.3030003382417305  0.702415995148655  0.5055162239508488  1.0000
  H   H9        1.0  0.007700938578793153  0.9466556324972827  0.25640484569856864  1.0000
  H   H10       1.0  0.9923014848152363  0.0533443443095578  0.7435943640643854  1.0000
  H   H11       1.0  0.2892629628200467  0.0964363102515122  0.467944544151983  1.0000
  H   H12       1.0  0.710737130626633  0.9035594741387101  0.5320540233097331  1.0000
  H   H13       1.0  0.4869448098272143  0.7966746349461076  0.35585025208198556  1.0000
  H   H14       1.0  0.5130493309763722  0.20331907055910384  0.644149680663318  1.0000
  H   H15       1.0  0.19932081827454332  0.66348448306271  0.14871719779421957  1.0000
  H   H16       1.0  0.8006779811913488  0.33651546498158774  0.8512801205950278  1.0000
  H   H17       1.0  0.8714105966986095  0.8922707097458941  0.9515716706800814  1.0000
  H   H18       1.0  0.12859002784318824  0.10772819881054123  0.04842594993028371  1.0000
  H   H19       1.0  0.7382759282662263  0.0600500448416952  0.9433461437736168  1.0000
  H   H20       1.0  0.26172828482801674  0.9399509886969354  0.05665378446624198  1.0000
  H   H21       1.0  0.38474216537801437  0.8177475536229933  0.06914567970454738  1.0000
  H   H22       1.0  0.6152608336388425  0.18225346264904368  0.9308530376269599  1.0000
  H   H23       1.0  0.547241725052821  0.6725712586568022  0.08694631338276783  1.0000
  H   H24       1.0  0.452757181772526  0.32742454302270124  0.9130536551976502  1.0000
  H   H25       1.0  0.4855646208798276  0.47624458477277176  0.8185161609176104  1.0000
  H   H26       1.0  0.5144353664397912  0.5237574882764092  0.18148365531146735  1.0000
  H   H27       1.0  0.6428505796465274  0.4839456160101179  0.7731689570918615  1.0000
  H   H28       1.0  0.3571475825971859  0.5160574965269404  0.22683055691609152  1.0000
  C   C1        1.0  0.8094832891782673  0.49193932040370913  0.171522442721013  1.0000
  C   C2        1.0  0.19051496212085792  0.5080596227312881  0.8284779801267488  1.0000
  C   C3        1.0  0.0800657521810918  0.3811570471325466  0.2094568918597019  1.0000
  C   C4        1.0  0.9199348644410745  0.618843992199423  0.7905437570335035  1.0000
  C   C5        1.0  0.8279910150422652  0.40101042936576187  0.24987178013437014  1.0000
  C   C6        1.0  0.17200840580654378  0.5989906157368592  0.7501293992018457  1.0000
  C   C7        1.0  0.940978983725337  0.339774058007535  0.2575079698282605  1.0000
  C   C8        1.0  0.05902345797272796  0.6602259418365647  0.7424929812860622  1.0000
  C   C9        1.0  0.7977403767759768  0.18426281874164366  0.3861217246255037  1.0000
  C   C10       1.0  0.20226261432124196  0.815740328305921  0.6138800209888442  1.0000
  C   C11       1.0  0.7853273428016861  0.31721909696160105  0.44838633999757577  1.0000
  C   C12       1.0  0.2146702791948982  0.6827808798906148  0.551613250186051  1.0000
  C   C13       1.0  0.1179310539934376  0.9172997308317078  0.28273339939747877  1.0000
  C   C14       1.0  0.8820719462557988  0.0827034277344865  0.7172692168925533  1.0000
  C   C15       1.0  0.2770021856816527  0.0007278732664559986  0.4021614024856887  1.0000
  C   C16       1.0  0.7229973595982598  0.9992669062144585  0.5978402694345416  1.0000
  C   C17       1.0  0.4160152257693141  0.9593677502335821  0.43536596969209984  1.0000
  C   C18       1.0  0.5839800741995447  0.040625903426466395  0.5646299499074485  1.0000
  C   C19       1.0  0.38693411841510533  0.8365219915895351  0.3403484810213511  1.0000
  C   C20       1.0  0.6130606333869935  0.1634706571612128  0.6596505430367116  1.0000
  C   C21       1.0  0.22440470495703105  0.7597477634631316  0.22264817587681998  1.0000
  C   C22       1.0  0.7755918194736325  0.24024806127630424  0.7773537242653031  1.0000
  C   C23       1.0  0.7652138041806608  0.8828190415543415  0.9793330958910499  1.0000
  C   C24       1.0  0.23479044552165354  0.11718203805878595  0.02067031505155368  1.0000
  C   C25       1.0  0.6861230352203407  0.9736223547571257  0.9718444653672547  1.0000
  C   C26       1.0  0.3138799637965092  0.026378661514911493  0.02815425196424569  1.0000
  C   C27       1.0  0.5455845586587384  0.9539981869107307  0.0043499338655194  1.0000
  C   C28       1.0  0.45442028373805227  0.04600181291068139  0.9956508270384742  1.0000
  C   C29       1.0  0.4948339176757771  0.8425640967915272  0.04526408478226777  1.0000
  C   C30       1.0  0.5051691350208003  0.15743484629810203  0.9547359576448142  1.0000
  C   C31       1.0  0.5835556333253109  0.7584066529294445  0.05384628858598716  1.0000
  C   C32       1.0  0.4164444155936664  0.24159121616180093  0.9461518244558317  1.0000
  S   S1        1.0  0.6892679054016779  0.385544593705454  0.32691693909193004  1.0000
  S   S2        1.0  0.3107321172936324  0.6144553831240742  0.6730824608813603  1.0000
  S   S3        1.0  0.965402953218273  0.2187680499951554  0.32989253619174236  1.0000
  S   S4        1.0  0.03460364473542657  0.781237245071857  0.670113258403468  1.0000
  N   N1        1.0  0.09039858477839137  0.7979973098852111  0.1945956664944361  1.0000
  N   N2        1.0  0.9096038398480247  0.20200480921579358  0.805407442227043  1.0000
  N   N3        1.0  0.71644954236681  0.7776001471711568  0.020822143321851193  1.0000
  N   N4        1.0  0.28355226087668933  0.22240087487153196  0.9791771044526595  1.0000
  O   O1        1.0  0.8862787930781906  0.5003278695631436  0.09672349822823618  1.0000
  O   O2        1.0  0.11371879354270222  0.4996742035087252  0.9032765082111779  1.0000
  O   O3        1.0  0.7147724557964066  0.5563591698179664  0.17805376119317617  1.0000
  O   O4        1.0  0.28522875475261594  0.44364293201643773  0.8219481366199514  1.0000
  O   O5        1.0  0.03926786454319853  0.29942823813565417  0.0924387526632984  1.0000
  O   O6        1.0  0.9607339216286517  0.7005749031639396  0.9075626527183682  1.0000
  O   O7        1.0  0.22638716735291806  0.486694123031917  0.29255184432754067  1.0000
  O   O8        1.0  0.7736110302664868  0.5133068932854811  0.7074472534246322  1.0000
  O   O9        1.0  0.6025054691579326  0.47273456451645046  0.8430509521902958  1.0000
  O   O10       1.0  0.39749271930945446  0.5272664402823253  0.1569472748861925  1.0000
