data_image0
_chemical_formula_structural       CuH20C20N8O4
_chemical_formula_sum              "Cu1 H20 C20 N8 O4"
_cell_length_a       8.018904695069654
_cell_length_b       8.434813709310381
_cell_length_c       8.813873578796695
_cell_angle_alpha    77.19467775912558
_cell_angle_beta     68.26919188970211
_cell_angle_gamma    76.5304837568961

_space_group_name_H-M_alt    "P 1"
_space_group_IT_number       1

loop_
  _space_group_symop_operation_xyz
  'x, y, z'

loop_
  _atom_site_type_symbol
  _atom_site_label
  _atom_site_symmetry_multiplicity
  _atom_site_fract_x
  _atom_site_fract_y
  _atom_site_fract_z
  _atom_site_occupancy
  Cu  Cu1       1.0  0.49999841296597236  0.5000026616930526  0.4999953778814543  1.0000
  H   H1        1.0  0.9685024124380207  0.34470276071200345  0.7959217143386397  1.0000
  H   H2        1.0  0.031496615270214114  0.6552976400072623  0.20407729630728969  1.0000
  H   H3        1.0  0.9575212941654669  0.11831768873238958  0.12296337074310061  1.0000
  H   H4        1.0  0.042485753708696464  0.8816827427920585  0.8770363838014674  1.0000
  H   H5        1.0  0.5599153211009876  0.7427327136168955  0.7145193794187675  1.0000
  H   H6        1.0  0.4400834552891837  0.25726892142427715  0.2854817225344917  1.0000
  H   H7        1.0  0.8123867513457484  0.6319992317236824  0.8760905659650291  1.0000
  H   H8        1.0  0.1876131635963106  0.3680036391752281  0.12390649412619584  1.0000
  H   H9        1.0  0.8550454341512365  0.28052504923358157  0.5830130752927971  1.0000
  H   H10       1.0  0.14494932732181812  0.7194765707321197  0.4169882235431927  1.0000
  H   H11       1.0  0.8133819337300209  0.408627107515855  0.17848999039657804  1.0000
  H   H12       1.0  0.1866255781070905  0.5913708579817795  0.8215101321896581  1.0000
  H   H13       1.0  0.8255414135179111  0.9026365508723158  0.3827166168899438  1.0000
  H   H14       1.0  0.17446965894166064  0.09736389507335728  0.617281803107808  1.0000
  H   H15       1.0  0.5697119739870974  0.09636091188999528  0.6112226550587819  1.0000
  H   H16       1.0  0.4302875756938534  0.9036370188769992  0.38876989764429487  1.0000
  H   H17       1.0  0.4508053558546409  0.7167839783463846  0.13848826234056597  1.0000
  H   H18       1.0  0.5491880951137208  0.283210235233227  0.8615173056465008  1.0000
  H   H19       1.0  0.7848473234040015  0.09368538867364148  0.9689258894156649  1.0000
  H   H20       1.0  0.2151451803018746  0.9063137582680837  0.031081217816222285  1.0000
  C   C1        1.0  0.6587352104469417  0.6304096571449377  0.7096552760644883  1.0000
  C   C2        1.0  0.341263343630061  0.3695932102553884  0.2903445042038512  1.0000
  C   C3        1.0  0.7836308719117826  0.5769216674938562  0.7906338081481292  1.0000
  C   C4        1.0  0.21637015257726946  0.4230824412255317  0.20936262307331785  1.0000
  C   C5        1.0  0.8084247443267006  0.39244557827429816  0.6380926899455729  1.0000
  C   C6        1.0  0.1915713393382391  0.6075560478069589  0.36191043936965167  1.0000
  C   C7        1.0  0.7827814064436044  0.29747145456703084  0.26498563877301246  1.0000
  C   C8        1.0  0.2172253997807943  0.7025302106250706  0.7350150694147999  1.0000
  C   C9        1.0  0.7867065568427664  0.0351318364536297  0.37597199734982206  1.0000
  C   C10       1.0  0.21330230619110335  0.9648661331968423  0.6240265427233922  1.0000
  C   C11       1.0  0.6593250726636486  0.13186430957661344  0.4874121536796493  1.0000
  C   C12       1.0  0.3406768990878889  0.8681348657806679  0.5125827382969774  1.0000
  C   C13       1.0  0.7642802091729382  0.7776422202708558  0.13507816265050113  1.0000
  C   C14       1.0  0.235714167702426  0.22235446087141494  0.8649209041255115  1.0000
  C   C15       1.0  0.6306115836838588  0.8934471976466156  0.061758493778114695  1.0000
  C   C16       1.0  0.36938431835996993  0.1065482585605508  0.9382460004902382  1.0000
  C   C17       1.0  0.4702134843048074  0.8415289646553887  0.07785086973805726  1.0000
  C   C18       1.0  0.5297765876621982  0.15846893835028908  0.9221550358843728  1.0000
  C   C19       1.0  0.6602145599431639  0.052936507009100395  0.982222795007459  1.0000
  C   C20       1.0  0.3397792949594845  0.9470626440854489  0.017782729711406466  1.0000
  N   N1        1.0  0.6746044227933442  0.513342379976834  0.6150292959599353  1.0000
  N   N2        1.0  0.3253914385584198  0.48666047846359106  0.3849725116703624  1.0000
  N   N3        1.0  0.876447834161745  0.4268466854655273  0.7438169919231398  1.0000
  N   N4        1.0  0.12355229342519185  0.5731549537284691  0.2561825275170975  1.0000
  N   N5        1.0  0.6586627695573599  0.2954806273773868  0.41609446515234777  1.0000
  N   N6        1.0  0.3413378509974054  0.7045185438270636  0.5839020093373009  1.0000
  N   N7        1.0  0.8624371471069596  0.14225433464513054  0.23712259725588328  1.0000
  N   N8        1.0  0.13757257415584698  0.8577461071477115  0.7628774052548976  1.0000
  O   O1        1.0  0.7109620233567996  0.6560648362196417  0.24028669778409295  1.0000
  O   O2        1.0  0.2890378936041389  0.34393063506298915  0.7597175996015294  1.0000
  O   O3        1.0  0.9276537177550499  0.8093451811171803  0.08649132055088406  1.0000
  O   O4        1.0  0.07234980816983955  0.1906527673422573  0.9135055859258256  1.0000
