data_image0
_chemical_formula_structural       CuH8C14N6O2
_chemical_formula_sum              "Cu1 H8 C14 N6 O2"
_cell_length_a       4.225207723150598
_cell_length_b       6.941620614601232
_cell_length_c       11.381563407567459
_cell_angle_alpha    91.76636595694409
_cell_angle_beta     89.73950026672557
_cell_angle_gamma    101.34048000847599

_space_group_name_H-M_alt    "P 1"
_space_group_IT_number       1

loop_
  _space_group_symop_operation_xyz
  'x, y, z'

loop_
  _atom_site_type_symbol
  _atom_site_label
  _atom_site_symmetry_multiplicity
  _atom_site_fract_x
  _atom_site_fract_y
  _atom_site_fract_z
  _atom_site_occupancy
  Cu  Cu1       1.0  1.4098312902877389e-05  0.4999960342432458  0.4999988230423539  1.0000
  H   H1        1.0  0.8835407939572093  0.950019132321735  0.0810769052008524  1.0000
  H   H2        1.0  0.11645165121396421  0.04998272271450329  0.9189232091064383  1.0000
  H   H3        1.0  0.6956718955584763  0.0700054127651413  0.2754932400441206  1.0000
  H   H4        1.0  0.3043201035416134  0.9299876262147891  0.7245067459873837  1.0000
  H   H5        1.0  0.7479437933075985  0.8777565418249506  0.4541081880738388  1.0000
  H   H6        1.0  0.2520567973317114  0.12224089618845106  0.5458892504326867  1.0000
  H   H7        1.0  0.14782400653484734  0.657240244429275  0.07620514914785298  1.0000
  H   H8        1.0  0.8521850712988837  0.3427689601769046  0.9237924837112174  1.0000
  C   C1        1.0  0.2445995304147743  0.44843971895826223  0.2713633847062056  1.0000
  C   C2        1.0  0.7554036296783411  0.5515666029816089  0.7286420975123915  1.0000
  C   C3        1.0  0.08224010469022863  0.6139743910923697  0.26276029285469343  1.0000
  C   C4        1.0  0.9177749755014092  0.38603192718577617  0.7372425881942063  1.0000
  C   C5        1.0  0.9130956619739481  0.874425636733804  0.16140139223190889  1.0000
  C   C6        1.0  0.0868941551901088  0.1255600096932099  0.8385932087796772  1.0000
  C   C7        1.0  0.8068344295557638  0.9414301032337844  0.26834838718801274  1.0000
  C   C8        1.0  0.19316577356577372  0.058565843406064695  0.7316463926263593  1.0000
  C   C9        1.0  0.8382677042058193  0.8375028400987431  0.3688062438016288  1.0000
  C   C10       1.0  0.16172438059727065  0.16249751641785076  0.6311903330978551  1.0000
  C   C11       1.0  0.05441513678611189  0.7094677009000205  0.15804676255918074  1.0000
  C   C12       1.0  0.9455887552628113  0.2905253415642903  0.8419515010182719  1.0000
  C   C13       1.0  0.377978451288513  0.3639984673320456  0.17292452360035065  1.0000
  C   C14       1.0  0.6220295757588801  0.6360004870130352  0.827077352015969  1.0000
  N   N1        1.0  0.28177195230570357  0.3864671156279868  0.37956585714118046  1.0000
  N   N2        1.0  0.7182269141447719  0.6135406762826178  0.6204405123473719  1.0000
  N   N3        1.0  0.969794261351396  0.6764715459404299  0.36618131491518097  1.0000
  N   N4        1.0  0.030209088789518983  0.32353472597677063  0.6338180162938726  1.0000
  N   N5        1.0  0.48482382402689694  0.2876685454227895  0.09319160162978327  1.0000
  N   N6        1.0  0.5151721743232329  0.7123304411683832  0.9068163900188323  1.0000
  O   O1        1.0  0.46026056670557136  0.26222982826109836  0.3982736505490578  1.0000
  O   O2        1.0  0.5397485111281668  0.7377793763450883  0.6017239823100126  1.0000
