data_image0
_chemical_formula_structural       Zn4H28C96Br8N4O16F16
_chemical_formula_sum              "Zn4 H28 C96 Br8 N4 O16 F16"
_cell_length_a       21.537171805012157
_cell_length_b       21.67215807115923
_cell_length_c       22.12477543883021
_cell_angle_alpha    60.72945032250949
_cell_angle_beta     63.50565618851766
_cell_angle_gamma    89.99812879200863

_space_group_name_H-M_alt    "P 1"
_space_group_IT_number       1

loop_
  _space_group_symop_operation_xyz
  'x, y, z'

loop_
  _atom_site_type_symbol
  _atom_site_label
  _atom_site_symmetry_multiplicity
  _atom_site_fract_x
  _atom_site_fract_y
  _atom_site_fract_z
  _atom_site_occupancy
  Zn  Zn1       1.0  0.5383515589005228  0.0418832303199608  0.916130796743019  1.0000
  Zn  Zn2       1.0  0.4617183128940996  0.9581796779561815  0.08375844687083829  1.0000
  Zn  Zn3       1.0  0.9616736193698971  0.45804540208619937  0.0838736471980964  1.0000
  Zn  Zn4       1.0  0.03829127547719221  0.5418046262479876  0.9162165711477995  1.0000
  H   H1        1.0  0.8230135888538896  0.25146147494591287  0.4968096816733408  1.0000
  H   H2        1.0  0.6769383845858669  0.24853614415680175  0.5031959364381037  1.0000
  H   H3        1.0  0.17704433068497852  0.7484600992040171  0.5029860822048775  1.0000
  H   H4        1.0  0.32296254540921865  0.7515394248572776  0.4969991816738283  1.0000
  H   H5        1.0  0.5799991130780456  0.07401108841741429  0.12981367446511882  1.0000
  H   H6        1.0  0.6156942990260533  0.10666298552761332  0.20483937669040136  1.0000
  H   H7        1.0  0.6971128353717901  0.20252089521070357  0.8714974492065579  1.0000
  H   H8        1.0  0.9199383209590195  0.4261890284808628  0.8700437261318897  1.0000
  H   H9        1.0  0.8842515171308919  0.3935295712280934  0.795008043923687  1.0000
  H   H10       1.0  0.8028255122548772  0.2976535253426036  0.12835678817984328  1.0000
  H   H11       1.0  0.30152557234465865  0.7956814978657505  0.12994685963990774  1.0000
  H   H12       1.0  0.19741532363811132  0.6877607769409764  0.2049081251455147  1.0000
  H   H13       1.0  0.42021428162254887  0.9261270449365002  0.8716406769945516  1.0000
  H   H14       1.0  0.19896391921606954  0.7037682514856057  0.8700384725614255  1.0000
  H   H15       1.0  0.3033114315309504  0.8115723245896191  0.795023395154068  1.0000
  H   H16       1.0  0.08030690231534275  0.5733658676033643  0.12835173760720398  1.0000
  H   H17       1.0  0.30104915082083045  0.07422489102298611  0.13007887312987523  1.0000
  H   H18       1.0  0.19643332433139452  0.10690901946462363  0.20494701588511077  1.0000
  H   H19       1.0  0.4205576426619401  0.20226320915773502  0.8717615645669169  1.0000
  H   H20       1.0  0.19866700714376861  0.42551605848080243  0.8698298205439057  1.0000
  H   H21       1.0  0.3032251890290071  0.392790431305862  0.7949532319947961  1.0000
  H   H22       1.0  0.07917180630743563  0.2975194835788315  0.12813387841308088  1.0000
  H   H23       1.0  0.5793436936084221  0.7957747955198685  0.12986794734535995  1.0000
  H   H24       1.0  0.6146090805427421  0.6877837326446754  0.20499263637314133  1.0000
  H   H25       1.0  0.6967789088690142  0.9252162889053185  0.8715487387342828  1.0000
  H   H26       1.0  0.9191363673322358  0.7025957085912109  0.8703413471897221  1.0000
  H   H27       1.0  0.8832422142947964  0.8098831679584892  0.795246858723658  1.0000
  H   H28       1.0  0.8016409153341473  0.5729696556580353  0.12866886872104977  1.0000
  C   C1        1.0  0.4143099658773367  0.9140810553729821  0.0008676360488945455  1.0000
  C   C2        1.0  0.4143699181795242  0.0851215530811302  0.0010177489096462858  1.0000
  C   C3        1.0  0.5849668312662575  0.08510811851249402  0.0007402256478953389  1.0000
  C   C4        1.0  0.5846973651152113  0.91382369223539  0.0007793625659357987  1.0000
  C   C5        1.0  0.08548937376068722  0.41473617466800766  0.998870838140483  1.0000
  C   C6        1.0  0.08590255651414219  0.5856405135549849  0.9991496106204494  1.0000
  C   C7        1.0  0.9147510631957377  0.5854878213861171  0.999356428498018  1.0000
  C   C8        1.0  0.91498803239665  0.41497597756136173  0.999164510930406  1.0000
  C   C9        1.0  0.8295821916671005  0.3719550815590794  0.25623983314706295  1.0000
  C   C10       1.0  0.788485726068892  0.3300674894883855  0.34009926692920783  1.0000
  C   C11       1.0  0.8220336646427172  0.3067791017065389  0.3864384107131753  1.0000
  C   C12       1.0  0.8982254777069305  0.32937627036444894  0.34087512571296924  1.0000
  C   C13       1.0  0.9352440159919198  0.3713176447191273  0.2569608796545281  1.0000
  C   C14       1.0  0.7862028784509862  0.26301542770184483  0.4738977802870321  1.0000
  C   C15       1.0  0.7137462516160655  0.23698324560034226  0.5261117279475369  1.0000
  C   C16       1.0  0.601734571798609  0.1705857406455493  0.6591325460826737  1.0000
  C   C17       1.0  0.6779228265187529  0.1932064321193465  0.6135709745379925  1.0000
  C   C18       1.0  0.7114729472766755  0.1699164467557566  0.6599058657600521  1.0000
  C   C19       1.0  0.6703729903564907  0.12799056182267068  0.7437627553064915  1.0000
  C   C20       1.0  0.5647140028495272  0.1286076964649041  0.7430460157592123  1.0000
  C   C21       1.0  0.17044694573798583  0.6282616611744344  0.7434450747415793  1.0000
  C   C22       1.0  0.21156203699963783  0.6701460736326723  0.6596265837696221  1.0000
  C   C23       1.0  0.17797526347298032  0.6932574622829719  0.6133561878086764  1.0000
  C   C24       1.0  0.10181485839003561  0.6705404528002674  0.6588627023514346  1.0000
  C   C25       1.0  0.0648344375648406  0.6286191045486477  0.7427460962854083  1.0000
  C   C26       1.0  0.2137736351994591  0.7369752187228189  0.5259939535420268  1.0000
  C   C27       1.0  0.28623374549822966  0.7630281348124015  0.4739915429233503  1.0000
  C   C28       1.0  0.39819324128230005  0.8294848592741959  0.3411170770467531  1.0000
  C   C29       1.0  0.32203298464826  0.8067530090645932  0.3866291866646348  1.0000
  C   C30       1.0  0.2884399615359997  0.8298604997539984  0.3403651324076405  1.0000
  C   C31       1.0  0.3295502156908441  0.8717597132636854  0.2565448921436227  1.0000
  C   C32       1.0  0.4351664838594048  0.8714374322951387  0.257231958740071  1.0000
  C   C33       1.0  0.6239574484970377  0.12063915879306822  0.07340583922141522  1.0000
  C   C34       1.0  0.6694807013949886  0.1661936463698055  0.07410225129672901  1.0000
  C   C35       1.0  0.6596020743171424  0.15317208966770582  0.14824376911989395  1.0000
  C   C36       1.0  0.6903365499167933  0.19340796165218418  0.9272532577734651  1.0000
  C   C37       1.0  0.7371179648514855  0.24037063291090993  0.9250278053241701  1.0000
  C   C38       1.0  0.7957746966849727  0.30224736064104013  0.8516850495541561  1.0000
  C   C39       1.0  0.8759654384203088  0.37956648948969013  0.926446622931401  1.0000
  C   C40       1.0  0.8304279541054741  0.33402845177216983  0.9257481115140606  1.0000
  C   C41       1.0  0.8403176328481338  0.3470390567478105  0.8516065593876049  1.0000
  C   C42       1.0  0.809583264634462  0.3067707998788975  0.07260510033067646  1.0000
  C   C43       1.0  0.7627831720182315  0.2598427067779952  0.07482270308026517  1.0000
  C   C44       1.0  0.7041528376478469  0.19795442227258772  0.1481704024760688  1.0000
  C   C45       1.0  0.6342216029239014  0.13420914792401112  0.0005973641248642862  1.0000
  C   C46       1.0  0.7269305991335032  0.2270406577860058  0.9995050088427603  1.0000
  C   C47       1.0  0.8657087904846748  0.3659492770208957  0.9992683113921289  1.0000
  C   C48       1.0  0.7729523705329698  0.27319955435375226  0.0003415244282293144  1.0000
  C   C49       1.0  0.3091025777016442  0.8055892239463559  0.07351124031573149  1.0000
  C   C50       1.0  0.26302892181375637  0.759263131111922  0.07418768642185798  1.0000
  C   C51       1.0  0.2052057587064624  0.6979988643563287  0.14828907859076398  1.0000
  C   C52       1.0  0.37616577778700133  0.8792888650503343  0.9273739537885034  1.0000
  C   C53       1.0  0.33148001785146886  0.8345077482256685  0.9251314068617089  1.0000
  C   C54       1.0  0.33987899526849225  0.8461173670449185  0.8517561186700745  1.0000
  C   C55       1.0  0.1914676451855541  0.6938174509548745  0.9264556202980428  1.0000
  C   C56       1.0  0.2376692368244805  0.7400502230737445  0.9257483061907761  1.0000
  C   C57       1.0  0.29549408336819033  0.8013401974082442  0.8516489535993512  1.0000
  C   C58       1.0  0.12440708380034242  0.620145157673818  0.07259511573974456  1.0000
  C   C59       1.0  0.16918609667096973  0.6648543010861873  0.0748080230587076  1.0000
  C   C60       1.0  0.16077628738446492  0.6532814661489041  0.14817375241776165  1.0000
  C   C61       1.0  0.36527356157466784  0.865011395258314  0.0007325877514287271  1.0000
  C   C62       1.0  0.2737199208796213  0.773162098354483  0.9995727169774398  1.0000
  C   C63       1.0  0.13519099474319773  0.6344865103572347  0.9992551832846956  1.0000
  C   C64       1.0  0.22699989777355262  0.7261469429248989  0.00035643912512745994  1.0000
  C   C65       1.0  0.30872986087309334  0.1207047347498644  0.07362499700248996  1.0000
  C   C66       1.0  0.26247715376808156  0.16619175105739004  0.07422788626138287  1.0000
  C   C67       1.0  0.20435095979868123  0.1532644553203966  0.1482944323871749  1.0000
  C   C68       1.0  0.3762398677168903  0.1932091852262019  0.9274869034514595  1.0000
  C   C69       1.0  0.33138641806419866  0.24006100946316172  0.9251760376428421  1.0000
  C   C70       1.0  0.33989776631442237  0.30174993141934453  0.8517714156344808  1.0000
  C   C71       1.0  0.19096079728558382  0.37901435750329426  0.9262806007494999  1.0000
  C   C72       1.0  0.23720685449362122  0.3335236063501767  0.9256687803519271  1.0000
  C   C73       1.0  0.2953363571181741  0.3464574705436122  0.8516022246789985  1.0000
  C   C74       1.0  0.12344343601286317  0.3065076646408827  0.07242382519366682  1.0000
  C   C75       1.0  0.1682720701657132  0.25962861483073846  0.07472163384399268  1.0000
  C   C76       1.0  0.15974809549144456  0.19793312774826433  0.14812620818100436  1.0000
  C   C77       1.0  0.365195539805825  0.1341741806379133  0.0008692562036785378  1.0000
  C   C78       1.0  0.27328697015106224  0.22682348616811504  0.999584724458856  1.0000
  C   C79       1.0  0.1345364612838722  0.3655755827218954  0.9990338730070151  1.0000
  C   C80       1.0  0.22637528360905182  0.2728743737609917  0.0003105966792773903  1.0000
  C   C81       1.0  0.6232399873306848  0.8053571465473653  0.07348315163785167  1.0000
  C   C82       1.0  0.6685111796271102  0.7588469823597207  0.0742385508189471  1.0000
  C   C83       1.0  0.6584958591668768  0.6977509656259573  0.1484001773103072  1.0000
  C   C84       1.0  0.6897884531422707  0.878519491972675  0.9273324228588391  1.0000
  C   C85       1.0  0.736362180090268  0.8335505581617256  0.9251630611768744  1.0000
  C   C86       1.0  0.7950074109691913  0.8448323042359931  0.851845651596342  1.0000
  C   C87       1.0  0.8749981788690991  0.6927439209825013  0.9267416081497896  1.0000
  C   C88       1.0  0.829326694382253  0.7388472547790529  0.9260046499873836  1.0000
  C   C89       1.0  0.8393325634454174  0.7999116185272754  0.8518340311426439  1.0000
  C   C90       1.0  0.8084661510173066  0.619534531458861  0.0728885114254038  1.0000
  C   C91       1.0  0.7615169433336749  0.6641350539045308  0.07506645389410227  1.0000
  C   C92       1.0  0.7028708563990236  0.6528633486748632  0.1483663778322535  1.0000
  C   C93       1.0  0.633724154804007  0.8646203770832842  0.0006373020703021055  1.0000
  C   C94       1.0  0.7259331028513503  0.7723637928888749  0.9996831629673578  1.0000
  C   C95       1.0  0.864842645228656  0.6337879146268719  0.9995683078760677  1.0000
  C   C96       1.0  0.7717943275744477  0.7252039713483642  0.0005643219138773549  1.0000
  Br  Br1       1.0  0.6872828721542706  0.17701956221196724  0.24953652039759072  1.0000
  Br  Br2       1.0  0.8127107231086728  0.3231137242311988  0.7503233140438965  1.0000
  Br  Br3       1.0  0.08515250156090563  0.5726130339462969  0.24949002712544624  1.0000
  Br  Br4       1.0  0.4154742798005558  0.9268693552367467  0.7504596296837818  1.0000
  Br  Br5       1.0  0.08370167562709703  0.17714899047768282  0.24940141505604166  1.0000
  Br  Br6       1.0  0.4159431593891299  0.32250539467646183  0.7505156287724046  1.0000
  Br  Br7       1.0  0.6858386314143204  0.572525046845172  0.2497710155731736  1.0000
  Br  Br8       1.0  0.8121775230648963  0.9252928880474086  0.7504183050603715  1.0000
  N   N1        1.0  0.9015537399641218  0.3923411413359261  0.21520194726969777  1.0000
  N   N2        1.0  0.5984034766959853  0.10757926864886261  0.7848053644700244  1.0000
  N   N3        1.0  0.09854202215493763  0.607778857262744  0.7844154758741978  1.0000
  N   N4        1.0  0.40145420789933445  0.8922737883605052  0.21556824667536012  1.0000
  O   O1        1.0  0.4644409097107601  0.9673417575208849  0.9324570111769286  1.0000
  O   O2        1.0  0.40185092600828654  0.8985949437236513  0.06943398280571936  1.0000
  O   O3        1.0  0.40181157970833686  0.03205672632545029  0.06958809625962908  1.0000
  O   O4        1.0  0.4646743672688986  0.1003634495159034  0.9325986187625973  1.0000
  O   O5        1.0  0.5347137867636037  0.03204139269885079  0.06933956809294982  1.0000
  O   O6        1.0  0.5973386016915043  0.10027529886115621  0.9323572602057694  1.0000
  O   O7        1.0  0.5970818249822544  0.9669604306753784  0.9323977229118369  1.0000
  O   O8        1.0  0.5345772981528115  0.8985277274444458  0.06938378110152808  1.0000
  O   O9        1.0  0.03528780103616213  0.3995926863203679  0.06729949661991688  1.0000
  O   O10       1.0  0.09802861615575865  0.4677703053391157  0.9303046913584224  1.0000
  O   O11       1.0  0.09832053699997806  0.6011397061840783  0.9305897894821911  1.0000
  O   O12       1.0  0.0356376820563753  0.5325297448137789  0.0675700889599894  1.0000
  O   O13       1.0  0.9652674964403122  0.6012339311345657  0.9307274413970954  1.0000
  O   O14       1.0  0.90269694084288  0.5326452207529044  0.0677139743465316  1.0000
  O   O15       1.0  0.9026734777107422  0.3996996674819187  0.06756357437365074  1.0000
  O   O16       1.0  0.96520174868094  0.46808365422883474  0.9305763070696143  1.0000
  F   F1        1.0  0.007127265048666234  0.39162211605787434  0.21608794709634777  1.0000
  F   F2        1.0  0.9364881928203349  0.31040648655656616  0.3784843133590028  1.0000
  F   F3        1.0  0.7960083589932838  0.39299495095458076  0.2144311551733081  1.0000
  F   F4        1.0  0.715855130616511  0.3126537611335892  0.3752830395353682  1.0000
  F   F5        1.0  0.7841051994536201  0.18735374957586265  0.624718824477995  1.0000
  F   F6        1.0  0.7039377795613078  0.1069286784849552  0.7855825692168851  1.0000
  F   F7        1.0  0.5634731539319376  0.18954678474138123  0.6215215069211054  1.0000
  F   F8        1.0  0.4928330978112002  0.10827104207191242  0.7839148430329529  1.0000
  F   F9        1.0  0.9929162705642867  0.6082230660403384  0.7835308985025049  1.0000
  F   F10       1.0  0.0635926060448639  0.6893659078193936  0.6211827240624285  1.0000
  F   F11       1.0  0.20414315941157216  0.6073875007361593  0.7851634053458835  1.0000
  F   F12       1.0  0.2842255474870044  0.687709899546718  0.6244327209066467  1.0000
  F   F13       1.0  0.21577690136883382  0.8122790930204858  0.3755648515523899  1.0000
  F   F14       1.0  0.2958497369676892  0.892614120093441  0.2148309553507769  1.0000
  F   F15       1.0  0.4364192340271844  0.8106578134136913  0.3787921285939857  1.0000
  F   F16       1.0  0.5070844454800184  0.8918926820235245  0.21643214098354924  1.0000
