data_image0
_chemical_formula_structural       Eu4H96C96N24O48
_chemical_formula_sum              "Eu4 H96 C96 N24 O48"
_cell_length_a       15.931378103355815
_cell_length_b       15.931379437828825
_cell_length_c       16.422329016003918
_cell_angle_alpha    89.9999312880141
_cell_angle_beta     90.00006820206309
_cell_angle_gamma    120.00008412525098

_space_group_name_H-M_alt    "P 1"
_space_group_IT_number       1

loop_
  _space_group_symop_operation_xyz
  'x, y, z'

loop_
  _atom_site_type_symbol
  _atom_site_label
  _atom_site_symmetry_multiplicity
  _atom_site_fract_x
  _atom_site_fract_y
  _atom_site_fract_z
  _atom_site_occupancy
  Eu  Eu1       1.0  0.33333332940072324  0.6666667328605628  0.33396217984606835  1.0000
  Eu  Eu2       1.0  0.6666669949992257  0.33333312477045496  0.166038150314435  1.0000
  Eu  Eu3       1.0  0.6666668357945299  0.333333279330198  0.6660378758099553  1.0000
  Eu  Eu4       1.0  0.3333331701960276  0.6666668874203057  0.8339619053415815  1.0000
  H   H1        1.0  0.9082250830843323  0.3394802334009556  0.30343658064357726  1.0000
  H   H2        1.0  0.6605194379139192  0.5687454776808638  0.30343630459017124  1.0000
  H   H3        1.0  0.4312555443158743  0.09177457908371889  0.30343644947954834  1.0000
  H   H4        1.0  0.3394806917493157  0.9082257856534854  0.19656374846066876  1.0000
  H   H5        1.0  0.568745347851049  0.6605195533327334  0.19656402459268207  1.0000
  H   H6        1.0  0.09177477118212354  0.431255296230127  0.19656388271401679  1.0000
  H   H7        1.0  0.09177409201998918  0.6605195134949613  0.6965634750120203  1.0000
  H   H8        1.0  0.3394803648832793  0.4312548969078947  0.6965637510654261  1.0000
  H   H9        1.0  0.5687446208793859  0.9082254331070417  0.6965636061764683  1.0000
  H   H10       1.0  0.6605194734459374  0.09177422653727528  0.8034363071953479  1.0000
  H   H11       1.0  0.431254817344204  0.3394804588580201  0.8034360310633346  1.0000
  H   H12       1.0  0.9082253940131366  0.5687447159606337  0.8034361729419996  1.0000
  H   H13       1.0  0.00982565783166927  0.324246262514528  0.32066200806807627  1.0000
  H   H14       1.0  0.6757541184965207  0.6855798770762789  0.3206621821922511  1.0000
  H   H15       1.0  0.31442019565891854  0.9901740755766043  0.32066179684332496  1.0000
  H   H16       1.0  0.3242467696786449  0.009826460140082878  0.17933771600346662  1.0000
  H   H17       1.0  0.6855797596135462  0.6757542389213145  0.17933814642766777  1.0000
  H   H18       1.0  0.9901740124187625  0.31442037355157754  0.17933792309140978  1.0000
  H   H19       1.0  0.9901735172724032  0.6757534843816375  0.6793374386604968  1.0000
  H   H20       1.0  0.32424604669873963  0.3144201351144816  0.6793378734637725  1.0000
  H   H21       1.0  0.68557960713828  0.009826299012146985  0.6793382588122723  1.0000
  H   H22       1.0  0.6757533955166152  0.9901735520506778  0.8206623396525501  1.0000
  H   H23       1.0  0.31442004318365246  0.324246135667444  0.8206619092279368  1.0000
  H   H24       1.0  0.009826152776497767  0.6855796386391761  0.8206621325646067  1.0000
  H   H25       1.0  0.2547940293906733  0.7482340081161283  0.5145881114682423  1.0000
  H   H26       1.0  0.2517660627957952  0.5065596991487169  0.5145876412022261  1.0000
  H   H27       1.0  0.4934401162273831  0.745206266071229  0.5145876419309942  1.0000
  H   H28       1.0  0.7482343294426388  0.2547937865117974  0.9854122785978275  1.0000
  H   H29       1.0  0.5065599936277039  0.251765806708825  0.9854121409798535  1.0000
  H   H30       1.0  0.7452055835909803  0.4934395812057204  0.9854121382033225  1.0000
  H   H31       1.0  0.7452061358045797  0.251766004074625  0.4854119441877741  1.0000
  H   H32       1.0  0.7482341023994579  0.49344031304204367  0.4854124144537906  1.0000
  H   H33       1.0  0.5065596865698154  0.2547941085175225  0.48541241372460314  1.0000
  H   H34       1.0  0.2517658357526215  0.7452062256789632  0.014587777058188997  1.0000
  H   H35       1.0  0.49344017156755643  0.7482342054819358  0.014587914676162897  1.0000
  H   H36       1.0  0.2547939539114026  0.5065598032921984  0.014587917452701  1.0000
  H   H37       1.0  0.9054967537287129  0.5914791843435625  0.43971308366928236  1.0000
  H   H38       1.0  0.40852071324098205  0.3140177979525093  0.4397135671816343  1.0000
  H   H39       1.0  0.6859827644878325  0.09450313792810772  0.439713245804107  1.0000
  H   H40       1.0  0.5914790445889228  0.9054968443018513  0.06028663544543628  1.0000
  H   H41       1.0  0.31401765503801476  0.40852084381842974  0.060286764161112685  1.0000
  H   H42       1.0  0.09450331731876822  0.6859824893450864  0.060286476365043  1.0000
  H   H43       1.0  0.09450341146654058  0.4085208278471983  0.5602869719867415  1.0000
  H   H44       1.0  0.5914790895562165  0.6859825766362421  0.560286488473963  1.0000
  H   H45       1.0  0.3140174007074209  0.9054968742626529  0.5602868098519095  1.0000
  H   H46       1.0  0.4085211206063307  0.09450316788890945  0.9397134202105804  1.0000
  H   H47       1.0  0.6859825101572453  0.5914791683723309  0.9397132914949038  1.0000
  H   H48       1.0  0.9054968478764851  0.3140175228456671  0.9397135792909806  1.0000
  H   H49       1.0  0.15200273311276657  0.8114166150511368  0.5702957046328336  1.0000
  H   H50       1.0  0.18858331013877458  0.3405856057129385  0.5702959992715152  1.0000
  H   H51       1.0  0.6594138706813909  0.8479980455003259  0.5702959760113585  1.0000
  H   H52       1.0  0.8114165873219719  0.1520028681824289  0.929704076674625  1.0000
  H   H53       1.0  0.3405858856966972  0.18858305232905095  0.9297037838873405  1.0000
  H   H54       1.0  0.8479979934181473  0.6594139510776318  0.9297038029773503  1.0000
  H   H55       1.0  0.8479974320824937  0.18858339713962394  0.4297043510231831  1.0000
  H   H56       1.0  0.8114162273633598  0.6594137787852293  0.4297034474574843  1.0000
  H   H57       1.0  0.3405859321158077  0.15200232908843253  0.4297040796442387  1.0000
  H   H58       1.0  0.18858357787328148  0.8479971440083249  0.07029597898139879  1.0000
  H   H59       1.0  0.659414279498556  0.8114169598617098  0.07029627176868301  1.0000
  H   H60       1.0  0.15200217177711295  0.3405860611131289  0.07029625267866628  1.0000
  H   H61       1.0  0.9770721790585599  0.7355739974709724  0.5315702923278421  1.0000
  H   H62       1.0  0.26442606678913455  0.2414981420851562  0.5315707773081612  1.0000
  H   H63       1.0  0.7585027252914857  0.022928493812131072  0.5315705803064504  1.0000
  H   H64       1.0  0.7355742770532959  0.9770718548836475  0.9684300947135183  1.0000
  H   H65       1.0  0.24149804398272326  0.26442615698485383  0.9684290059493462  1.0000
  H   H66       1.0  0.022928078285978842  0.7585017579110912  0.9684298107041724  1.0000
  H   H67       1.0  0.02292798613670047  0.2644260147197884  0.4684297633281744  1.0000
  H   H68       1.0  0.7355740984061259  0.7585018701056047  0.4684292783478553  1.0000
  H   H69       1.0  0.2414980675966518  0.9770721460714712  0.46842947534956636  1.0000
  H   H70       1.0  0.2644258881419645  0.022928157307113364  0.03156996094250529  1.0000
  H   H71       1.0  0.7585021212125298  0.7355738552058997  0.0315710497066704  1.0000
  H   H72       1.0  0.9770720869092745  0.2414982542796695  0.03157024495184399  1.0000
  H   H73       1.0  0.9131819517242479  0.4731405339898844  0.36344748230882823  1.0000
  H   H74       1.0  0.5268592220726023  0.4400413752440288  0.36344849659471373  1.0000
  H   H75       1.0  0.5599583369881742  0.08681767840251808  0.3634481119713726  1.0000
  H   H76       1.0  0.4731403798667771  0.9131820340963801  0.13655223727754873  1.0000
  H   H77       1.0  0.44004160147402893  0.5268589833785317  0.136551833706875  1.0000
  H   H78       1.0  0.08681750089190407  0.5599584371922648  0.13655221969430897  1.0000
  H   H79       1.0  0.08681785107295077  0.5268598405988743  0.6365525733467691  1.0000
  H   H80       1.0  0.4731409431226511  0.5599586369467319  0.6365515590613029  1.0000
  H   H81       1.0  0.4400418282070862  0.9131823337882355  0.6365519436846441  1.0000
  H   H82       1.0  0.5268597853284832  0.08681797809438065  0.8634478183784748  1.0000
  H   H83       1.0  0.5599585637212314  0.4731410288122292  0.8634482219491415  1.0000
  H   H84       1.0  0.913182036610472  0.44004094730564713  0.8634478359617075  1.0000
  H   H85       1.0  0.10793732362699159  0.49496288870098953  0.353958704284281  1.0000
  H   H86       1.0  0.5050371645592833  0.6129741957881835  0.35395825580871326  1.0000
  H   H87       1.0  0.38702588679272065  0.8920627267584539  0.35395863453279464  1.0000
  H   H88       1.0  0.494963144464613  0.10793713475526101  0.14604101864181726  1.0000
  H   H89       1.0  0.6129744424853175  0.5050369379104044  0.14604146492174408  1.0000
  H   H90       1.0  0.8920630112704232  0.38702568898025214  0.1460416944381038  1.0000
  H   H91       1.0  0.8920628415682615  0.5050371234897711  0.6460413513717426  1.0000
  H   H92       1.0  0.49496300063572835  0.3870258164028258  0.646041190920279  1.0000
  H   H93       1.0  0.6129742784025325  0.10793728543230695  0.6460414211232217  1.0000
  H   H94       1.0  0.5050370207306402  0.8920628774354927  0.8539590370141993  1.0000
  H   H95       1.0  0.38702572270994307  0.4949630742803493  0.8539585907342726  1.0000
  H   H96       1.0  0.10793715392482998  0.6129743232105087  0.8539583612179129  1.0000
  C   C1        1.0  0.9868026377205369  0.37334004934597714  0.2953220447139485  1.0000
  C   C2        1.0  0.6266594243524184  0.6134620604422168  0.2953223064356294  1.0000
  C   C3        1.0  0.38653772805363934  0.013197200405350908  0.2953219077671108  1.0000
  C   C4        1.0  0.3733402417045113  0.986802343237443  0.20467767498443115  1.0000
  C   C5        1.0  0.6134622998319871  0.6266591835896521  0.20467802270136556  1.0000
  C   C6        1.0  0.013197386150508809  0.3865374804872276  0.20467781602496868  1.0000
  C   C7        1.0  0.01319752747471631  0.6266599628447835  0.704678010942068  1.0000
  C   C8        1.0  0.373340740842842  0.3865379517485437  0.7046777492203873  1.0000
  C   C9        1.0  0.6134624371413651  0.9868028117856584  0.7046775389618746  1.0000
  C   C10       1.0  0.626659923490493  0.013197668953566296  0.7953217717445541  1.0000
  C   C11       1.0  0.3865378653632732  0.37334082860110834  0.795322032954651  1.0000
  C   C12       1.0  0.9868027790447517  0.6134625317035333  0.7953222396310479  1.0000
  C   C13       1.0  0.03845706404543854  0.589306048087373  0.4249351437825197  1.0000
  C   C14       1.0  0.41069387632754234  0.4491511817391683  0.4249354398837895  1.0000
  C   C15       1.0  0.5508487963419599  0.9615432177069398  0.4249352230250736  1.0000
  C   C16       1.0  0.5893059565539148  0.038457251286402594  0.07506518796420639  1.0000
  C   C17       1.0  0.44915105367226005  0.41069401409954764  0.07506489087369772  1.0000
  C   C18       1.0  0.9615431390643111  0.5508489471678576  0.07506449602393418  1.0000
  C   C19       1.0  0.9615427387517602  0.4106943265013786  0.5750649118730776  1.0000
  C   C20       1.0  0.589306288867711  0.5508488304515853  0.5750646157722271  1.0000
  C   C21       1.0  0.44915136885329326  0.03845679448382093  0.575064832630943  1.0000
  C   C22       1.0  0.41069420864133854  0.9615427609043582  0.9249348676918103  1.0000
  C   C23       1.0  0.550849111522993  0.5893059980912129  0.924935164782319  1.0000
  C   C24       1.0  0.03845702613070051  0.44915106502315894  0.924934950705058  1.0000
  C   C25       1.0  0.1401339401294876  0.634506795193694  0.4447021653423207  1.0000
  C   C26       1.0  0.3654935350080918  0.5056273888918099  0.4447023701865404  1.0000
  C   C27       1.0  0.49437264807481557  0.8598658763996954  0.444702847635547  1.0000
  C   C28       1.0  0.6345067031972534  0.1401341187214697  0.0552975568513219  1.0000
  C   C29       1.0  0.5056276322535354  0.3654933187846937  0.05529735159628049  1.0000
  C   C30       1.0  0.8598661521381247  0.49437243730017866  0.055297481015031694  1.0000
  C   C31       1.0  0.8598658626674623  0.36549357939531324  0.5552972813862523  1.0000
  C   C32       1.0  0.6345066301871686  0.4943726232989509  0.5552976854694832  1.0000
  C   C33       1.0  0.5056275171204448  0.14013413579105832  0.5552972080204767  1.0000
  C   C34       1.0  0.36549346199800703  0.8598658934692909  0.9447024988046947  1.0000
  C   C35       1.0  0.4943725329414761  0.6345066934063157  0.9447020951327116  1.0000
  C   C36       1.0  0.14013401305712836  0.5056275748905747  0.944702574640985  1.0000
  C   C37       1.0  0.178163838996575  0.7146074332925779  0.49884671421079213  1.0000
  C   C38       1.0  0.28539271538240035  0.46355657718604004  0.49884692190611435  1.0000
  C   C39       1.0  0.536443272446057  0.8218363448849147  0.498846858538279  1.0000
  C   C40       1.0  0.714607348621918  0.17816401833012221  0.0011530074793170998  1.0000
  C   C41       1.0  0.4635564584397969  0.28539286865604657  0.0011534093240612997  1.0000
  C   C42       1.0  0.8218362521184376  0.536443417737836  0.0011528611676254999  1.0000
  C   C43       1.0  0.8218363261986853  0.2853925788981827  0.5011533414452244  1.0000
  C   C44       1.0  0.7146074498128602  0.5364434350047137  0.5011531337499021  1.0000
  C   C45       1.0  0.46355689274919604  0.17816366730584587  0.5011531971177376  1.0000
  C   C46       1.0  0.2853928165733354  0.8218359938606387  0.9988470481766998  1.0000
  C   C47       1.0  0.5364437067554564  0.714607143534714  0.9988466463319552  1.0000
  C   C48       1.0  0.1781639130765742  0.4635565944531736  0.9988465855613667  1.0000
  C   C49       1.0  0.9815651446766865  0.6271351042895646  0.4570218575937162  1.0000
  C   C50       1.0  0.37286500999483974  0.35443015115248516  0.4570222739097502  1.0000
  C   C51       1.0  0.645570097888161  0.018434843197596352  0.45702201746141907  1.0000
  C   C52       1.0  0.6271349644177847  0.981565228905524  0.0429778610447826  1.0000
  C   C53       1.0  0.3544303773132286  0.372864784586348  0.0429780574131442  1.0000
  C   C54       1.0  0.018434654112546488  0.6455701855580288  0.04297770520380339  1.0000
  C   C55       1.0  0.018435020518566617  0.37286490790119603  0.5429781980623076  1.0000
  C   C56       1.0  0.6271351552004205  0.6455698610382754  0.5429777817462665  1.0000
  C   C57       1.0  0.3544300673070993  0.9815651689931644  0.5429780381945973  1.0000
  C   C58       1.0  0.3728652007774756  0.0184347832852368  0.9570221946112341  1.0000
  C   C59       1.0  0.6455697878820318  0.6271352276044128  0.9570219982428723  1.0000
  C   C60       1.0  0.9815655110824583  0.35442982663298084  0.9570217415251887  1.0000
  C   C61       1.0  0.12036972752543555  0.7498184029385797  0.5287005258234102  1.0000
  C   C62       1.0  0.2501818295403879  0.37055115771546104  0.5287014299606553  1.0000
  C   C63       1.0  0.6294486685541686  0.8796303950825718  0.5287007439989465  1.0000
  C   C64       1.0  0.7498187321080964  0.12036949989413886  0.9712992558818525  1.0000
  C   C65       1.0  0.3705510748117789  0.2501819285357883  0.971298352807487  1.0000
  C   C66       1.0  0.8796307102279287  0.6294483912889676  0.9712990349830759  1.0000
  C   C67       1.0  0.8796304376695758  0.25018160925242966  0.47129892090557485  1.0000
  C   C68       1.0  0.7498179732568105  0.6294492168732974  0.47129862569494907  1.0000
  C   C69       1.0  0.3705508689482074  0.12036898941533995  0.47129931165707  1.0000
  C   C70       1.0  0.2501814330871567  0.8796305122966147  0.028700799774164  1.0000
  C   C71       1.0  0.6294490903834742  0.7498180836549653  0.0287017028485295  1.0000
  C   C72       1.0  0.12036882727445433  0.3705509932089512  0.0287010206729477  1.0000
  C   C73       1.0  0.02148108926192549  0.7068760686684075  0.5076285739386178  1.0000
  C   C74       1.0  0.2931239572013169  0.3146057532467453  0.5076289584992109  1.0000
  C   C75       1.0  0.6853947910683902  0.9785185224970266  0.5076287990093745  1.0000
  C   C76       1.0  0.7068760359866674  0.021481232480631766  0.9923712083707837  1.0000
  C   C77       1.0  0.3146056614860342  0.293124048064442  0.9923708243243538  1.0000
  C   C78       1.0  0.9785184829673528  0.6853948752942502  0.9923709793122554  1.0000
  C   C79       1.0  0.9785187135352729  0.2931243059203439  0.4923714817169866  1.0000
  C   C80       1.0  0.7068758455958817  0.6853946213420062  0.49237109715638633  1.0000
  C   C81       1.0  0.3146053741268631  0.021481489693734115  0.4923712566466491  1.0000
  C   C82       1.0  0.29312412920834413  0.9785187797103774  0.007628238358208299  1.0000
  C   C83       1.0  0.685394503708977  0.706875964126567  0.007628622404638498  1.0000
  C   C84       1.0  0.021481319829597178  0.314605499294757  0.007628467416310499  1.0000
  C   C85       1.0  0.9909082387933807  0.5054387660210511  0.3751364715990348  1.0000
  C   C86       1.0  0.49456106128307215  0.4854696086622783  0.37513680587692727  1.0000
  C   C87       1.0  0.5145312150497362  0.009091463671957555  0.37513648523186294  1.0000
  C   C88       1.0  0.5054386112603027  0.9909083143954548  0.1248632475183697  1.0000
  C   C89       1.0  0.48546984188977405  0.49456082885466673  0.12486352436869198  1.0000
  C   C90       1.0  0.009091642525028535  0.5145309536861336  0.12486323803214822  1.0000
  C   C91       1.0  0.009091298708995109  0.4945606184768609  0.6248635840569888  1.0000
  C   C92       1.0  0.5054391039121809  0.5145304035284753  0.6248632497790891  1.0000
  C   C93       1.0  0.4854689501455171  0.9909085485187962  0.6248635704241536  1.0000
  C   C94       1.0  0.49456092624183173  0.009091070102712805  0.8751361992106296  1.0000
  C   C95       1.0  0.5145303233054791  0.5054391833360941  0.8751365312873245  1.0000
  C   C96       1.0  0.9909085226702248  0.48546905850462735  0.8751368176238683  1.0000
  N   N1        1.0  0.034546600624352705  0.4627681368742742  0.3417478669713744  1.0000
  N   N2        1.0  0.5372319418295888  0.5717783091678825  0.3417480935450071  1.0000
  N   N3        1.0  0.4282218176383594  0.9654533804324716  0.3417478019609845  1.0000
  N   N4        1.0  0.46276803064117905  0.03454678043695488  0.15825185640436254  1.0000
  N   N5        1.0  0.5717785493418506  0.5372317091587463  0.15825223615084377  1.0000
  N   N6        1.0  0.9654533083279162  0.4282219816192169  0.15825191759404328  1.0000
  N   N7        1.0  0.9654529368780234  0.5372312476236375  0.6582521886846492  1.0000
  N   N8        1.0  0.4627682233656644  0.42822170302287804  0.6582519621110092  1.0000
  N   N9        1.0  0.5717783475566521  0.03454663175853769  0.6582516447680006  1.0000
  N   N10       1.0  0.5372317721560195  0.9654535941518038  0.8417481992512421  1.0000
  N   N11       1.0  0.42822161585340285  0.4627683030320144  0.8417478195051726  1.0000
  N   N12       1.0  0.034546494469040616  0.5717783929697903  0.8417475291345226  1.0000
  N   N13       1.0  0.2786662954496606  0.4881082187596277  0.23970704632532147  1.0000
  N   N14       1.0  0.5118918258328551  0.790558280667128  0.23970700511331694  1.0000
  N   N15       1.0  0.20944175200740042  0.7213338166940135  0.2397068709037313  1.0000
  N   N16       1.0  0.4881081007277076  0.27866644844410643  0.2602932848288759  1.0000
  N   N17       1.0  0.7905581833731363  0.5118919697083799  0.26029332375758685  1.0000
  N   N18       1.0  0.7213337286149227  0.20944192581378476  0.26029345955141986  1.0000
  N   N19       1.0  0.7213338697455998  0.5118917934311329  0.7602930093306951  1.0000
  N   N20       1.0  0.4881079769643436  0.20944209392162363  0.7602930505422802  1.0000
  N   N21       1.0  0.7905584131878528  0.27866619549674715  0.7602931847522851  1.0000
  N   N22       1.0  0.5118920644675526  0.7213335637466545  0.7397067708271406  1.0000
  N   N23       1.0  0.2094416194240623  0.48810840488037854  0.7397067318980105  1.0000
  N   N24       1.0  0.2786660741822758  0.7905584487749737  0.7397065961041775  1.0000
  O   O1        1.0  0.19446137980147443  0.6021624224489985  0.4139337416689841  1.0000
  O   O2        1.0  0.39783777168427287  0.5922987358754385  0.4139338646897385  1.0000
  O   O3        1.0  0.4077012966127286  0.805538578132243  0.41393374649067727  1.0000
  O   O4        1.0  0.6021616958127538  0.19446092252842828  0.08606598043095198  1.0000
  O   O5        1.0  0.592298986827622  0.39783755641728674  0.08606646551280758  1.0000
  O   O6        1.0  0.8055388523695657  0.4077010921963124  0.08606597383387542  1.0000
  O   O7        1.0  0.8055387853937789  0.39783758974176214  0.5860663139870325  1.0000
  O   O8        1.0  0.6021623935109802  0.40770127631532205  0.5860661909662781  1.0000
  O   O9        1.0  0.5922988685825247  0.19446143405851773  0.5860663091653464  1.0000
  O   O10       1.0  0.3978374792913184  0.8055388243677372  0.9139334662976211  1.0000
  O   O11       1.0  0.4077011783676385  0.6021624557734743  0.913933590143209  1.0000
  O   O12       1.0  0.19446131282568765  0.5922989199944412  0.9139340818221413  1.0000
  O   O13       1.0  0.22973827934345792  0.4875363712332829  0.3020209569199607  1.0000
  O   O14       1.0  0.5124624026597573  0.7422014498816978  0.3020209720165213  1.0000
  O   O15       1.0  0.257798639564534  0.7702617896055771  0.30202080884573945  1.0000
  O   O16       1.0  0.48753625645868953  0.22973843835470129  0.1979787655182008  1.0000
  O   O17       1.0  0.7422013477287523  0.5124625443397836  0.1979793570580739  1.0000
  O   O18       1.0  0.7702617048642324  0.25779881128681137  0.1979789122677076  1.0000
  O   O19       1.0  0.7702618858517952  0.5124636409574777  0.697979098736063  1.0000
  O   O20       1.0  0.4875374001374412  0.25779892470705335  0.6979790836390835  1.0000
  O   O21       1.0  0.742200897937842  0.2297375948923347  0.6979792468102841  1.0000
  O   O22       1.0  0.512463546338509  0.7702619362340573  0.8020212901373966  1.0000
  O   O23       1.0  0.25779881746674965  0.48753746785072144  0.8020213075249742  1.0000
  O   O24       1.0  0.22973783263815056  0.7422005732111078  0.8020211433883091  1.0000
  O   O25       1.0  0.35550657338909303  0.5695118215435004  0.22354063968111854  1.0000
  O   O26       1.0  0.4304885767185026  0.7859964754374573  0.22353994822465484  1.0000
  O   O27       1.0  0.21400559646008335  0.6444936570839915  0.22353990558564618  1.0000
  O   O28       1.0  0.5695117081543731  0.35550672220631463  0.2764596907985677  1.0000
  O   O29       1.0  0.7859957543531666  0.43048810159567824  0.27645977208564426  1.0000
  O   O30       1.0  0.6444939224069162  0.21400540290087391  0.2764604251780014  1.0000
  O   O31       1.0  0.6444935918061675  0.43048819064725347  0.7764594159748981  1.0000
  O   O32       1.0  0.5695112260784541  0.21400389915154971  0.776459498503911  1.0000
  O   O33       1.0  0.7859945687351699  0.3555063551067692  0.7764601500703775  1.0000
  O   O34       1.0  0.43048845704088723  0.644493289984439  0.723540364857449  1.0000
  O   O35       1.0  0.21400378314921648  0.5695112829022336  0.7235402835703795  1.0000
  O   O36       1.0  0.3555062427883442  0.7859946092898866  0.7235396304780152  1.0000
  O   O37       1.0  0.2535186318458927  0.41515376956736133  0.19750355975286737  1.0000
  O   O38       1.0  0.5848465852275809  0.8383640978610531  0.19750350495901609  1.0000
  O   O39       1.0  0.16163595725256402  0.7464824042182558  0.19750331426836704  1.0000
  O   O40       1.0  0.4151540067954187  0.2535184207721671  0.3024967718199035  1.0000
  O   O41       1.0  0.8383643638278924  0.5848463608370693  0.30249682339756834  1.0000
  O   O42       1.0  0.7464823212379557  0.16163613742106986  0.30249640735633676  1.0000
  O   O43       1.0  0.7464815333493604  0.5848462426233926  0.8024964959031493  1.0000
  O   O44       1.0  0.41515357996767943  0.16163591432970767  0.8024965506970003  1.0000
  O   O45       1.0  0.8383642079426892  0.25351760797249767  0.8024967413876567  1.0000
  O   O46       1.0  0.5848461583998344  0.7464815914185935  0.697503283836113  1.0000
  O   O47       1.0  0.16163580136736758  0.4151536513536841  0.6975032322584482  1.0000
  O   O48       1.0  0.25351784395705557  0.8383638747699393  0.6975030393726555  1.0000
