data_image0
_chemical_formula_structural       Zn12P8H32C56O40
_chemical_formula_sum              "Zn12 P8 H32 C56 O40"
_cell_length_a       8.710582084
_cell_length_b       10.311390413
_cell_length_c       18.634
_cell_angle_alpha    90.0
_cell_angle_beta     90.0
_cell_angle_gamma    90.0

_space_group_name_H-M_alt    "P 1"
_space_group_IT_number       1

loop_
  _space_group_symop_operation_xyz
  'x, y, z'

loop_
  _atom_site_type_symbol
  _atom_site_label
  _atom_site_symmetry_multiplicity
  _atom_site_fract_x
  _atom_site_fract_y
  _atom_site_fract_z
  _atom_site_occupancy
  Zn  Zn1       1.0  0.6787697932220098  0.1222395767704469  0.3995164752602776  1.0000
  Zn  Zn2       1.0  0.3212299675287724  0.8777623227793896  0.8995159386068464  1.0000
  Zn  Zn3       1.0  0.3212299675287724  0.6222371322407625  0.39951593860684637  1.0000
  Zn  Zn4       1.0  0.6787732373087181  0.3777589485011745  0.8995170119137086  1.0000
  Zn  Zn5       1.0  0.8573055081722813  0.8628108958791287  0.4228888054094639  1.0000
  Zn  Zn6       1.0  0.1426954006073942  0.1371910036707078  0.9228871954491779  1.0000
  Zn  Zn7       1.0  0.1426954006073942  0.3628084914022338  0.4228866587957469  1.0000
  Zn  Zn8       1.0  0.8573055081722813  0.6371914685449696  0.9228888054094639  1.0000
  Zn  Zn9       1.0  0.6933486122693893  0.027832327989266  0.9402388107760018  1.0000
  Zn  Zn10      1.0  0.3066557405970017  0.9721666621566243  0.4402404207362877  1.0000
  Zn  Zn11      1.0  0.3066534445391937  0.5278327928635278  0.9402398840828566  1.0000
  Zn  Zn12      1.0  0.6933474642404818  0.4721661972823624  0.44024095738971875  1.0000
  P   P1        1.0  0.9879351250023732  0.3743704627004689  0.9944048513469993  1.0000
  P   P2        1.0  0.012064635748402  0.6256294972467344  0.4944043146935683  1.0000
  P   P3        1.0  0.0120657837773024  0.8743709275747307  0.9944059246538615  1.0000
  P   P4        1.0  0.9879328289445723  0.125632911577739  0.4944032413867134  1.0000
  P   P5        1.0  0.5360123990538099  0.7530167794064653  0.9892239991413517  1.0000
  P   P6        1.0  0.4639839176102498  0.2469841503420511  0.48922453579478287  1.0000
  P   P7        1.0  0.46398736169696525  0.2530153447308905  0.9892239991413517  1.0000
  P   P8        1.0  0.5360123990538099  0.7469846152163129  0.4892239991413518  1.0000
  H   H1        1.0  0.4974524042382029  0.0264668477352927  0.2068519909842195  1.0000
  H   H2        1.0  0.5025508005992876  0.9735311726092847  0.7068514543307953  1.0000
  H   H3        1.0  0.5025530966570955  0.5264702220135007  0.2068509176773645  1.0000
  H   H4        1.0  0.4974524042382029  0.4735316775363358  0.7068530642910815  1.0000
  H   H5        1.0  0.4291814213962724  0.9657009967778835  0.0810840399270134  1.0000
  H   H6        1.0  0.5708171913256024  0.0342970235666868  0.5810829666201585  1.0000
  H   H7        1.0  0.5708194873834103  0.4657015017049346  0.0810824299667274  1.0000
  H   H8        1.0  0.4291802733673649  0.5342974884409486  0.5810845765804444  1.0000
  H   H9        1.0  0.735482421062045  0.6377432854941958  0.0941000321992078  1.0000
  H   H10       1.0  0.2645104515153065  0.3622518254464211  0.5940994955457768  1.0000
  H   H11       1.0  0.2645173396887301  0.1377437904212542  0.09410056885263168  1.0000
  H   H12       1.0  0.7354812730331446  0.8622561695259492  0.5941005688526317  1.0000
  H   H13       1.0  0.8038659107365334  0.70077455227473  0.2194526135021988  1.0000
  H   H14       1.0  0.1961327019853414  0.2992224982685272  0.7194547601159158  1.0000
  H   H15       1.0  0.19613729410095  0.20077990620836772  0.21945422346248478  1.0000
  H   H16       1.0  0.8038659107365334  0.799224902745422  0.7194520768487678  1.0000
  H   H17       1.0  0.7245600740727696  0.1807447808057319  0.20264409144574094  1.0000
  H   H18       1.0  0.2754396866780056  0.8192522697375254  0.702642481485455  1.0000
  H   H19       1.0  0.2754396866780056  0.6807481550839398  0.2026446280991721  1.0000
  H   H20       1.0  0.7245589260438692  0.3192547142672169  0.702643554792317  1.0000
  H   H21       1.0  0.8049840908886807  0.1906260864220499  0.07413330471181469  1.0000
  H   H22       1.0  0.1950156698620944  0.8093709641212072  0.5741322314049597  1.0000
  H   H23       1.0  0.1950191139488027  0.6906294607002579  0.0741343780186767  1.0000
  H   H24       1.0  0.8049852389175882  0.3093772878561651  0.5741322314049597  1.0000
  H   H25       1.0  0.0387092385730838  0.550572694138566  0.1152699366748919  1.0000
  H   H26       1.0  0.9612916702065918  0.4494243564046911  0.6152699366748919  1.0000
  H   H27       1.0  0.9612893741487909  0.0505712594629912  0.115270473328323  1.0000
  H   H28       1.0  0.0387138306886996  0.9494325796894856  0.6152677900611819  1.0000
  H   H29       1.0  0.9549247019069824  0.5415283270586002  0.2433433508640093  1.0000
  H   H30       1.0  0.0450773549016006  0.458470663087283  0.7433428142105853  1.0000
  H   H31       1.0  0.0450704667281769  0.0415298017869716  0.2433433508640093  1.0000
  H   H32       1.0  0.9549292940225982  0.9584720977628648  0.7433412042502922  1.0000
  C   C1        1.0  0.7005834904201578  0.904314513030549  0.2939739186433385  1.0000
  C   C2        1.0  0.2994082341282933  0.0956893261219207  0.7939749919502006  1.0000
  C   C3        1.0  0.29941053018610125  0.4043082293483877  0.2939728453364836  1.0000
  C   C4        1.0  0.7005880825357736  0.595684941989596  0.7939744552967696  1.0000
  C   C5        1.0  0.6544005836843425  0.8662789053878086  0.2201014274981219  1.0000
  C   C6        1.0  0.3456014731242405  0.1337171753541284  0.7201014274981218  1.0000
  C   C7        1.0  0.3456037691820484  0.3662842593214464  0.22010035419125978  1.0000
  C   C8        1.0  0.65440173171325  0.6337186100297032  0.7201008908446909  1.0000
  C   C9        1.0  0.5482423509643368  0.9413172822709583  0.1816405495331139  1.0000
  C   C10       1.0  0.4517585578153458  0.0586855870801983  0.6816405495331139  1.0000
  C   C11       1.0  0.45175740978643836  0.4413168173966966  0.1816384029193969  1.0000
  C   C12       1.0  0.5482457950510451  0.55868508215314  0.6816400128796829  1.0000
  C   C13       1.0  0.5098304518772991  0.9067826573816687  0.1117677363958336  1.0000
  C   C14       1.0  0.49017045690238353  0.0932163327642215  0.6117688097026956  1.0000
  C   C15       1.0  0.4901727529601914  0.40678510191136047  0.11176666308897859  1.0000
  C   C16       1.0  0.5098304518772991  0.5932158278371631  0.6117688097026956  1.0000
  C   C17       1.0  0.5758007847963214  0.7963271364109872  0.0805023076097484  1.0000
  C   C18       1.0  0.4241955318677384  0.2036718537349032  0.5805023076097484  1.0000
  C   C19       1.0  0.4242001239833542  0.2963276413380456  0.0805017709563174  1.0000
  C   C20       1.0  0.5758007847963214  0.7036703790065317  0.5805017709563174  1.0000
  C   C21       1.0  0.6816019805272973  0.7215554548899448  0.1192390254373734  1.0000
  C   C22       1.0  0.3183943361367696  0.2784406258519994  0.6192390254373733  1.0000
  C   C23       1.0  0.3184000762812857  0.2215578994196292  0.1192390254373734  1.0000
  C   C24       1.0  0.6816019805272973  0.7784430303288943  0.6192384887839424  1.0000
  C   C25       1.0  0.7209242665349294  0.756625410106075  0.18873349790705155  1.0000
  C   C26       1.0  0.2790697540713296  0.24337551964244142  0.6887334979070514  1.0000
  C   C27       1.0  0.2790766422447533  0.2566259150331334  0.18873188794676565  1.0000
  C   C28       1.0  0.7209254145638369  0.74337404491407  0.6887334979070514  1.0000
  C   C29       1.0  0.7738047738946037  0.3557008175518135  0.3050477621551977  1.0000
  C   C30       1.0  0.2261961348850789  0.6442942933888105  0.8050482988086286  1.0000
  C   C31       1.0  0.2261926907983636  0.855711950240554  0.3050520553826317  1.0000
  C   C32       1.0  0.7738070699524116  0.1442957681171819  0.8050466888483427  1.0000
  C   C33       1.0  0.832394428992103  0.3617649851854168  0.2299517011913679  1.0000
  C   C34       1.0  0.1676053317586792  0.6382330351591534  0.7299495545776508  1.0000
  C   C35       1.0  0.1676018876719638  0.8617644802583584  0.229951164537944  1.0000
  C   C36       1.0  0.8323955770210034  0.138236449490158  0.7299495545776508  1.0000
  C   C37       1.0  0.7933442258346304  0.2613284816180297  0.18279328109906598  1.0000
  C   C38       1.0  0.2066555349161447  0.7386666293225943  0.68279167113878  1.0000
  C   C39       1.0  0.2066543868872373  0.7613328256975578  0.1827975743265  1.0000
  C   C40       1.0  0.7933465218924383  0.2386710134549119  0.682793281099066  1.0000
  C   C41       1.0  0.8386684069505179  0.2665062508481313  0.11143232800257859  1.0000
  C   C42       1.0  0.1613313538002572  0.7334917694964389  0.6114312546957166  1.0000
  C   C43       1.0  0.1613302057713568  0.7665076855237132  0.1114344746162956  1.0000
  C   C44       1.0  0.8386718510372262  0.23349615362876358  0.6114317913491476  1.0000
  C   C45       1.0  0.9257452512630522  0.3714649379555013  0.086539658688416  1.0000
  C   C46       1.0  0.0742510654010147  0.6285321125877559  0.5865385853815609  1.0000
  C   C47       1.0  0.0742499173721143  0.8714663726310762  0.086540731995278  1.0000
  C   C48       1.0  0.92574754732086  0.1285394061240268  0.58653804872813  1.0000
  C   C49       1.0  0.9681442547324509  0.4705505082886603  0.13420950949876698  1.0000
  C   C50       1.0  0.031852061931616  0.5294465422545898  0.634207899538481  1.0000
  C   C51       1.0  0.0318509139027157  0.9705509731629219  0.1342084361919049  1.0000
  C   C52       1.0  0.9681476988191591  0.029452865989547702  0.6342073628850498  1.0000
  C   C53       1.0  0.9213551887355109  0.465902250577507  0.2055956853064274  1.0000
  C   C54       1.0  0.0786445720152642  0.5340947999657502  0.7055967586132894  1.0000
  C   C55       1.0  0.0786422759574563  0.9659036852530818  0.2055983685735754  1.0000
  C   C56       1.0  0.9213586328222264  0.0340982142967547  0.7055940753461413  1.0000
  O   O1        1.0  0.8195732421961992  0.8480408218251014  0.3201980251153813  1.0000
  O   O2        1.0  0.1804253705256755  0.1519620475260552  0.8201953418482333  1.0000
  O   O3        1.0  0.1804299626412913  0.3480374475468935  0.3201948051948023  1.0000
  O   O4        1.0  0.8195743902250996  0.6519586331950507  0.8201974884619503  1.0000
  O   O5        1.0  0.620197358558066  0.9896618779107057  0.32556241279381476  1.0000
  O   O6        1.0  0.3797978100771005  0.010342931043084  0.8255645594075316  1.0000
  O   O7        1.0  0.3798024021927091  0.4896614130364441  0.3255645594075318  1.0000
  O   O8        1.0  0.6202019506736818  0.5103366073081332  0.8255629494472456  1.0000
  O   O9        1.0  0.5331767676618142  0.8839884472328947  0.9455388000429322  1.0000
  O   O10       1.0  0.4668241411178684  0.11601345231694889  0.4455388000429323  1.0000
  O   O11       1.0  0.4668252891467759  0.383987982358633  0.9455388000429322  1.0000
  O   O12       1.0  0.5331756196329067  0.6160110077872574  0.4455388000429323  1.0000
  O   O13       1.0  0.3710394975711964  0.6979854036877668  0.9799409681227899  1.0000
  O   O14       1.0  0.6289602631795859  0.3020164958620697  0.4799431147364999  1.0000
  O   O15       1.0  0.6289637072662941  0.1979839690121921  0.9799415047762139  1.0000
  O   O16       1.0  0.3710383495422889  0.8020130815310651  0.47994150477621383  1.0000
  O   O17       1.0  0.6548712755348377  0.6550532691967845  0.9660185682086534  1.0000
  O   O18       1.0  0.3451284852159375  0.344947660551739  0.4660180315552225  1.0000
  O   O19       1.0  0.3451307812737454  0.1550528043225228  0.9660191048620774  1.0000
  O   O20       1.0  0.6548689794770297  0.8449461858233676  0.46601964151550845  1.0000
  O   O21       1.0  0.7836525658300673  0.4577404026957765  0.3437388644413416  1.0000
  O   O22       1.0  0.2163494909785157  0.5422595572514268  0.8437372544810557  1.0000
  O   O23       1.0  0.2163517870363236  0.9577398977687253  0.3437383277879178  1.0000
  O   O24       1.0  0.7836514178011598  0.0422561829732189  0.8437372544810557  1.0000
  O   O25       1.0  0.7138432242572534  0.24889368913472512  0.3238542449286257  1.0000
  O   O26       1.0  0.2861576845224292  0.7511062708124783  0.8238542449286257  1.0000
  O   O27       1.0  0.2861542404357209  0.7488922144063537  0.32385639154234264  1.0000
  O   O28       1.0  0.71385011243067  0.2511067757395367  0.8238542449286257  1.0000
  O   O29       1.0  0.98603972928246  0.233631925813107  0.9682161640012906  1.0000
  O   O30       1.0  0.0139611794972225  0.7663690039354165  0.4682161640012906  1.0000
  O   O31       1.0  0.0139646235839308  0.7336294812834154  0.9682161640012906  1.0000
  O   O32       1.0  0.986033989137944  0.2663695088624678  0.46821240742728065  1.0000
  O   O33       1.0  0.8637218417147494  0.4486087534973038  0.9484318986798357  1.0000
  O   O34       1.0  0.13627906706492612  0.5513921762512197  0.4484308253729736  1.0000
  O   O35       1.0  0.1362802150938336  0.9486082485702525  0.9484324353332595  1.0000
  O   O36       1.0  0.8637161015702334  0.051391711376958  0.4484329719866906  1.0000
  O   O37       1.0  0.1407322711821664  0.4450592806780165  0.9936229473006363  1.0000
  O   O38       1.0  0.8592686375975163  0.5549406792691869  0.4936213373403433  1.0000
  O   O39       1.0  0.8592709336553241  0.9450587757509651  0.9936218739937743  1.0000
  O   O40       1.0  0.1407311231532589  0.05494215399755831  0.49362080068691927  1.0000
