data_image0
_chemical_formula_structural       Cd2H20C28N4O10
_chemical_formula_sum              "Cd2 H20 C28 N4 O10"
_cell_length_a       6.26972656158548
_cell_length_b       7.163614749209653
_cell_length_c       14.946289998791958
_cell_angle_alpha    92.52954297014965
_cell_angle_beta     88.44425838728675
_cell_angle_gamma    85.76570319428882

_space_group_name_H-M_alt    "P 1"
_space_group_IT_number       1

loop_
  _space_group_symop_operation_xyz
  'x, y, z'

loop_
  _atom_site_type_symbol
  _atom_site_label
  _atom_site_symmetry_multiplicity
  _atom_site_fract_x
  _atom_site_fract_y
  _atom_site_fract_z
  _atom_site_occupancy
  Cd  Cd1       1.0  0.6770445552260824  0.2494327102419548  0.4965327058435136  1.0000
  Cd  Cd2       1.0  0.3225608372389957  0.7505597865629169  0.5035591886198034  1.0000
  H   H1        1.0  0.010314306347694906  0.5436000921260417  0.31363083541346276  1.0000
  H   H2        1.0  0.04310431606288031  0.9666763308497724  0.6854579192724302  1.0000
  H   H3        1.0  0.9891424001905309  0.45657560691144294  0.6860483535547246  1.0000
  H   H4        1.0  0.9572778204584295  0.03336935093773971  0.3146187947982781  1.0000
  H   H5        1.0  0.8673002489530078  0.5774431109656533  0.1602433626677495  1.0000
  H   H6        1.0  0.8939388592097401  0.9238471469084149  0.8398778357354147  1.0000
  H   H7        1.0  0.1328363607027399  0.42244980983762304  0.8393146255122446  1.0000
  H   H8        1.0  0.10630629754248132  0.07606101014322772  0.16009998801194308  1.0000
  H   H9        1.0  0.48281391085465236  0.37433502605257735  0.0449799487133689  1.0000
  H   H10       1.0  0.46731400137067425  0.11866723118743043  0.9522584581842253  1.0000
  H   H11       1.0  0.5178037182066717  0.6253666649415734  0.9549418272434167  1.0000
  H   H12       1.0  0.5327222452156164  0.8810065468942413  0.0478175755274535  1.0000
  H   H13       1.0  0.6228413720651674  0.33321981179111765  0.1983848045912424  1.0000
  H   H14       1.0  0.6116484326238807  0.16917439867575013  0.7985567708499203  1.0000
  H   H15       1.0  0.3770891043333932  0.6667790886540177  0.8017126289240509  1.0000
  H   H16       1.0  0.38851760746329944  0.8306860531510837  0.2016189084510813  1.0000
  H   H17       1.0  0.12133457653231261  0.15333780231943456  0.5169998569413679  1.0000
  H   H18       1.0  0.10944249073489938  0.3149287164157785  0.4493740005041715  1.0000
  H   H19       1.0  0.8783833117782581  0.8471718651115838  0.4833806074613349  1.0000
  H   H20       1.0  0.890198137022857  0.6855096117670744  0.5508867676291302  1.0000
  C   C1        1.0  0.4140216662736691  0.4147539170673868  0.35580372562849055  1.0000
  C   C2        1.0  0.42524499800135374  0.10166374123821952  0.6419602878516458  1.0000
  C   C3        1.0  0.5853484790769555  0.5856140073991868  0.6441424241093046  1.0000
  C   C4        1.0  0.5750597711771873  0.8984571924970413  0.3581755242422986  1.0000
  C   C5        1.0  0.32523720015400676  0.4346951649171444  0.2650735629326917  1.0000
  C   C6        1.0  0.3353173697396485  0.07292491197631533  0.7330909283237261  1.0000
  C   C7        1.0  0.6745355379043617  0.5653716857124708  0.7347668072610745  1.0000
  C   C8        1.0  0.6649104879012525  0.9270641722127309  0.2670046110167021  1.0000
  C   C9        1.0  0.11172355959845252  0.5036484823836318  0.2544963694334257  1.0000
  C   C10       1.0  0.13285376917603028  0.0028387576475666014  0.744390958154412  1.0000
  C   C11       1.0  0.887987756118072  0.4962890216939612  0.7452160086278994  1.0000
  C   C12       1.0  0.8674685943967192  0.9971353502699432  0.2556670015578675  1.0000
  C   C13       1.0  0.03141318001096491  0.5226556459144335  0.16955350413967812  1.0000
  C   C14       1.0  0.0496955717721264  0.9788581307669306  0.8297763693587542  1.0000
  C   C15       1.0  0.9685945370216161  0.47720036564494  0.8300970567228987  1.0000
  C   C16       1.0  0.9505582699978633  0.021031862451472694  0.1702560136779852  1.0000
  C   C17       1.0  0.16537226257151616  0.4738509027685893  0.0936052469775746  1.0000
  C   C18       1.0  0.16962287219581643  0.023903648907165096  0.9051133030150353  1.0000
  C   C19       1.0  0.8348268289605087  0.5258031154321544  0.9061536811587062  1.0000
  C   C20       1.0  0.8304652803060789  0.9759530927286734  0.0949597253689518  1.0000
  C   C21       1.0  0.37966736138896107  0.40829529604241793  0.1041093446447405  1.0000
  C   C22       1.0  0.3742659175137533  0.08850522419862732  0.8936840721596367  1.0000
  C   C23       1.0  0.6205842622349563  0.591447481986677  0.8957676705415096  1.0000
  C   C24       1.0  0.6258197598561922  0.9112558034033214  0.1064110042171507  1.0000
  C   C25       1.0  0.45796913625818547  0.38614898597886343  0.1892774851264392  1.0000
  C   C26       1.0  0.45493727150029173  0.11585821997507403  0.8082572688703493  1.0000
  C   C27       1.0  0.5419685396433279  0.6136086963563229  0.8106618231085037  1.0000
  C   C28       1.0  0.5452541491376478  0.8839653982083535  0.1918795825577604  1.0000
  N   N1        1.0  0.1006174501752426  0.4914451811236092  0.004369128225889101  1.0000
  N   N2        1.0  0.1001794896742894  0.004004859929899903  0.9946320565625515  1.0000
  N   N3        1.0  0.8997083343309953  0.5081283782499355  0.9953430504861629  1.0000
  N   N4        1.0  0.8999240633160708  0.9957741263338067  0.005426369332077705  1.0000
  O   O1        1.0  0.6092601283830702  0.3543320780463973  0.3611015121585411  1.0000
  O   O2        1.0  0.6056296344302722  0.17253403375912063  0.6360622288385969  1.0000
  O   O3        1.0  0.3899053017986347  0.6455805765423933  0.6389456414342406  1.0000
  O   O4        1.0  0.3946600948719805  0.8276511235452165  0.364195727604951  1.0000
  O   O5        1.0  0.2924971882545364  0.4551726185156327  0.4260108082422391  1.0000
  O   O6        1.0  0.32068130164068975  0.05798972261094091  0.5724763493870668  1.0000
  O   O7        1.0  0.7067204628513934  0.5456264954084347  0.5738615219359245  1.0000
  O   O8        1.0  0.6798072271066076  0.9422841581800513  0.4275722651780143  1.0000
  O   O9        1.0  0.02943283615470451  0.20859748535847442  0.4702665435530662  1.0000
  O   O10       1.0  0.9703207813226342  0.7918784800411489  0.5300958224629895  1.0000
