data_image0
_chemical_formula_structural       Hg4H16C24Se4N8Cl8
_chemical_formula_sum              "Hg4 H16 C24 Se4 N8 Cl8"
_cell_length_a       3.9125526581062156
_cell_length_b       14.5750830142143
_cell_length_c       16.45136128089867
_cell_angle_alpha    90.00179433571013
_cell_angle_beta     89.99787300227645
_cell_angle_gamma    90.00166497920485

_space_group_name_H-M_alt    "P 1"
_space_group_IT_number       1

loop_
  _space_group_symop_operation_xyz
  'x, y, z'

loop_
  _atom_site_type_symbol
  _atom_site_label
  _atom_site_symmetry_multiplicity
  _atom_site_fract_x
  _atom_site_fract_y
  _atom_site_fract_z
  _atom_site_occupancy
  Hg  Hg1       1.0  0.12305001261703549  0.7731159280329719  0.7788654369618584  1.0000
  Hg  Hg2       1.0  0.3769255303127538  0.22687584515746545  0.2788665454841492  1.0000
  Hg  Hg3       1.0  0.8769197649881804  0.27311597873271853  0.7211293010310198  1.0000
  Hg  Hg4       1.0  0.6230488209799532  0.7268777642527695  0.22112456199508296  1.0000
  H   H1        1.0  0.6531429663575423  0.2062300153543646  0.9322298247008687  1.0000
  H   H2        1.0  0.846843622532404  0.7937746568551489  0.4322340843300124  1.0000
  H   H3        1.0  0.34695781180133867  0.7062345577678073  0.5677661053454555  1.0000
  H   H4        1.0  0.15313007897157863  0.29377235868015117  0.0677594779977397  1.0000
  H   H5        1.0  0.45625918254128817  0.12487074970180602  0.057190731678936395  1.0000
  H   H6        1.0  0.04367701343173279  0.8751323601916852  0.5571961760210511  1.0000
  H   H7        1.0  0.5437836988874878  0.6248627527397019  0.4428042454162053  1.0000
  H   H8        1.0  0.9562651280468445  0.3751285731468172  0.9428007708237656  1.0000
  H   H9        1.0  0.5677605999403923  0.9591048753415023  0.07688280447351298  1.0000
  H   H10       1.0  0.9321794946159369  0.040895407865072314  0.5768982740311586  1.0000
  H   H11       1.0  0.4322917863809009  0.45909411672101197  0.4231147142455639  1.0000
  H   H12       1.0  0.06775314028887891  0.5408979779013521  0.923116190291658  1.0000
  H   H13       1.0  0.8712085811416939  0.8671959442417291  0.9727987685941811  1.0000
  H   H14       1.0  0.6287793104774122  0.13280673871256707  0.4728146560942078  1.0000
  H   H15       1.0  0.12882985014456946  0.36718034588100323  0.5272016056577228  1.0000
  H   H16       1.0  0.37116472379238996  0.6328196405955281  0.0272012078161197  1.0000
  C   C1        1.0  0.702934543873063  0.13347265021602786  0.9416770598277464  1.0000
  C   C2        1.0  0.7970377831541241  0.8665282409715972  0.4416855892499854  1.0000
  C   C3        1.0  0.29712792997112547  0.6334599900496015  0.5583192927551506  1.0000
  C   C4        1.0  0.2029307712613573  0.36653012426953774  0.058313021119815296  1.0000
  C   C5        1.0  0.5957811016970282  0.08787514489011977  0.010109005657866996  1.0000
  C   C6        1.0  0.9042052496142643  0.9121179638444303  0.5101202063409431  1.0000
  C   C7        1.0  0.4043090161628554  0.5878676985256421  0.4898855576548584  1.0000
  C   C8        1.0  0.0957791104173182  0.41212882625958264  0.9898826244989677  1.0000
  C   C9        1.0  0.658515611351902  0.9921181343395205  0.021531818899895  1.0000
  C   C10       1.0  0.841415274754368  0.0078829271319805  0.521547782164447  1.0000
  C   C11       1.0  0.34152745952721375  0.4921141007597285  0.47846296432219754  1.0000
  C   C12       1.0  0.15851645319904856  0.5078847625215062  0.9784603000179216  1.0000
  C   C13       1.0  0.8255421252315925  0.9402943370796778  0.9643763592597521  1.0000
  C   C14       1.0  0.6744343078431853  0.05970255784851731  0.4643928665907778  1.0000
  C   C15       1.0  0.1745167555213953  0.4402965576466542  0.5356175234338278  1.0000
  C   C16       1.0  0.3255071688557151  0.5597092167551807  0.0356197631603337  1.0000
  C   C17       1.0  0.8761228664043655  0.0825819779243702  0.8801670087256068  1.0000
  C   C18       1.0  0.6238514414675362  0.9174201589864808  0.3801808961064594  1.0000
  C   C19       1.0  0.12392660095826359  0.5825755987899796  0.619833409600403  1.0000
  C   C20       1.0  0.3761147836752769  0.41742287540512996  0.1198264136213254  1.0000
  C   C21       1.0  0.9360329961680944  0.9843042166825384  0.8916475455565589  1.0000
  C   C22       1.0  0.5639446227204273  0.0156983280071969  0.39165955356444465  1.0000
  C   C23       1.0  0.0640228335680177  0.48431156277725756  0.6083548465468879  1.0000
  C   C24       1.0  0.4360101284910342  0.515697481343807  0.1083506453793674  1.0000
  Se  Se1       1.0  0.17987610566233053  0.025788877205123104  0.7513124689872794  1.0000
  Se  Se2       1.0  0.320139540576612  0.974201231562212  0.2513262000197826  1.0000
  Se  Se3       1.0  0.8201648487495916  0.5257974766235592  0.7486851658415218  1.0000
  Se  Se4       1.0  0.6798198626063721  0.4742150839067564  0.24868085403880252  1.0000
  N   N1        1.0  0.09530824705302615  0.9420083922323813  0.830288559178932  1.0000
  N   N2        1.0  0.4046796755471718  0.05798795224966112  0.3303029965117687  1.0000
  N   N3        1.0  0.9047252545333889  0.4420109563335615  0.669708410217467  1.0000
  N   N4        1.0  0.5952667333694278  0.557997426750326  0.16970715450718635  1.0000
  N   N5        1.0  0.9877708912936638  0.11749144032313551  0.8097406093313282  1.0000
  N   N6        1.0  0.5122170198898671  0.8825013339123872  0.3097490428471943  1.0000
  N   N7        1.0  0.0123129099059582  0.6174942121179753  0.6902528707258851  1.0000
  N   N8        1.0  0.4877404313206881  0.3825108801539869  0.19024879298348196  1.0000
  Cl  Cl1       1.0  0.5094969089757342  0.8381095150026782  0.6795002149705737  1.0000
  Cl  Cl2       1.0  0.9905037659562054  0.16189098271453872  0.17949974718941059  1.0000
  Cl  Cl3       1.0  0.49048991019043336  0.33810518499142717  0.8204957094834383  1.0000
  Cl  Cl4       1.0  0.009481659002510398  0.661895613990396  0.32049321318520896  1.0000
  Cl  Cl5       1.0  0.7229235941184837  0.7028919225301492  0.8721051802978507  1.0000
  Cl  Cl6       1.0  0.777034088548646  0.2971092415415627  0.3721018110520545  1.0000
  Cl  Cl7       1.0  0.2770311487536077  0.20289069831906661  0.6278888345895197  1.0000
  Cl  Cl8       1.0  0.2229374070298036  0.7971121785438412  0.1278936669816062  1.0000
