data_image0
_chemical_formula_structural       Zn4H26C84N4O22F20
_chemical_formula_sum              "Zn4 H26 C84 N4 O22 F20"
_cell_length_a       16.54721231997804
_cell_length_b       17.843777105656496
_cell_length_c       29.013049634602243
_cell_angle_alpha    90.22117698027793
_cell_angle_beta     89.85684886161886
_cell_angle_gamma    89.87396415845251

_space_group_name_H-M_alt    "P 1"
_space_group_IT_number       1

loop_
  _space_group_symop_operation_xyz
  'x, y, z'

loop_
  _atom_site_type_symbol
  _atom_site_label
  _atom_site_symmetry_multiplicity
  _atom_site_fract_x
  _atom_site_fract_y
  _atom_site_fract_z
  _atom_site_occupancy
  Zn  Zn1       1.0  0.5865132559378025  0.5072060284796863  0.496723617250005  1.0000
  Zn  Zn2       1.0  0.4174511663262805  0.506231830202765  0.4991446577423774  1.0000
  Zn  Zn3       1.0  0.41715173123023425  0.5084300743279186  0.8805320961949333  1.0000
  Zn  Zn4       1.0  0.5862060598111897  0.5093123471009946  0.8825105656122361  1.0000
  H   H1        1.0  0.284636531714945  0.5886171782677324  0.5510816038913973  1.0000
  H   H2        1.0  0.2910946239546347  0.4195770079366384  0.4510500503985284  1.0000
  H   H3        1.0  0.7158763285283313  0.5835564183860457  0.5512278059371596  1.0000
  H   H4        1.0  0.7149900906418408  0.42272071387645843  0.4463114661768088  1.0000
  H   H5        1.0  0.6280654254449515  0.7421320433070946  0.49906941605868127  1.0000
  H   H6        1.0  0.3668958710898949  0.7450178145920674  0.49816070399113954  1.0000
  H   H7        1.0  0.6298717922007099  0.269698975865758  0.4998457993906698  1.0000
  H   H8        1.0  0.3688063530124097  0.26853739820941774  0.5039832033992653  1.0000
  H   H9        1.0  0.3686746328129614  0.5002172816050175  0.0269977010148423  1.0000
  H   H10       1.0  0.6297200848705273  0.5024930967582435  0.0292852307138247  1.0000
  H   H11       1.0  0.3691118286544821  0.49796401908556487  0.35297070266678077  1.0000
  H   H12       1.0  0.6301442207173407  0.5003970568186702  0.3497542476747384  1.0000
  H   H13       1.0  0.7163232983618143  0.5854834093136674  0.8282543033217848  1.0000
  H   H14       1.0  0.7139689474469434  0.4253432087017829  0.9327881701693315  1.0000
  H   H15       1.0  0.284752884700346  0.590469239600175  0.82861981941263  1.0000
  H   H16       1.0  0.2904458704434774  0.42208612920278915  0.9282566963965024  1.0000
  H   H17       1.0  0.3666805857414203  0.7473362529529481  0.8799354221528475  1.0000
  H   H18       1.0  0.6278509666923712  0.7440843770044553  0.879575107249792  1.0000
  H   H19       1.0  0.3687208531051381  0.2705302621834917  0.8754966754820259  1.0000
  H   H20       1.0  0.6297851202665469  0.2718166771037716  0.8788372763545453  1.0000
  H   H21       1.0  0.3930362022963649  0.5511292747154358  0.6115054688810275  1.0000
  H   H22       1.0  0.39303561001712944  0.5515608306595183  0.7683891504449392  1.0000
  H   H23       1.0  0.604663776868385  0.4144108905760148  0.5789183763347836  1.0000
  H   H24       1.0  0.6952949331267959  0.289435306049171  0.6088496273220514  1.0000
  H   H25       1.0  0.6955641487328987  0.29006289182374456  0.7695379809282699  1.0000
  H   H26       1.0  0.6049243757287711  0.41535411558013635  0.800029711938521  1.0000
  C   C1        1.0  0.49738848541510083  0.6511011369483483  0.49804681698037  1.0000
  C   C2        1.0  0.509502581072013  0.4996654711719231  0.5909071407818516  1.0000
  C   C3        1.0  0.49944675785179976  0.3615175751896871  0.5019448371035935  1.0000
  C   C4        1.0  0.5019029864855327  0.49946833948268926  0.4082619706688391  1.0000
  C   C5        1.0  0.4970304893123013  0.6532522796733957  0.8809273264034658  1.0000
  C   C6        1.0  0.509590977573893  0.5003706229877453  0.7885224251408545  1.0000
  C   C7        1.0  0.49926267920250916  0.3635459674312216  0.8775491038939336  1.0000
  C   C8        1.0  0.5012845678620153  0.5023201780366406  0.9712054060503164  1.0000
  C   C9        1.0  0.251128753381998  0.5500318773127333  0.529139500248135  1.0000
  C   C10       1.0  0.16740502417729178  0.5486791309047803  0.5297102409655636  1.0000
  C   C11       1.0  0.12327873303319589  0.4995668682580856  0.5010925526281724  1.0000
  C   C12       1.0  0.17080009841649257  0.4527326548959536  0.4725826758324985  1.0000
  C   C13       1.0  0.2544694218786034  0.45564920362972583  0.4731935736757933  1.0000
  C   C14       1.0  0.0385553991396606  0.4981250713798104  0.5008588375735528  1.0000
  C   C15       1.0  0.9649488397976214  0.49790048682177007  0.5006682997100639  1.0000
  C   C16       1.0  0.8802344952906224  0.4990665174019568  0.5002198983931194  1.0000
  C   C17       1.0  0.8346879861182755  0.5460171083058967  0.5297084920608484  1.0000
  C   C18       1.0  0.7509953848907499  0.5474293081548396  0.5283450208906828  1.0000
  C   C19       1.0  0.7505529875916108  0.4573303826891007  0.4696734892264658  1.0000
  C   C20       1.0  0.8342007189218846  0.45413398335188754  0.4700502910678707  1.0000
  C   C21       1.0  0.4975076593911111  0.7348787028708442  0.4987379916455907  1.0000
  C   C22       1.0  0.5713758445362558  0.7730796783514081  0.4993489793118897  1.0000
  C   C23       1.0  0.5708702030365415  0.8504970018522755  0.4999967760564346  1.0000
  C   C24       1.0  0.4990713980776533  0.893462860364167  0.500424931322442  1.0000
  C   C25       1.0  0.42641288855602255  0.8520090097761256  0.5000250041871226  1.0000
  C   C26       1.0  0.4243153569014168  0.7745618103421349  0.49887310651488553  1.0000
  C   C27       1.0  0.4999188614784486  0.97218839063666  0.5008483748070987  1.0000
  C   C28       1.0  0.5006356969197229  0.04050855548572941  0.5008968950780925  1.0000
  C   C29       1.0  0.5004764797279292  0.11923601587908186  0.5009962631624632  1.0000
  C   C30       1.0  0.5724424383151501  0.16166086252665932  0.5002260556437008  1.0000
  C   C31       1.0  0.5731432693706607  0.23907576460926092  0.5003780390987345  1.0000
  C   C32       1.0  0.49940824913328896  0.27777716215481263  0.5017689434975452  1.0000
  C   C33       1.0  0.42611278111396433  0.23861332400894505  0.5026836231453871  1.0000
  C   C34       1.0  0.4279722612075503  0.161154025812337  0.5019612533281759  1.0000
  C   C35       1.0  0.5048351482017849  0.48126060464910136  0.7389557331726236  1.0000
  C   C36       1.0  0.5610075246572775  0.4323905096982941  0.7146343472394675  1.0000
  C   C37       1.0  0.4426614164962429  0.517221219403183  0.7144613214838813  1.0000
  C   C38       1.0  0.6109886589963905  0.3790804737165629  0.7373437686462907  1.0000
  C   C39       1.0  0.661389541826466  0.3291963711576216  0.7132786891139347  1.0000
  C   C40       1.0  0.5047759928354055  0.48091479888999084  0.6404543697560428  1.0000
  C   C41       1.0  0.4426538205028762  0.5170796974310222  0.665214486626276  1.0000
  C   C42       1.0  0.5609381818772973  0.43220033932458796  0.664516129707792  1.0000
  C   C43       1.0  0.6108612940532508  0.37871074328266735  0.6415357001066581  1.0000
  C   C44       1.0  0.661324057283032  0.3290179968762105  0.6653147014304323  1.0000
  C   C45       1.0  0.499356680746267  0.5010375951737274  0.022814190564112394  1.0000
  C   C46       1.0  0.42511533064755713  0.5006419606776831  0.04613543403748109  1.0000
  C   C47       1.0  0.4249295118109301  0.5018511991435589  0.0937860816347893  1.0000
  C   C48       1.0  0.4963303600577546  0.502471364921071  0.1203552570642188  1.0000
  C   C49       1.0  0.5693482114727643  0.5021091695993364  0.09501860660964212  1.0000
  C   C50       1.0  0.5721244887765594  0.5017836809486624  0.0474228307354494  1.0000
  C   C51       1.0  0.495274279771145  0.5030422553715539  0.1687653219210006  1.0000
  C   C52       1.0  0.4953417682995464  0.5027180130693695  0.2107789196007275  1.0000
  C   C53       1.0  0.49656010185103117  0.5013868303719847  0.2591720387909859  1.0000
  C   C54       1.0  0.4252174958723174  0.5004465802076368  0.2859882649941667  1.0000
  C   C55       1.0  0.42550042613186173  0.4987040646483436  0.3336256201034757  1.0000
  C   C56       1.0  0.4998145297838476  0.4988068679785514  0.3566616145841977  1.0000
  C   C57       1.0  0.572525991426282  0.49987619815847484  0.3317979264292319  1.0000
  C   C58       1.0  0.5696519115029517  0.5007494436436062  0.2842246510957267  1.0000
  C   C59       1.0  0.751129315957712  0.5495251657116712  0.8511204107313546  1.0000
  C   C60       1.0  0.8348405479253813  0.5481312216627928  0.8498747355650238  1.0000
  C   C61       1.0  0.8799673237686675  0.501336012637509  0.8793174810337874  1.0000
  C   C62       1.0  0.8335063723828425  0.4566604556641138  0.9093330671464626  1.0000
  C   C63       1.0  0.749849328782318  0.45984404105521304  0.9095873385085155  1.0000
  C   C64       1.0  0.9646871428560714  0.5000506712170606  0.8789579896227337  1.0000
  C   C65       1.0  0.03829107868619989  0.5001909756605655  0.878700231949189  1.0000
  C   C66       1.0  0.12301696753795707  0.5016679050235099  0.8784311601230641  1.0000
  C   C67       1.0  0.16735998721830467  0.5505320860422601  0.8498760417747989  1.0000
  C   C68       1.0  0.2510817709363166  0.5519814629617628  0.8504560779947283  1.0000
  C   C69       1.0  0.2539940560408168  0.4579804331302101  0.9061869983199671  1.0000
  C   C70       1.0  0.17032657271640522  0.4550735659425484  0.906834868024724  1.0000
  C   C71       1.0  0.49728472794844686  0.7370032885675499  0.8797115286982944  1.0000
  C   C72       1.0  0.42415593132592727  0.7767883456584456  0.8791792031527024  1.0000
  C   C73       1.0  0.4263797424599645  0.8542055388179861  0.8778071666814428  1.0000
  C   C74       1.0  0.499113798730292  0.8955372114042178  0.8774838930758405  1.0000
  C   C75       1.0  0.5708488203162572  0.8525094362794122  0.8781368923106144  1.0000
  C   C76       1.0  0.5712195674183248  0.7751077127328899  0.8790685996079262  1.0000
  C   C77       1.0  0.5000565627037686  0.9742432183241905  0.877058233919513  1.0000
  C   C78       1.0  0.5006941838289406  0.04256048754642449  0.8772285174138759  1.0000
  C   C79       1.0  0.5004630404715441  0.1212789252270809  0.8774006795512932  1.0000
  C   C80       1.0  0.4279293421042992  0.16317121298969536  0.8768311568195841  1.0000
  C   C81       1.0  0.4260304606901569  0.24061954201902583  0.8765119475004894  1.0000
  C   C82       1.0  0.4993100053290646  0.2797920823155309  0.8774016721858189  1.0000
  C   C83       1.0  0.5730795041735987  0.24115615491623998  0.8783301995703852  1.0000
  C   C84       1.0  0.5724077098402276  0.16374524253056677  0.8780913320499124  1.0000
  N   N1        1.0  0.29305989230255847  0.5039179467704217  0.501183290945832  1.0000
  N   N2        1.0  0.7106146715661835  0.5036532609476012  0.4984783528465115  1.0000
  N   N3        1.0  0.7103182259625599  0.5059443719384262  0.8808090590136288  1.0000
  N   N4        1.0  0.2928022867318417  0.5060863920047751  0.8783169925884806  1.0000
  O   O1        1.0  0.5653044681375333  0.6184605571562116  0.5034726739855415  1.0000
  O   O2        1.0  0.4296054679689831  0.6186418809295731  0.4921260676404628  1.0000
  O   O3        1.0  0.4453636496094901  0.5239414899185418  0.5704167779722412  1.0000
  O   O4        1.0  0.577302663126602  0.49506872939254976  0.5691766829897418  1.0000
  O   O5        1.0  0.43253410972126716  0.3945947877123999  0.5103071378349  1.0000
  O   O6        1.0  0.5664760986665413  0.39385722204246326  0.4935788677179858  1.0000
  O   O7        1.0  0.5703910961531163  0.5111254390286178  0.4269299305036752  1.0000
  O   O8        1.0  0.435312657893455  0.4889950694498424  0.4294633502056869  1.0000
  O   O9        1.0  0.42916000590187753  0.6210404690528933  0.8870267693197604  1.0000
  O   O10       1.0  0.5649788297534569  0.6204108313893358  0.8757125654070422  1.0000
  O   O11       1.0  0.5773925751925261  0.49602199550059833  0.8100548894707629  1.0000
  O   O12       1.0  0.44541977003044037  0.5247472669335808  0.8092317695815581  1.0000
  O   O13       1.0  0.5663050537364852  0.39598782060492255  0.8856980301244376  1.0000
  O   O14       1.0  0.4322806534907002  0.3965409863758396  0.8696082634994937  1.0000
  O   O15       1.0  0.4345653703656751  0.4923545740846791  0.950179024405372  1.0000
  O   O16       1.0  0.5697487518928029  0.5139539543775555  0.9523708943118264  1.0000
  O   O17       1.0  0.38345922827662793  0.5575338830110753  0.6457321873593571  1.0000
  O   O18       1.0  0.38341678234549187  0.5577338308608475  0.7342071128674094  1.0000
  O   O19       1.0  0.6122539452105187  0.36512811706983683  0.5950062183222472  1.0000
  O   O20       1.0  0.707875306203455  0.27938208255820024  0.6413544833337994  1.0000
  O   O21       1.0  0.7080299294078856  0.2797614908332022  0.736966424051829  1.0000
  O   O22       1.0  0.6125689629226868  0.3659341581537063  0.7838468076164133  1.0000
  F   F1        1.0  0.1335718269308828  0.4042973232977475  0.4440479093449028  1.0000
  F   F2        1.0  0.126850130420344  0.595423310084641  0.5579669202672477  1.0000
  F   F3        1.0  0.8728680417015368  0.40740901488296544  0.4408602964514968  1.0000
  F   F4        1.0  0.8739305937755687  0.590599541578797  0.5596625232890277  1.0000
  F   F5        1.0  0.35593823243825534  0.8908499519629058  0.5006879444320376  1.0000
  F   F6        1.0  0.642156133806303  0.8877315474386975  0.5002104013170197  1.0000
  F   F7        1.0  0.357383874505011  0.12275228977426879  0.5022468453906157  1.0000
  F   F8        1.0  0.6435812797959956  0.12388610622384279  0.49923042835391124  1.0000
  F   F9        1.0  0.6395031197445958  0.5023557991694007  0.11904918101234328  1.0000
  F   F10       1.0  0.35332255131601187  0.5025213259623912  0.1165977072827928  1.0000
  F   F11       1.0  0.6397491010850515  0.5014260233408977  0.2599498998338774  1.0000
  F   F12       1.0  0.3535675047409654  0.5014345605835969  0.2634287894023544  1.0000
  F   F13       1.0  0.8718110428721743  0.4100930368455947  0.9384408361554861  1.0000
  F   F14       1.0  0.8744761644123001  0.5925123876453783  0.8200770189908866  1.0000
  F   F15       1.0  0.1329142246827431  0.40690435599506003  0.9353343560861019  1.0000
  F   F16       1.0  0.12698041157779733  0.5970214400727797  0.8217137483372241  1.0000
  F   F17       1.0  0.6421943591721159  0.889657987720163  0.8779448770945067  1.0000
  F   F18       1.0  0.35597930966298447  0.8931210697084068  0.8769426218786336  1.0000
  F   F19       1.0  0.6435693591290387  0.12600573270468374  0.8786340429891623  1.0000
  F   F20       1.0  0.35736487763855246  0.12473745532847148  0.8764876055031436  1.0000
