data_image0
_chemical_formula_structural       Zn4H33C78N23O14
_chemical_formula_sum              "Zn4 H33 C78 N23 O14"
_cell_length_a       18.813618675619328
_cell_length_b       20.24242059260541
_cell_length_c       19.68870988454281
_cell_angle_alpha    106.51479408188976
_cell_angle_beta     108.83802644555651
_cell_angle_gamma    109.64691027781144

_space_group_name_H-M_alt    "P 1"
_space_group_IT_number       1

loop_
  _space_group_symop_operation_xyz
  'x, y, z'

loop_
  _atom_site_type_symbol
  _atom_site_label
  _atom_site_symmetry_multiplicity
  _atom_site_fract_x
  _atom_site_fract_y
  _atom_site_fract_z
  _atom_site_occupancy
  Zn  Zn1       1.0  0.12379726521893986  0.5104688178023622  0.11800814833193846  1.0000
  Zn  Zn2       1.0  0.8936866195822757  0.4844007720773784  0.87740228127069  1.0000
  Zn  Zn3       1.0  0.8957807423567985  0.3937284805895231  0.008667202321170568  1.0000
  Zn  Zn4       1.0  0.12938741339927867  0.6174373192313851  0.0018354393853102131  1.0000
  H   H1        1.0  0.17632164364467678  0.36179579372980436  0.13007585715173065  1.0000
  H   H2        1.0  0.782799594113015  0.223375614504199  0.8722975922927175  1.0000
  H   H3        1.0  0.8154987600644431  0.3422719402025151  0.7254666915967788  1.0000
  H   H4        1.0  0.1416527437495954  0.3659520281445336  0.9979519121144518  1.0000
  H   H5        1.0  0.15180035726638133  0.6472286584502382  0.8387810785103226  1.0000
  H   H6        1.0  0.8517561043761432  0.4959272457549774  0.1271464055044691  1.0000
  H   H7        1.0  0.8415717401771441  0.6092083408007265  0.8940857118110653  1.0000
  H   H8        1.0  0.12641304725313765  0.6311695679626863  0.263453087264061  1.0000
  H   H9        1.0  0.2202568016216659  0.7820380770463088  0.16121717561232174  1.0000
  H   H10       1.0  0.7105584702610912  0.3635601309880697  0.005691923965507273  1.0000
  H   H11       1.0  0.8460451627791624  0.5716132218508462  0.5097670828027532  1.0000
  H   H12       1.0  0.10188005152112099  0.7258768813825256  0.4912969861950813  1.0000
  H   H13       1.0  0.11665926435810531  0.725894575245192  0.6209478684549409  1.0000
  H   H14       1.0  0.5501251550468068  0.12343532495321331  0.5082511272600669  1.0000
  H   H15       1.0  0.4238873213956109  0.005210176946569194  0.39084133252001857  1.0000
  H   H16       1.0  0.13733745549126286  0.08080593553610513  0.9703688216960557  1.0000
  H   H17       1.0  0.8488711432945663  0.8729256675354973  0.8856100539933465  1.0000
  H   H18       1.0  0.8771127853830333  0.010967172635112123  0.9285151427166553  1.0000
  H   H19       1.0  0.08823283784175816  0.8656864003711461  0.07273884316914093  1.0000
  H   H20       1.0  0.22219662557645128  0.9873147760709385  0.12683582446859995  1.0000
  H   H21       1.0  0.34356560208436776  0.9807511551152073  0.10534540086483443  1.0000
  H   H22       1.0  0.3301225608555286  0.851248689209477  0.030372231271322037  1.0000
  H   H23       1.0  0.1957020515796441  0.7312221534003027  0.97254119392894  1.0000
  H   H24       1.0  0.3905162079791109  0.01566849119956947  0.677396729007519  1.0000
  H   H25       1.0  0.4263359457319708  0.037440987572139595  0.8173571505909294  1.0000
  H   H26       1.0  0.5688315295308185  0.06039492592380198  0.9087576634257388  1.0000
  H   H27       1.0  0.6742781646292285  0.05930836529001456  0.8585894988343411  1.0000
  H   H28       1.0  0.6377713384307596  0.03615685695058342  0.7179279357262728  1.0000
  H   H29       1.0  0.27452528573050466  0.7172298390567633  0.39577294818315073  1.0000
  H   H30       1.0  0.32097226226863257  0.6657752451007182  0.49182313054566146  1.0000
  H   H31       1.0  0.35562067681199483  0.5563687551212694  0.45337503434851817  1.0000
  H   H32       1.0  0.34609365039131024  0.5010856053677486  0.3185384336923535  1.0000
  H   H33       1.0  0.3036948644273068  0.5554874093210316  0.22327250039177932  1.0000
  C   C1        1.0  0.10929896545736277  0.3465655049405497  0.1055706961779137  1.0000
  C   C2        1.0  0.948519912282151  0.5335559054006463  0.7659352253537789  1.0000
  C   C3        1.0  0.8051303811770435  0.26396924393725363  0.8488165253252545  1.0000
  C   C4        1.0  0.20290149698958243  0.516579934487147  0.9599480658014982  1.0000
  C   C5        1.0  0.8212786228221841  0.32472668275811833  0.7732706010092938  1.0000
  C   C6        1.0  0.1554446198806541  0.4178494796449707  0.9880616444153671  1.0000
  C   C7        1.0  0.0866998246441992  0.6076866056675736  0.8218924177705131  1.0000
  C   C8        1.0  0.9694583378765386  0.2904386392224794  0.049287164815190514  1.0000
  C   C9        1.0  0.037706558021632475  0.27168564234901277  0.06149893697371308  1.0000
  C   C10       1.0  0.01132559942001148  0.5857215405890412  0.7548816033792888  1.0000
  C   C11       1.0  0.7692082473435701  0.2537576492680313  0.7694937381262433  1.0000
  C   C12       1.0  0.21044022650270458  0.44852027239006964  0.9577274768255889  1.0000
  C   C13       1.0  0.2563296030370168  0.6685630907473196  0.24445777231410673  1.0000
  C   C14       1.0  0.7060340848742327  0.4407900101257947  0.8803236322157699  1.0000
  C   C15       1.0  0.9201171155263097  0.5215534318239676  0.1488056639397685  1.0000
  C   C16       1.0  0.05033646968400497  0.7198536664093848  0.9852177195304889  1.0000
  C   C17       1.0  0.9106218092396999  0.6388774418345873  0.9264850334960856  1.0000
  C   C18       1.0  0.06096100716965219  0.5908485146137252  0.21869304111992  1.0000
  C   C19       1.0  0.22639303717315326  0.7373816067830745  0.17911785079596146  1.0000
  C   C20       1.0  0.7182715088347392  0.39029580514807083  0.9661598168423637  1.0000
  C   C21       1.0  0.2645420466991196  0.7439494978797683  0.25692676973733347  1.0000
  C   C22       1.0  0.6603092499871078  0.4064086236592101  0.9166312510033235  1.0000
  C   C23       1.0  0.9857184271916637  0.5820887198615663  0.22413693737407675  1.0000
  C   C24       1.0  0.9691738942458626  0.713878635512202  0.9438640277468692  1.0000
  C   C25       1.0  0.2651001612018077  0.4237712089499082  0.9388856549948842  1.0000
  C   C26       1.0  0.3198745436482679  0.40879705207047545  0.92793203246908  1.0000
  C   C27       1.0  0.38269937530195336  0.3973281788482337  0.9188764526210703  1.0000
  C   C28       1.0  0.44489584508602986  0.3926382302935489  0.9138579564065095  1.0000
  C   C29       1.0  0.5147352769152387  0.3923075381083333  0.911199525114014  1.0000
  C   C30       1.0  0.581564290083264  0.3968870344663952  0.9109713049739625  1.0000
  C   C31       1.0  0.8948552900096584  0.6066975172396879  0.434561496986518  1.0000
  C   C32       1.0  0.9669419452273824  0.6456346390486798  0.42527475947555615  1.0000
  C   C33       1.0  0.0461507351615821  0.6923812858724927  0.4959966457234372  1.0000
  C   C34       1.0  0.054476969676194476  0.6921689900411533  0.5682417568963273  1.0000
  C   C35       1.0  0.9833618092162693  0.6450258590124844  0.5737711443603715  1.0000
  C   C36       1.0  0.9026823359808132  0.6057205097998163  0.5068210591041549  1.0000
  C   C37       1.0  0.9671106794233776  0.6340630525471836  0.3514971928918628  1.0000
  C   C38       1.0  0.9934169992110142  0.6313422745327414  0.641657312808185  1.0000
  C   C39       1.0  0.0013370800036297374  0.6105335288086733  0.6949010179949581  1.0000
  C   C40       1.0  0.9781597597523444  0.6156937049432541  0.29243150505544685  1.0000
  C   C41       1.0  0.49144137925740916  0.01609158358561276  0.6059333514294706  1.0000
  C   C42       1.0  0.5416310299906753  0.07720085674927891  0.5930775612570471  1.0000
  C   C43       1.0  0.5134844693178096  0.07403883824439092  0.5158894851088504  1.0000
  C   C44       1.0  0.4430489456749454  0.008815910261773597  0.4507697613271445  1.0000
  C   C45       1.0  0.3976927180558644  0.9431209939285449  0.4596799720256257  1.0000
  C   C46       1.0  0.4211983301581126  0.9507397478849239  0.5383754722221639  1.0000
  C   C47       1.0  0.62032970969625  0.14005617626998648  0.6553325142130504  1.0000
  C   C48       1.0  0.3404653834408789  0.8714480467326237  0.3909299379726007  1.0000
  C   C49       1.0  0.30426275193229896  0.811626952212343  0.3287735822961437  1.0000
  C   C50       1.0  0.6918474594589978  0.19178988261396762  0.7056959859166909  1.0000
  C   C51       1.0  0.05648399963658311  0.9588373637418072  0.9257511465160349  1.0000
  C   C52       1.0  0.9771670131455251  0.8985247501833554  0.9073619439537525  1.0000
  C   C53       1.0  0.9115416841004131  0.9190994227284999  0.9039648424054079  1.0000
  C   C54       1.0  0.9274537668472429  0.9958204717979193  0.9284699037999856  1.0000
  C   C55       1.0  0.010743044353446616  0.05676451551209954  0.9583983388340724  1.0000
  C   C56       1.0  0.0739183221145863  0.03657256918174277  0.9528292423099315  1.0000
  C   C57       1.0  0.9651258529895156  0.8253897154194827  0.9043623884338955  1.0000
  C   C58       1.0  0.02736322601647578  0.13470815573286604  0.995475434956624  1.0000
  C   C59       1.0  0.03394030506977688  0.19878347449062517  0.029997260476228912  1.0000
  C   C60       1.0  0.9578416202892794  0.7700666239859612  0.9204736968731027  1.0000
  C   C61       1.0  0.132690229641689  0.789444844087157  0.020280392821618528  1.0000
  C   C62       1.0  0.14146624047896947  0.8627909593175856  0.06367164083204103  1.0000
  C   C63       1.0  0.2169205819824072  0.9309250546188678  0.09434145993188288  1.0000
  C   C64       1.0  0.285188057774043  0.9271929105512696  0.08264334433621208  1.0000
  C   C65       1.0  0.2776359591249218  0.8547900206166048  0.040577332850439636  1.0000
  C   C66       1.0  0.20175398662276928  0.786466468707104  0.009201336845968978  1.0000
  C   C67       1.0  0.51191633274324  0.024471966768665063  0.6882988019583249  1.0000
  C   C68       1.0  0.4523917904664499  0.024228541902629946  0.7167734061620975  1.0000
  C   C69       1.0  0.4727727939680828  0.036920663230141045  0.7956900409155024  1.0000
  C   C70       1.0  0.5526361658351175  0.0498531470734773  0.8469177598292245  1.0000
  C   C71       1.0  0.6118861396091898  0.049367327235131354  0.8187552492024252  1.0000
  C   C72       1.0  0.5917014462700222  0.03675770066777038  0.7399663819263862  1.0000
  C   C73       1.0  0.28386676288808105  0.6386679982049795  0.301974586176314  1.0000
  C   C74       1.0  0.2899992863973252  0.6697988987408576  0.37850364590880764  1.0000
  C   C75       1.0  0.31571434157925177  0.6402902558119762  0.43249049728760275  1.0000
  C   C76       1.0  0.3350954998030387  0.5790672605169148  0.41089731733576673  1.0000
  C   C77       1.0  0.3292718292445257  0.5477275592163905  0.33502056475268915  1.0000
  C   C78       1.0  0.30426745458417764  0.5774300801875256  0.2810319698130145  1.0000
  N   N1        1.0  0.08346128193155515  0.4021197296116766  0.11400800187598749  1.0000
  N   N2        1.0  0.9839691323419542  0.5259436659976725  0.8327210030979585  1.0000
  N   N3        1.0  0.871649860441927  0.33629372903646954  0.8961198133765078  1.0000
  N   N4        1.0  0.14831954747836523  0.5235982966906785  0.9879358579760333  1.0000
  N   N5        1.0  0.8811924612177717  0.37469211696303945  0.8495444027033513  1.0000
  N   N6        1.0  0.12012029151383533  0.4644269436878973  0.006597641181166169  1.0000
  N   N7        1.0  0.06842336147299456  0.5719131510277646  0.8672508554603265  1.0000
  N   N8        1.0  0.9979425251546062  0.3679413690976859  0.0791792949589337  1.0000
  N   N9        1.0  0.2149091692059954  0.6217325718093604  0.16442895323944373  1.0000
  N   N10       1.0  0.7840136150862304  0.4453016302442944  0.906357744071215  1.0000
  N   N11       1.0  0.9544657774736364  0.49604582929330826  0.1038360694747311  1.0000
  N   N12       1.0  0.03882056316734122  0.6516082626099187  0.9887103466281671  1.0000
  N   N13       1.0  0.9525938735544627  0.6015007400912322  0.9523050202487866  1.0000
  N   N14       1.0  0.04120679282085855  0.5384592591846625  0.14686645061998158  1.0000
  N   N15       1.0  0.19671303296434667  0.6646810661916475  0.12483567460009944  1.0000
  N   N16       1.0  0.7899632636576325  0.41304323085664374  0.9586484749329214  1.0000
  N   N17       1.0  0.6741036476015408  0.46826270734586434  0.8234427699721251  1.0000
  N   N18       1.0  0.808601680781031  0.5615274047748499  0.366380557116429  1.0000
  N   N19       1.0  0.8591306992722775  0.4955043722950802  0.7223807317097836  1.0000
  N   N20       1.0  0.3716268142137124  0.8826058995629181  0.5474235095265668  1.0000
  N   N21       1.0  0.12410452503733144  0.9410811717876794  0.9178698632474748  1.0000
  N   N22       1.0  0.2511756982361176  0.5792540626031053  0.94842638909914  1.0000
  N   N23       1.0  0.8805846530923063  0.24247102855816388  0.01247545668849887  1.0000
  O   O1        1.0  0.5957112130851882  0.4416763528376675  0.7882479527715063  1.0000
  O   O2        1.0  0.7261172687247638  0.5169923046869441  0.8135687060512353  1.0000
  O   O3        1.0  0.7479540302061949  0.5338410707261473  0.3801245274930878  1.0000
  O   O4        1.0  0.8012865865450961  0.5538812083684731  0.2992830244032589  1.0000
  O   O5        1.0  0.8237315753698481  0.49439544630381244  0.657007025705184  1.0000
  O   O6        1.0  0.8174676898825197  0.46301416289995945  0.7542843537019337  1.0000
  O   O7        1.0  0.29408326887633496  0.8603758713131737  0.5219531372624785  1.0000
  O   O8        1.0  0.41018510147260645  0.8514146619972747  0.5780489280856428  1.0000
  O   O9        1.0  0.19620581962439562  0.9970814366333864  0.947148235909715  1.0000
  O   O10       1.0  0.10473537384091695  0.871781539636842  0.880946903332699  1.0000
  O   O11       1.0  0.2974008039263863  0.5717825295262313  0.9176817731469171  1.0000
  O   O12       1.0  0.24575660835152022  0.6418322404732064  0.9733515469798489  1.0000
  O   O13       1.0  0.8504550394257036  0.170643068955762  0.9849562565757424  1.0000
  O   O14       1.0  0.8342025190229805  0.2766969795614642  0.009391302742592788  1.0000
