data_image0
_chemical_formula_structural       Zn4H32C44N4O18
_chemical_formula_sum              "Zn4 H32 C44 N4 O18"
_cell_length_a       9.703427006666098
_cell_length_b       11.013301676708192
_cell_length_c       11.873
_cell_angle_alpha    106.58965770926174
_cell_angle_beta     93.1470191811145
_cell_angle_gamma    109.43447067518977

_space_group_name_H-M_alt    "P 1"
_space_group_IT_number       1

loop_
  _space_group_symop_operation_xyz
  'x, y, z'

loop_
  _atom_site_type_symbol
  _atom_site_label
  _atom_site_symmetry_multiplicity
  _atom_site_fract_x
  _atom_site_fract_y
  _atom_site_fract_z
  _atom_site_occupancy
  Zn  Zn1       1.0  0.9733534402212953  0.7290690490094676  0.1946028734347678  1.0000
  Zn  Zn2       1.0  0.026645179679746906  0.2709308871073333  0.8053960370294176  1.0000
  Zn  Zn3       1.0  0.7978797598457206  0.0998429304587205  0.060297662424012785  1.0000
  Zn  Zn4       1.0  0.2021198921755456  0.9001570056580803  0.9397029788421136  1.0000
  H   H1        1.0  0.7515948445068403  0.2220500669911587  0.9056771189476223  1.0000
  H   H2        1.0  0.24840462922271206  0.777946817380446  0.09432186384228201  1.0000
  H   H3        1.0  0.6025906445416355  0.1650271906814851  0.9636429877990906  1.0000
  H   H4        1.0  0.39740716841811263  0.8349707109385135  0.036356189887662524  1.0000
  H   H5        1.0  0.41488260735116  0.706057872953366  0.1976909004809713  1.0000
  H   H6        1.0  0.5851178516113933  0.293944097660237  0.8023103158097058  1.0000
  H   H7        1.0  0.5903331223127353  0.3873692079634452  0.1115405319503324  1.0000
  H   H8        1.0  0.4096675618287478  0.6126307281533556  0.8884576288821648  1.0000
  H   H9        1.0  0.056887776465707404  0.0022623604415699  0.1759014649340287  1.0000
  H   H10       1.0  0.9431130859674894  0.997740627420427  0.8241017233631638  1.0000
  H   H11       1.0  0.2343174919071558  0.2330851776342158  0.2876332697310175  1.0000
  H   H12       1.0  0.7656838208839076  0.766913741234184  0.7123697033796077  1.0000
  H   H13       1.0  0.2769398957278284  0.0925309489596131  0.5881189821339418  1.0000
  H   H14       1.0  0.7230599814723675  0.9074669526603856  0.4118844994038113  1.0000
  H   H15       1.0  0.1028834924980089  0.8632207162545525  0.46105914219792504  1.0000
  H   H16       1.0  0.8971136918121657  0.1367782026138471  0.5389394344462701  1.0000
  H   H17       1.0  0.3712480643438312  0.3603632974405855  0.5992187915385472  1.0000
  H   H18       1.0  0.6287530232682954  0.6396376559246164  0.4007821835475767  1.0000
  H   H19       1.0  0.40741285002103916  0.38596743966825636  0.4610849077512356  1.0000
  H   H20       1.0  0.5925874306498002  0.6140314792001433  0.5389146500632193  1.0000
  H   H21       1.0  0.6311491041859014  0.4012566831200672  0.5894813574959485  1.0000
  H   H22       1.0  0.3688519834262323  0.5987442702451347  0.4105187753430499  1.0000
  H   H23       1.0  0.5410753371707457  0.2323965004674236  0.5869581824156924  1.0000
  H   H24       1.0  0.45892494350009383  0.7676024184009762  0.4130422176458807  1.0000
  H   H25       1.0  0.8034481548142551  0.3588455628278098  0.21585830589793184  1.0000
  H   H26       1.0  0.1965510937363675  0.64115335604059  0.7841403633616935  1.0000
  H   H27       1.0  0.7113929843303239  0.4492616523638517  0.4008951566048466  1.0000
  H   H28       1.0  0.2886072963405155  0.550737266504548  0.59910355896249  1.0000
  H   H29       1.0  0.5178076255182944  0.0374255858839234  0.40766698894035613  1.0000
  H   H30       1.0  0.4821905909121043  0.9625733329844763  0.5923324762586688  1.0000
  H   H31       1.0  0.6164349930031605  0.9619426389764882  0.2209553121672911  1.0000
  H   H32       1.0  0.3835632234272381  0.0380562798919115  0.7790441530317336  1.0000
  C   C1        1.0  0.39687407219383186  0.5981145934855476  0.1672161051600654  1.0000
  C   C2        1.0  0.603125983298078  0.4018863598796543  0.8327831391241104  1.0000
  C   C3        1.0  0.2521887405734589  0.5024576401927661  0.1353249105345142  1.0000
  C   C4        1.0  0.7478113149184509  0.49754331317242867  0.8646743337496616  1.0000
  C   C5        1.0  0.22939221528285  0.3624913810933634  0.09405791696335086  1.0000
  C   C6        1.0  0.7706099044495004  0.6375095722718384  0.9059414199362479  1.0000
  C   C7        1.0  0.35257085185941867  0.32148609808988476  0.08402739592005297  1.0000
  C   C8        1.0  0.6474316713435755  0.6785158725237181  0.9159730707389357  1.0000
  C   C9        1.0  0.4958569421279718  0.41963937895622644  0.1196020944964928  1.0000
  C   C10       1.0  0.5041437420135111  0.5803605571605743  0.880395224088886  1.0000
  C   C11       1.0  0.5192432685186219  0.5579882130996552  0.1620767228892461  1.0000
  C   C12       1.0  0.4807567869732878  0.44201274026553955  0.8379216791478185  1.0000
  C   C13       1.0  0.6734554114720979  0.6631025247671118  0.1969893352896008  1.0000
  C   C14       1.0  0.32654424054916836  0.336897411349689  0.8030087792351778  1.0000
  C   C15       1.0  0.12245844961834253  0.5488553569645731  0.14726870178711948  1.0000
  C   C16       1.0  0.8775387346918324  0.45114356190382665  0.852730717104194  1.0000
  C   C17       1.0  0.0743465107614938  0.2586557506646869  0.05907428054868551  1.0000
  C   C18       1.0  0.9256541733799891  0.7413441854521139  0.94092472253093  1.0000
  C   C19       1.0  0.3362250992186802  0.17500131124336346  0.0322642377444922  1.0000
  C   C20       1.0  0.6637759883934464  0.8249996421218384  0.9677358950945134  1.0000
  C   C21       1.0  0.10896610729462002  0.025481055171276495  0.2668542652601005  1.0000
  C   C22       1.0  0.8910353837881501  0.9745209154423263  0.7331478395854063  1.0000
  C   C23       1.0  0.20957732757773334  0.1547601025804184  0.3304565053026778  1.0000
  C   C24       1.0  0.7904229530931062  0.8452388162879814  0.6695472637473472  1.0000
  C   C25       1.0  0.2778802861656899  0.1811241293628783  0.44593665914310066  1.0000
  C   C26       1.0  0.7221206231547299  0.8188737722571203  0.5540643419610163  1.0000
  C   C27       1.0  0.23454159071596342  0.0754503310754373  0.4956743549331932  1.0000
  C   C28       1.0  0.7654580613052957  0.9245496050413635  0.5043271285800585  1.0000
  C   C29       1.0  0.13540420008929746  0.9483074414230614  0.4260525063758963  1.0000
  C   C30       1.0  0.8645933876915207  0.05169249469373939  0.5739480422748073  1.0000
  C   C31       1.0  0.3985580802480939  0.3153866766835662  0.5121422795399155  1.0000
  C   C32       1.0  0.6014430073640327  0.6846142766816357  0.4878586955462083  1.0000
  C   C33       1.0  0.5505583691593827  0.3014646150813434  0.5343559780679286  1.0000
  C   C34       1.0  0.4494433471023243  0.6985353210354575  0.4656447558136279  1.0000
  C   C35       1.0  0.7379482005972164  0.2906553335830822  0.2604136990846726  1.0000
  C   C36       1.0  0.2620500158331822  0.7093435852853176  0.7395866083614706  1.0000
  C   C37       1.0  0.6868029314633121  0.3401871926752449  0.3643491964611627  1.0000
  C   C38       1.0  0.3131963170873107  0.6598117261931549  0.635651157292692  1.0000
  C   C39       1.0  0.6065947180020715  0.2506937474379924  0.4213704900867086  1.0000
  C   C40       1.0  0.3934069982596284  0.7493061886788084  0.5786302437948478  1.0000
  C   C41       1.0  0.5800456649564865  0.1122218262381622  0.3679094361200725  1.0000
  C   C42       1.0  0.4199560513052205  0.8877781098786386  0.632092140008595  1.0000
  C   C43       1.0  0.6333936240034177  0.0687873540555231  0.2633705871932221  1.0000
  C   C44       1.0  0.36660459242698107  0.9312115648128838  0.7366288780058027  1.0000
  N   N1        1.0  0.07551581902882992  0.9222445201669984  0.3124083897842524  1.0000
  N   N2        1.0  0.924482172222632  0.0777564331982035  0.6875907618844934  1.0000
  N   N3        1.0  0.7114550849892538  0.1567742544123902  0.21063625913233613  1.0000
  N   N4        1.0  0.28854353491178836  0.8432256817044105  0.7893634935789676  1.0000
  O   O1        1.0  0.6961123427035361  0.1527062780608475  0.9408649535185417  1.0000
  O   O2        1.0  0.3038860989057923  0.8472906063107573  0.05913398296364396  1.0000
  O   O3        1.0  0.7775747204270828  0.6136317005789492  0.20326787364361107  1.0000
  O   O4        1.0  0.2224255602437566  0.3863672182894575  0.7967299996766072  1.0000
  O   O5        1.0  0.6942058542725108  0.7859840969887415  0.217034044326013  1.0000
  O   O6        1.0  0.3057927656285315  0.2140158391280593  0.7829648661381797  1.0000
  O   O7        1.0  0.15595070089351992  0.6809989758680857  0.1862784385553482  1.0000
  O   O8        1.0  0.8440489511277464  0.3190009602487152  0.8137222027107781  1.0000
  O   O9        1.0  0.9933960499610066  0.4651429343844455  0.1232392551726917  1.0000
  O   O10       1.0  0.00660153781981169  0.5348570017323553  0.8767612934780189  1.0000
  O   O11       1.0  0.01159444821838211  0.2154582973592412  0.1384863033843757  1.0000
  O   O12       1.0  0.988406235923101  0.7845416387575597  0.861513541942351  1.0000
  O   O13       1.0  0.009721938444023708  0.2155071252824428  0.9515020576136237  1.0000
  O   O14       1.0  0.9902766814570118  0.784492810834358  0.04849685285056177  1.0000
  O   O15       1.0  0.20443213529704  0.0853064508229053  0.013020679053703101  1.0000
  O   O16       1.0  0.7955668880746458  0.9146945025422893  0.9869785189227612  1.0000
  O   O17       1.0  0.44743718080451345  0.14391013114615697  0.009970596479952597  1.0000
  O   O18       1.0  0.5525635033369696  0.8560898049706438  0.9900284065996559  1.0000
