data_image0
_chemical_formula_structural       Zn2H15C24Br5N6O8
_chemical_formula_sum              "Zn2 H15 C24 Br5 N6 O8"
_cell_length_a       10.108685027133658
_cell_length_b       11.055983293345085
_cell_length_c       12.156261080864779
_cell_angle_alpha    90.56443077762665
_cell_angle_beta     106.82101726493372
_cell_angle_gamma    98.94282518436863

_space_group_name_H-M_alt    "P 1"
_space_group_IT_number       1

loop_
  _space_group_symop_operation_xyz
  'x, y, z'

loop_
  _atom_site_type_symbol
  _atom_site_label
  _atom_site_symmetry_multiplicity
  _atom_site_fract_x
  _atom_site_fract_y
  _atom_site_fract_z
  _atom_site_occupancy
  Zn  Zn1       1.0  0.879389324272758  0.5015699532586737  0.5209451471382212  1.0000
  Zn  Zn2       1.0  0.13179400610603415  0.5122652487557461  0.4552717115820998  1.0000
  H   H1        1.0  0.9314608324973581  0.4011701434383782  0.07358064190557921  1.0000
  H   H2        1.0  0.1938998678590309  0.0323378032863957  0.5077421881048707  1.0000
  H   H3        1.0  0.2527837150709189  0.8954588349292225  0.5441669024559133  1.0000
  H   H4        1.0  0.5152977012176765  0.44487113230682257  0.6968779296966973  1.0000
  H   H5        1.0  0.35432631681073457  0.4991226638721786  0.6596790158342573  1.0000
  H   H6        1.0  0.21549875510948624  0.1965370544119693  0.7142297948109191  1.0000
  H   H7        1.0  0.1159392361381109  0.3013775228503235  0.7385930164222361  1.0000
  H   H8        1.0  0.8392729885163704  0.8655967083503316  0.35456836455536955  1.0000
  H   H9        1.0  0.6803502144753821  0.5983345316483053  0.5732658309362152  1.0000
  H   H10       1.0  0.6152542638288097  0.5152343124498416  0.2007849739955249  1.0000
  H   H11       1.0  0.08091515503625155  0.6511805757006784  0.8862672724153953  1.0000
  H   H12       1.0  0.4657738947972661  0.6183170486850998  0.14211492205991053  1.0000
  H   H13       1.0  0.2433737997952505  0.6998644139786094  0.08640099895526283  1.0000
  H   H14       1.0  0.9168429681396052  0.13588381072789707  0.6457843367411658  1.0000
  H   H15       1.0  0.9351197601524533  0.9963210703475769  0.5989128024225253  1.0000
  C   C1        1.0  0.03289579724397383  0.7418705424785587  0.47611514291720886  1.0000
  C   C2        1.0  0.197342513810824  0.521670631942989  0.8432200745405042  1.0000
  C   C3        1.0  0.044245244694607846  0.8784412148154389  0.467697352742114  1.0000
  C   C4        1.0  0.11794429150437942  0.5232635815084166  0.7178161506705437  1.0000
  C   C5        1.0  0.9321328001280094  0.9280250871466438  0.4046354822400105  1.0000
  C   C6        1.0  0.9590400674997213  0.1344823816171044  0.4939568249159338  1.0000
  C   C7        1.0  0.9387136469332305  0.05925584180194221  0.39922120012067813  1.0000
  C   C8        1.0  0.4377934372410337  0.47689051478843686  0.527236053754095  1.0000
  C   C9        1.0  0.567777971171445  0.4440156491606688  0.5066853529418084  1.0000
  C   C10       1.0  0.9794383053005546  0.27204851220965054  0.4980049828775891  1.0000
  C   C11       1.0  0.8743848596088742  0.4726408634456335  0.2724952545798801  1.0000
  C   C12       1.0  0.41209876890493297  0.4933176652784825  0.9916293524494507  1.0000
  C   C13       1.0  0.7222702037307016  0.37177724632785203  0.9556513259572629  1.0000
  C   C14       1.0  0.7789955910347645  0.450058509845583  0.15240045094542862  1.0000
  C   C15       1.0  0.1708917955008005  0.6046638167941651  0.9180496963982423  1.0000
  C   C16       1.0  0.2634332302448358  0.6333813122022603  0.028899556564120122  1.0000
  C   C17       1.0  0.38568013593724265  0.5833527897587845  0.06226398337030761  1.0000
  C   C18       1.0  0.3116682985049906  0.4564682484163854  0.8833596651657346  1.0000
  C   C19       1.0  0.5444371111838819  0.4472671320140051  0.022384039206087877  1.0000
  C   C20       1.0  0.5772908185263502  0.3766922280946402  0.9367096024834112  1.0000
  C   C21       1.0  0.4607593376075059  0.31700810102803706  0.8446678329586564  1.0000
  C   C22       1.0  0.3269673250883755  0.3472243739952674  0.8228431862573375  1.0000
  C   C23       1.0  0.6433161056423985  0.4744922564395467  0.13056845558166702  1.0000
  C   C24       1.0  0.8214558798554705  0.40675185946826525  0.06100495056396235  1.0000
  Br  Br1       1.0  0.5497060191111416  0.2843538776601946  0.44417217281203863  1.0000
  Br  Br2       1.0  0.34588633247919637  0.5077252640197898  0.2949986836861386  1.0000
  Br  Br3       1.0  0.4712313892105798  0.16867151691995025  0.7669883367020703  1.0000
  Br  Br4       1.0  0.7925239429470852  0.3371528603552393  0.8300761050818937  1.0000
  Br  Br5       1.0  0.9068499752284114  0.12288501252431426  0.24833921638740025  1.0000
  N   N1        1.0  0.32855782315752446  0.4986314356398651  0.44574432547054954  1.0000
  N   N2        1.0  0.685478319980092  0.5152273224868082  0.5376505638930739  1.0000
  N   N3        1.0  0.9673154816427357  0.08879516769350462  0.6025553013328422  1.0000
  N   N4        1.0  0.17237813553408904  0.9438081573964965  0.5276962625139988  1.0000
  N   N5        1.0  0.44488177586493555  0.4868858111133179  0.6389585324349059  1.0000
  N   N6        1.0  0.21159997960371874  0.277752392851312  0.7516736063515029  1.0000
  O   O1        1.0  0.9163763408531765  0.6829895872652545  0.48023087531753833  1.0000
  O   O2        1.0  0.14314166954859786  0.6968432869197159  0.48016279800603473  1.0000
  O   O3        1.0  0.9922375162939475  0.5425469596729686  0.6914098193873316  1.0000
  O   O4        1.0  0.1854426775387239  0.5112415999605988  0.6452456387690761  1.0000
  O   O5        1.0  0.9099513741211923  0.3220413628537672  0.55330900675569  1.0000
  O   O6        1.0  0.0682930268887674  0.3271036311031637  0.4528392810407099  1.0000
  O   O7        1.0  0.81258887605712  0.4552407902777917  0.35028791697224204  1.0000
  O   O8        1.0  0.005330493928603622  0.5062479679361404  0.28920764233133417  1.0000
