data_image0
_chemical_formula_structural       Ni4H44C60N8O20
_chemical_formula_sum              "Ni4 H44 C60 N8 O20"
_cell_length_a       8.304565280052925
_cell_length_b       11.233735845593605
_cell_length_c       14.992156163202774
_cell_angle_alpha    98.07188359081898
_cell_angle_beta     89.99972836846842
_cell_angle_gamma    89.99973474443536

_space_group_name_H-M_alt    "P 1"
_space_group_IT_number       1

loop_
  _space_group_symop_operation_xyz
  'x, y, z'

loop_
  _atom_site_type_symbol
  _atom_site_label
  _atom_site_symmetry_multiplicity
  _atom_site_fract_x
  _atom_site_fract_y
  _atom_site_fract_z
  _atom_site_occupancy
  Ni  Ni1       1.0  0.8311737723076078  0.7616202833428148  0.6556209320860803  1.0000
  Ni  Ni2       1.0  0.6688234086352193  0.2616156126719532  0.1556201026857238  1.0000
  Ni  Ni3       1.0  0.168825397659468  0.23838050704910071  0.3443802484326213  1.0000
  Ni  Ni4       1.0  0.3311721488792472  0.7383824947875867  0.8443787839478248  1.0000
  H   H1        1.0  0.1654159990106407  0.7134086994654184  0.6595962751507047  1.0000
  H   H2        1.0  0.33458208528519146  0.21340606857973662  0.15959456979114617  1.0000
  H   H3        1.0  0.8345867834118933  0.2865947786163973  0.3404065327475864  1.0000
  H   H4        1.0  0.6654134722288773  0.7865929427080831  0.8404037484614905  1.0000
  H   H5        1.0  0.12615672093996005  0.8251222948956358  0.6128684549172976  1.0000
  H   H6        1.0  0.37384588191175533  0.32512218058924003  0.11287025712277202  1.0000
  H   H7        1.0  0.8738436531897589  0.17487850500894817  0.3871313925884508  1.0000
  H   H8        1.0  0.6261544922240387  0.6748777250021548  0.887128825752761  1.0000
  H   H9        1.0  0.3582324784518319  0.47020708743026773  0.6393410239918185  1.0000
  H   H10       1.0  0.14176898945444089  0.9701983124308668  0.13933662797504104  1.0000
  H   H11       1.0  0.6417666915010186  0.5297936791739348  0.3606634890547086  1.0000
  H   H12       1.0  0.8582289763596975  0.02979977123616351  0.8606655911826666  1.0000
  H   H13       1.0  0.8880810339971318  0.5476339851626265  0.5290509587213351  1.0000
  H   H14       1.0  0.611918572047223  0.047629584642599816  0.029044303738707807  1.0000
  H   H15       1.0  0.11192295257744429  0.45236767574515124  0.47095431894808837  1.0000
  H   H16       1.0  0.3880854145740358  0.9523694409010093  0.9709520149844266  1.0000
  H   H17       1.0  0.891284817488163  0.325118015125689  0.5220981836617825  1.0000
  H   H18       1.0  0.6087203368450103  0.8251156656542662  0.022094574975625395  1.0000
  H   H19       1.0  0.10871314833450899  0.6748800828139637  0.4779020359792412  1.0000
  H   H20       1.0  0.3912920788781307  0.1748824608017685  0.9779016456100466  1.0000
  H   H21       1.0  0.7933938934374324  0.3770146520767953  0.8089472866719944  1.0000
  H   H22       1.0  0.7066120871867341  0.8770056132883398  0.3089433600749132  1.0000
  H   H23       1.0  0.20660045986704734  0.6229942204462662  0.19105610998700942  1.0000
  H   H24       1.0  0.29339189943167554  0.12299340749773083  0.691053625153785  1.0000
  H   H25       1.0  0.8020691807840876  0.5983815544658101  0.8021653298873163  1.0000
  H   H26       1.0  0.6979434181468562  0.09837590172679712  0.30215964833556097  1.0000
  H   H27       1.0  0.1979336016401234  0.40162463985837604  0.19783510636267473  1.0000
  H   H28       1.0  0.30206177264066975  0.901621330430473  0.6978358076308739  1.0000
  H   H29       1.0  0.6283854780533957  0.1941334134217812  0.7502603687357381  1.0000
  H   H30       1.0  0.8716089047443132  0.694129980417209  0.2502606265137004  1.0000
  H   H31       1.0  0.37160165035555787  0.8058673960243469  0.24973814577901274  1.0000
  H   H32       1.0  0.1283902652438442  0.305868131792657  0.7497375936087993  1.0000
  H   H33       1.0  0.024016334241871096  0.9470173362996308  0.5663354282719837  1.0000
  H   H34       1.0  0.4759859052116866  0.4470114338033684  0.06633433175434793  1.0000
  H   H35       1.0  0.9759864481859636  0.05298705512554853  0.4336654782342678  1.0000
  H   H36       1.0  0.5240120606252106  0.5529866879239905  0.9336625553588506  1.0000
  H   H37       1.0  0.0423833402997218  0.16733391948164922  0.5735462555137618  1.0000
  H   H38       1.0  0.45762058736716676  0.6673284065961768  0.0735373910492498  1.0000
  H   H39       1.0  0.9576158296195061  0.83267221775926  0.42646217880848536  1.0000
  H   H40       1.0  0.5423858075769203  0.33266972938696443  0.9264574965344397  1.0000
  H   H41       1.0  0.6365593132799958  0.9702279684873931  0.7414838546389008  1.0000
  H   H42       1.0  0.8634273964063368  0.47022786246708403  0.24149035402650307  1.0000
  H   H43       1.0  0.3634326317799079  0.029771975181169807  0.2585098962049273  1.0000
  H   H44       1.0  0.13656936525045893  0.5297711250306278  0.7585112967521255  1.0000
  C   C1        1.0  0.47987927597657176  0.6889063882184419  0.6546818123389856  1.0000
  C   C2        1.0  0.020115391339253098  0.18890231637110594  0.15468076843216497  1.0000
  C   C3        1.0  0.5201271189240586  0.31109348405814075  0.3453219360663483  1.0000
  C   C4        1.0  0.9798789620093374  0.8110966806465002  0.8453195493389956  1.0000
  C   C5        1.0  0.49399143547276464  0.594845172678845  0.5731270027401224  1.0000
  C   C6        1.0  0.0060141534963733985  0.094839354287096  0.07312647196734193  1.0000
  C   C7        1.0  0.5060089386237152  0.40516009403417286  0.42687733442225817  1.0000
  C   C8        1.0  0.9939874247796892  0.905159618928366  0.9268771783206591  1.0000
  C   C9        1.0  0.5761850690884032  0.6118894213023227  0.4934546636757845  1.0000
  C   C10       1.0  0.9238197830163202  0.1118925636582304  0.993454939067206  1.0000
  C   C11       1.0  0.42381048839644814  0.3881113500666374  0.5065491828706641  1.0000
  C   C12       1.0  0.0761829994130707  0.888108212453844  0.006548240962700889  1.0000
  C   C13       1.0  0.4204924332045934  0.4834121811792471  0.5775501976971215  1.0000
  C   C14       1.0  0.07950948229377988  0.9834054482840603  0.07754685367572021  1.0000
  C   C15       1.0  0.5795091450545228  0.5165930950464459  0.4224528064522986  1.0000
  C   C16       1.0  0.9204920959904327  0.016594443032303702  0.9224542287146777  1.0000
  C   C17       1.0  0.6668325268022386  0.7235486176768121  0.475740318278966  1.0000
  C   C18       1.0  0.8331693702800251  0.2235584013870522  0.9757435555900572  1.0000
  C   C19       1.0  0.3331714598377927  0.27643325415970565  0.5242641336592726  1.0000
  C   C20       1.0  0.1668310038407625  0.776443288073189  0.0242577230514627  1.0000
  C   C21       1.0  0.867949813471455  0.5052488327533953  0.589006407464062  1.0000
  C   C22       1.0  0.6320447266503136  0.0052470157310509  0.08900465121252672  1.0000
  C   C23       1.0  0.13204935649601168  0.49475105381023365  0.41099534143555877  1.0000
  C   C24       1.0  0.3679544433378439  0.9947510964788157  0.910993568909966  1.0000
  C   C25       1.0  0.8677430990539958  0.38126888231533956  0.5860489034101449  1.0000
  C   C26       1.0  0.6322503177535239  0.8812655397502381  0.08604512506135362  1.0000
  C   C27       1.0  0.13225968337177108  0.6187336966957491  0.4139538063634944  1.0000
  C   C28       1.0  0.367745239767018  0.11873167339611264  0.9139529969419797  1.0000
  C   C29       1.0  0.8089132388522131  0.4107485345914414  0.7445771136115555  1.0000
  C   C30       1.0  0.6910918788805772  0.9107440531563357  0.24457372481059284  1.0000
  C   C31       1.0  0.191090747727273  0.5892549434879727  0.2554256942849094  1.0000
  C   C32       1.0  0.3089048827908343  0.08925405430080964  0.7554251618211227  1.0000
  C   C33       1.0  0.8146290007334825  0.5337420414511201  0.7413977127739315  1.0000
  C   C34       1.0  0.6853772991620417  0.033737323697806715  0.24139416704908004  1.0000
  C   C35       1.0  0.18537619002157868  0.46625784985802465  0.25860336961096664  1.0000
  C   C36       1.0  0.3146206666784721  0.966258995130538  0.7586031903203792  1.0000
  C   C37       1.0  0.835856839845242  0.3316866044692333  0.6648954372736215  1.0000
  C   C38       1.0  0.6641350064721506  0.8316831392829658  0.1648908955023174  1.0000
  C   C39       1.0  0.1641411259498824  0.6683159697939305  0.33510793901290015  1.0000
  C   C40       1.0  0.3358593468885969  0.16831406910824853  0.8351078930084129  1.0000
  C   C41       1.0  0.720908412617838  0.14246602102507214  0.7107564158147641  1.0000
  C   C42       1.0  0.7790854283034959  0.6424638614680874  0.21075638643914377  1.0000
  C   C43       1.0  0.2790799199505257  0.8575356970044654  0.28924086381167774  1.0000
  C   C44       1.0  0.22091494584367408  0.357536063153475  0.7892400304141277  1.0000
  C   C45       1.0  0.9411483816574204  0.004100279000923  0.6095766644746448  1.0000
  C   C46       1.0  0.5588568265727785  0.5040954410313319  0.10957157996528373  1.0000
  C   C47       1.0  0.05885440076511369  0.9959031990808925  0.39042614342364607  1.0000
  C   C48       1.0  0.4411495683745343  0.4959017958810748  0.8904232094937612  1.0000
  C   C49       1.0  0.9484126650732704  0.12796666219085043  0.6114251758274352  1.0000
  C   C50       1.0  0.5515893439224016  0.6279618675202274  0.11141811388626623  1.0000
  C   C51       1.0  0.051584096558436  0.8720377102161907  0.3885783967102229  1.0000
  C   C52       1.0  0.44841705103707596  0.37203358076579474  0.8885751463123486  1.0000
  C   C53       1.0  0.8349854500382036  0.20002363763332912  0.6630544587704323  1.0000
  C   C54       1.0  0.6650084400599282  0.7000210299722769  0.1630553445165646  1.0000
  C   C55       1.0  0.16501010745400885  0.7999798594930854  0.3369456831165892  1.0000
  C   C56       1.0  0.33498952576843516  0.2999770774824527  0.8369435421133249  1.0000
  C   C57       1.0  0.7241528224231573  0.0179408764436602  0.7057716815691537  1.0000
  C   C58       1.0  0.7758406362933171  0.5179378069900269  0.20577489645877733  1.0000
  C   C59       1.0  0.27584273509789625  0.9820617644298938  0.2942223636431366  1.0000
  C   C60       1.0  0.22415853368592306  0.4820611947754969  0.7942247547995009  1.0000
  N   N1        1.0  0.8415986823188533  0.5812387204832633  0.6651897684696806  1.0000
  N   N2        1.0  0.6583995452196021  0.08123410572922303  0.16518697123789391  1.0000
  N   N3        1.0  0.15840289595604415  0.41876296421703074  0.3348121766755768  1.0000
  N   N4        1.0  0.3415996247750214  0.9187622083391749  0.8348110526353026  1.0000
  N   N5        1.0  0.8329035585077161  0.9486909718164755  0.6561011350900757  1.0000
  N   N6        1.0  0.667096060224118  0.44868991384906565  0.15609937043122812  1.0000
  N   N7        1.0  0.16709681561307832  0.051310717643758615  0.3439001435514443  1.0000
  N   N8        1.0  0.33290431391128544  0.5513108955706018  0.8438991440633858  1.0000
  O   O1        1.0  0.5899087801281908  0.7653604868551867  0.6775163222267582  1.0000
  O   O2        1.0  0.9100942102872054  0.2653629439841368  0.17751564260652947  1.0000
  O   O3        1.0  0.41008918567055014  0.23464028450896285  0.3224875243160313  1.0000
  O   O4        1.0  0.08990616384173218  0.7346396635769992  0.8224830681373876  1.0000
  O   O5        1.0  0.61829065475262  0.7765795025923058  0.4130814262803427  1.0000
  O   O6        1.0  0.8817186731254124  0.2765909047827435  0.9130827127681302  1.0000
  O   O7        1.0  0.38171212770470925  0.22341589336797807  0.5869191654849715  1.0000
  O   O8        1.0  0.11828410933359379  0.7234072074199107  0.08691550734887703  1.0000
  O   O9        1.0  0.798850002527871  0.7493377495937852  0.5202151423948821  1.0000
  O   O10       1.0  0.7011532337904781  0.24933922424616384  0.020217567630965005  1.0000
  O   O11       1.0  0.20114796331343138  0.2506567615780071  0.4797833517364083  1.0000
  O   O12       1.0  0.2988459361916042  0.7506597822769056  0.9797814171217427  1.0000
  O   O13       1.0  0.08161997173971258  0.7479833080212759  0.6225599482445149  1.0000
  O   O14       1.0  0.4183806223405711  0.24797943854705554  0.12255855656127321  1.0000
  O   O15       1.0  0.9183816065319518  0.25201927574975264  0.3774420950253941  1.0000
  O   O16       1.0  0.5816197518073806  0.7520186784179477  0.8774389970538297  1.0000
  O   O17       1.0  0.3498337420667852  0.6873310803200782  0.7014572590818562  1.0000
  O   O18       1.0  0.1501617378672222  0.18733098430821832  0.20145631051936166  1.0000
  O   O19       1.0  0.6501690403808452  0.3126670128524083  0.2985436270574056  1.0000
  O   O20       1.0  0.8498350237779347  0.8126752195430812  0.7985427927286466  1.0000
