data_image0
_chemical_formula_structural       Nd2Ag2H24C28N4O26
_chemical_formula_sum              "Nd2 Ag2 H24 C28 N4 O26"
_cell_length_a       6.5382426445905315
_cell_length_b       6.53822293971588
_cell_length_c       20.42802489402159
_cell_angle_alpha    96.03164622858436
_cell_angle_beta     96.0323980374552
_cell_angle_gamma    102.97192899246794

_space_group_name_H-M_alt    "P 1"
_space_group_IT_number       1

loop_
  _space_group_symop_operation_xyz
  'x, y, z'

loop_
  _atom_site_type_symbol
  _atom_site_label
  _atom_site_symmetry_multiplicity
  _atom_site_fract_x
  _atom_site_fract_y
  _atom_site_fract_z
  _atom_site_occupancy
  Nd  Nd1       1.0  0.9630375155091713  0.036959664230053604  0.7499998462189197  1.0000
  Nd  Nd2       1.0  0.03696098250510713  0.9630435571653276  0.25000064660989096  1.0000
  Ag  Ag1       1.0  0.3784432814625517  0.6215559164120705  0.7500006279211746  1.0000
  Ag  Ag2       1.0  0.6215498779134307  0.37845055556206114  0.2499988169119121  1.0000
  H   H1        1.0  0.5739615556501931  0.6287032241548542  0.4996546691868248  1.0000
  H   H2        1.0  0.3713032762413205  0.42602556055344815  0.0003460082041044997  1.0000
  H   H3        1.0  0.4260280944011186  0.37129537352291203  0.500346847465714  1.0000
  H   H4        1.0  0.6287016698280254  0.5739727804092851  0.9996525782856552  1.0000
  H   H5        1.0  0.8768725700111656  0.2838125368106502  0.4943973032727698  1.0000
  H   H6        1.0  0.7161887866036947  0.12312469749743829  0.005602957642672399  1.0000
  H   H7        1.0  0.12313417782581838  0.7161746517896856  0.5056009745331593  1.0000
  H   H8        1.0  0.2838161181177199  0.8768673106207245  0.9943983555743118  1.0000
  H   H9        1.0  0.5674300029717969  0.7720047091993507  0.4062596899239352  1.0000
  H   H10       1.0  0.22799638988427515  0.43256951171723296  0.0937399208077352  1.0000
  H   H11       1.0  0.4325653004121292  0.22798584523136606  0.5937402792652122  1.0000
  H   H12       1.0  0.7720116327032966  0.5674287951802197  0.9062602347059893  1.0000
  H   H13       1.0  0.27900410068270526  0.9702411958810727  0.6517362142701444  1.0000
  H   H14       1.0  0.029758524729274427  0.7209954913767405  0.8482655875719587  1.0000
  H   H15       1.0  0.7209970016919485  0.029754043819821194  0.3482645905703237  1.0000
  H   H16       1.0  0.970247646872444  0.27900762718503097  0.1517366237816873  1.0000
  H   H17       1.0  0.14848911456544292  0.7423854230285937  0.6539452734916793  1.0000
  H   H18       1.0  0.25761664455516337  0.851509947992113  0.8460558162790974  1.0000
  H   H19       1.0  0.8515077782633751  0.25761145703094  0.3460539779461556  1.0000
  H   H20       1.0  0.742386519422247  0.14849956496679792  0.1539455278223656  1.0000
  H   H21       1.0  0.5816072791982164  0.2649357630843311  0.7691920630062654  1.0000
  H   H22       1.0  0.73506232508592  0.4183919035786374  0.7308078983429098  1.0000
  H   H23       1.0  0.41838927926058733  0.7350658900097287  0.23080733496281883  1.0000
  H   H24       1.0  0.2649357735995678  0.5816097344461609  0.2691925290309385  1.0000
  C   C1        1.0  0.666878758499692  0.6388685026798842  0.6345201032459472  1.0000
  C   C2        1.0  0.3611332110832988  0.33311728193123  0.8654797498082658  1.0000
  C   C3        1.0  0.3331243483892194  0.36113466172743347  0.3654820084404449  1.0000
  C   C4        1.0  0.6388667996116837  0.666885896907601  0.1345183439263096  1.0000
  C   C5        1.0  0.719991965334316  0.8161392064998411  0.5929181483042285  1.0000
  C   C6        1.0  0.18386238272978517  0.2800039254587928  0.9070833898059619  1.0000
  C   C7        1.0  0.2800057418926585  0.18386085600788252  0.4070831931858123  1.0000
  C   C8        1.0  0.8161372443769678  0.7199976857164785  0.09291659761593961  1.0000
  C   C9        1.0  0.6604489894773166  0.7825955159188421  0.5248809672120345  1.0000
  C   C10       1.0  0.21741120288548635  0.3395423755495556  0.9751185774558521  1.0000
  C   C11       1.0  0.3395433141525857  0.21740144076252935  0.47511911429607073  1.0000
  C   C12       1.0  0.7825956866744761  0.6604575376412569  0.024881593679204207  1.0000
  C   C13       1.0  0.7131065082708545  0.9507822297607048  0.4878740275019026  1.0000
  C   C14       1.0  0.04922124314422399  0.28689251967468715  0.012126064675364  1.0000
  C   C15       1.0  0.28689033140461356  0.0492083056739929  0.5121264813064386  1.0000
  C   C16       1.0  0.9507867715730569  0.7131057793692506  0.9878731112672199  1.0000
  C   C17       1.0  0.8291711191632911  0.14849114661586776  0.5209776412676916  1.0000
  C   C18       1.0  0.8515155829262113  0.17082710750212723  0.9790209001734452  1.0000
  C   C19       1.0  0.17083149589205954  0.8515040505284757  0.4790207644785269  1.0000
  C   C20       1.0  0.14849090336981163  0.8291712183913377  0.020978715721085506  1.0000
  C   C21       1.0  0.8870292510755602  0.16523069505321786  0.5894074876516839  1.0000
  C   C22       1.0  0.8347674160281569  0.11296976434823591  0.9105938198788975  1.0000
  C   C23       1.0  0.11297071827148387  0.8347661509410356  0.4105933328101088  1.0000
  C   C24       1.0  0.16523067872218886  0.8870318697498049  0.0894061177093803  1.0000
  C   C25       1.0  0.026724602226920528  0.36509785995274063  0.6289292355618414  1.0000
  C   C26       1.0  0.6349140629728821  0.9732768388985703  0.8710693747411967  1.0000
  C   C27       1.0  0.9732708153339897  0.6349053915811709  0.3710691984574339  1.0000
  C   C28       1.0  0.365095602212932  0.0267341382525359  0.12892880565070897  1.0000
  N   N1        1.0  0.831468875400496  0.004245812466692202  0.6249947536027562  1.0000
  N   N2        1.0  0.9957569838147222  0.16852656885758677  0.8750048567755755  1.0000
  N   N3        1.0  0.16852881608591014  0.995754234334015  0.3750046287449891  1.0000
  N   N4        1.0  0.004244571042079285  0.8314765988387263  0.1249947561493343  1.0000
  O   O1        1.0  0.7429711851684855  0.6794759341040474  0.6967395107415584  1.0000
  O   O2        1.0  0.3205219322276775  0.25701828153244577  0.8032605632525432  1.0000
  O   O3        1.0  0.2570330468777513  0.3205256161564023  0.3032616057523612  1.0000
  O   O4        1.0  0.6794780213788059  0.7429785487547843  0.19673829806696125  1.0000
  O   O5        1.0  0.5526952482539115  0.4652715015113457  0.6066176979412319  1.0000
  O   O6        1.0  0.5347235135907339  0.4473027665728751  0.8933811464175178  1.0000
  O   O7        1.0  0.4473043335697682  0.5347237728925974  0.3933845264223237  1.0000
  O   O8        1.0  0.4652761627342271  0.552705185300475  0.10661709384830692  1.0000
  O   O9        1.0  0.6528311076829851  0.9223747085382  0.4216872431535563  1.0000
  O   O10       1.0  0.07762833227128135  0.3471679017437807  0.0783127663859986  1.0000
  O   O11       1.0  0.34716573199248296  0.07761582689649768  0.5783132656547849  1.0000
  O   O12       1.0  0.922380819408751  0.6528287949335551  0.9216868837208237  1.0000
  O   O13       1.0  0.06391789313337169  0.5316655779364935  0.6022492758727083  1.0000
  O   O14       1.0  0.46832936956970866  0.9360767816132025  0.8977536603118992  1.0000
  O   O15       1.0  0.9360785432781569  0.4683233702008708  0.3977506776951003  1.0000
  O   O16       1.0  0.5316630875885906  0.06393291143891129  0.10224978388206549  1.0000
  O   O17       1.0  0.10003721908851296  0.34742484413524005  0.6888093011401537  1.0000
  O   O18       1.0  0.6525753681286587  0.8999642792864578  0.8111925445736432  1.0000
  O   O19       1.0  0.8999547541065027  0.652576889507408  0.31119141668477823  1.0000
  O   O20       1.0  0.3474182634051743  0.100050140316867  0.1888081572717581  1.0000
  O   O21       1.0  0.2120782008531421  0.8823515598549321  0.6836705761591446  1.0000
  O   O22       1.0  0.11765214414848653  0.7879227158040293  0.8163324245494791  1.0000
  O   O23       1.0  0.787920236137502  0.11764530906209805  0.3163301944690318  1.0000
  O   O24       1.0  0.8823513581340802  0.21208202804712062  0.18366926280630474  1.0000
  O   O25       1.0  0.7164388635737068  0.28356077268941954  0.7500003820232594  1.0000
  O   O26       1.0  0.283559235111781  0.7164408653353717  0.2500000453505891  1.0000
