data_image0
_chemical_formula_structural       Cd2H48C68N8O12
_chemical_formula_sum              "Cd2 H48 C68 N8 O12"
_cell_length_a       9.8191958263555
_cell_length_b       10.415007057725518
_cell_length_c       14.066197264162504
_cell_angle_alpha    86.40441737670007
_cell_angle_beta     81.53589013845527
_cell_angle_gamma    81.04782049393671

_space_group_name_H-M_alt    "P 1"
_space_group_IT_number       1

loop_
  _space_group_symop_operation_xyz
  'x, y, z'

loop_
  _atom_site_type_symbol
  _atom_site_label
  _atom_site_symmetry_multiplicity
  _atom_site_fract_x
  _atom_site_fract_y
  _atom_site_fract_z
  _atom_site_occupancy
  Cd  Cd1       1.0  0.6130690630537644  0.607143827130841  0.5532332243537609  1.0000
  Cd  Cd2       1.0  0.3869311091283976  0.3928563170860713  0.44676735915427196  1.0000
  H   H1        1.0  0.6066063817320639  0.0943650402801239  0.5428187232079082  1.0000
  H   H2        1.0  0.3933923036657562  0.9056380243006997  0.4571818848999598  1.0000
  H   H3        1.0  0.956646798345858  0.8435668815947606  0.6370852357755155  1.0000
  H   H4        1.0  0.04335011351943051  0.15643424602690456  0.3629135175653104  1.0000
  H   H5        1.0  0.0735229302710039  0.0369306792935404  0.6520963792045507  1.0000
  H   H6        1.0  0.9264772297352053  0.9630694680536109  0.34790278358550353  1.0000
  H   H7        1.0  0.9502429819568974  0.2596154387910303  0.6177579537389519  1.0000
  H   H8        1.0  0.04975631259096505  0.740383734598616  0.38224276792404044  1.0000
  H   H9        1.0  0.2861813325660734  0.29342554613794647  0.2399791944581793  1.0000
  H   H10       1.0  0.7138188274401356  0.706574601209205  0.7600199683318819  1.0000
  H   H11       1.0  0.8073066155685849  0.8908238179962352  0.9605545614279904  1.0000
  H   H12       1.0  0.1926938551006145  0.10917438219021137  0.039445368498618905  1.0000
  H   H13       1.0  0.3232067095902877  0.049899938119430914  0.2469534404864717  1.0000
  H   H14       1.0  0.6767946387132184  0.9500992328942741  0.753046351285178  1.0000
  H   H15       1.0  0.5078948330653503  0.8614581054536217  0.2118489451409999  1.0000
  H   H16       1.0  0.49210563151587633  0.13854009629794461  0.7881502744266199  1.0000
  H   H17       1.0  0.6976832613225596  0.8756005285643552  0.07896744545804071  1.0000
  H   H18       1.0  0.3023168986836424  0.12439961878280306  0.9210317173320206  1.0000
  H   H19       1.0  0.45722862477403947  0.39332283918827915  0.025780481097548616  1.0000
  H   H20       1.0  0.5427728758169791  0.6066753590276406  0.974219339062877  1.0000
  H   H21       1.0  0.6482560435699297  0.40705007882952765  0.8912727994799567  1.0000
  H   H22       1.0  0.35174441492331704  0.5929481244871582  0.1087257097286809  1.0000
  H   H23       1.0  0.8236822341123329  0.21414479176946338  0.8479221975712434  1.0000
  H   H24       1.0  0.17631720054708208  0.7858534119526367  0.15207713176256019  1.0000
  H   H25       1.0  0.8805154519046283  0.4536270813005601  0.41586755108059487  1.0000
  H   H26       1.0  0.11948502485255832  0.5463711173207669  0.5841330892049967  1.0000
  H   H27       1.0  0.6268315144654224  0.8051387529553792  0.3831334609779447  1.0000
  H   H28       1.0  0.37316999221356884  0.19485944369541391  0.6168670695414775  1.0000
  H   H29       1.0  0.7709246460556541  0.858072891239999  0.22553442489934383  1.0000
  H   H30       1.0  0.2290733200833586  0.14192822815064687  0.774467060111256  1.0000
  H   H31       1.0  0.9681720627219333  0.6981070285619069  0.16028435035537567  1.0000
  H   H32       1.0  0.031826049616611805  0.30189311959606613  0.8397164526850175  1.0000
  H   H33       1.0  0.09323261144756859  0.3878809797262477  0.3002134620891681  1.0000
  H   H34       1.0  0.9067665064608619  0.6121191727216769  0.6997843897490981  1.0000
  H   H35       1.0  0.06081863330883411  0.5107098786056952  0.09704372111632148  1.0000
  H   H36       1.0  0.9391803384000638  0.4892912450749022  0.9029548126921441  1.0000
  H   H37       1.0  0.3736233705700939  0.7920491378192126  0.6683545865622519  1.0000
  H   H38       1.0  0.6263788553677117  0.20795100402176558  0.33164506705443125  1.0000
  H   H39       1.0  0.5211048312802404  0.40421834963476033  0.723353005375479  1.0000
  H   H40       1.0  0.4788985829548622  0.5957808158727643  0.2766472772227999  1.0000
  H   H41       1.0  0.3442133528605639  0.39314903786645755  0.8719132784293178  1.0000
  H   H42       1.0  0.6557891837402394  0.6068491568138016  0.1280871423239205  1.0000
  H   H43       1.0  0.1763521508501071  0.5907379722164451  0.9169386548897689  1.0000
  H   H44       1.0  0.8236491913654191  0.40926120036238695  0.08306042652289142  1.0000
  H   H45       1.0  0.19775346723530876  0.9168810356568143  0.7766298452747761  1.0000
  H   H46       1.0  0.8022449435902812  0.08311716847070019  0.2233703041841935  1.0000
  H   H47       1.0  0.006485510477091311  0.7643665322097277  0.9190825974243921  1.0000
  H   H48       1.0  0.9935151124796207  0.2356306951789193  0.0809173608910001  1.0000
  C   C1        1.0  0.7715087240750406  0.19120447724895223  0.578825096232748  1.0000
  C   C2        1.0  0.22848819996620756  0.8087966472424669  0.42117507782605657  1.0000
  C   C3        1.0  0.7082449701892131  0.08255361892541657  0.5674028839587991  1.0000
  C   C4        1.0  0.291753160413272  0.9174465245371906  0.4326000501585483  1.0000
  C   C5        1.0  0.7747507544591699  0.9575249340186858  0.5898913798375247  1.0000
  C   C6        1.0  0.22524838780118728  0.042475212168753294  0.41010931343668483  1.0000
  C   C7        1.0  0.9065298531751436  0.9415073914634322  0.6202364931362183  1.0000
  C   C8        1.0  0.09347002660796018  0.058494695218826095  0.37976545431222763  1.0000
  C   C9        1.0  0.9711807069688375  0.04930869641508199  0.6287780750974719  1.0000
  C   C10       1.0  0.028819160638306637  0.9506933933974151  0.37122245163299533  1.0000
  C   C11       1.0  0.9034279970972962  0.1737076939479891  0.6091271498289146  1.0000
  C   C12       1.0  0.09656893911991202  0.8262934274131907  0.3908744449478618  1.0000
  C   C13       1.0  0.6988207859900866  0.32737085118197473  0.5639047725486603  1.0000
  C   C14       1.0  0.3011782222466977  0.6726302631078979  0.4360980234137273  1.0000
  C   C15       1.0  0.7032186837889682  0.8410686061084363  0.5865647880285038  1.0000
  C   C16       1.0  0.29678133610568835  0.15893251090626848  0.4134357670907463  1.0000
  C   C17       1.0  0.4135889518797811  0.17567999505859427  0.13817679419378237  1.0000
  C   C18       1.0  0.5864093005703168  0.8243191834318322  0.8618226165174222  1.0000
  C   C19       1.0  0.40980647752536464  0.05924350595338271  0.19051507403317908  1.0000
  C   C20       1.0  0.5901947063146693  0.9407566409883615  0.809483268631716  1.0000
  C   C21       1.0  0.5139471621397362  0.9522485436392287  0.16962268689971444  1.0000
  C   C22       1.0  0.4860531501539781  0.04775063091013718  0.8303765042791226  1.0000
  C   C23       1.0  0.6202265490388612  0.9609578699901814  0.09484948724082187  1.0000
  C   C24       1.0  0.37977464088915264  0.039042275386442796  0.9051495657830627  1.0000
  C   C25       1.0  0.6273865674477861  0.07813932257622011  0.03867256307213301  1.0000
  C   C26       1.0  0.37261477476774013  0.9218598500026046  0.9613265183405275  1.0000
  C   C27       1.0  0.5232686398421008  0.18956631828405796  0.06100328653258201  1.0000
  C   C28       1.0  0.4767306486177888  0.8104328566707151  0.938996724771421  1.0000
  C   C29       1.0  0.5339619346125132  0.3082638969309102  0.007553257257214334  1.0000
  C   C30       1.0  0.46603955989051826  0.6917343028501294  0.992445852544236  1.0000
  C   C31       1.0  0.6409964685932011  0.31582182599537123  0.9330102056822723  1.0000
  C   C32       1.0  0.3590029599782342  0.6841763792918486  0.06698841329254888  1.0000
  C   C33       1.0  0.7419736718004656  0.20722986814426742  0.9082105819744726  1.0000
  C   C34       1.0  0.2580276643270807  0.792769305999684  0.09178778907920561  1.0000
  C   C35       1.0  0.7366833003327001  0.0897598766725309  0.9601727294685318  1.0000
  C   C36       1.0  0.26331804797080594  0.9102392943411742  0.03982706230311089  1.0000
  C   C37       1.0  0.9391171240153465  0.558169733600529  0.2804469544026702  1.0000
  C   C38       1.0  0.060882006069050504  0.44183041571715614  0.7195523181535675  1.0000
  C   C39       1.0  0.8574063531429844  0.5402303995391051  0.369762733297513  1.0000
  C   C40       1.0  0.14259278911737278  0.459769746648341  0.6302379599766965  1.0000
  C   C41       1.0  0.7157687025486084  0.7377232171935829  0.3515750203632493  1.0000
  C   C42       1.0  0.28423059808724094  0.26227595463094394  0.6484264116587326  1.0000
  C   C43       1.0  0.7944778113975204  0.7658326038082635  0.2644880448079903  1.0000
  C   C44       1.0  0.20551942330672554  0.23416657352244388  0.7355128963873626  1.0000
  C   C45       1.0  0.9060181657573027  0.6752464955799837  0.2280903078081877  1.0000
  C   C46       1.0  0.09398112879055988  0.3247526778096629  0.7719104138548049  1.0000
  C   C47       1.0  0.053500399518185304  0.4577098455207391  0.24569583764113637  1.0000
  C   C48       1.0  0.9464984199032073  0.5422922509576509  0.7543026677785462  1.0000
  C   C49       1.0  0.1063551786228771  0.4459874725110425  0.1519350156294266  1.0000
  C   C50       1.0  0.8936453960671142  0.5540165656218791  0.8480632134803371  1.0000
  C   C51       1.0  0.21430027902741233  0.34177918797464457  0.1100300261508025  1.0000
  C   C52       1.0  0.7856981317981706  0.6582190161528702  0.8899701233081669  1.0000
  C   C53       1.0  0.2586617564352736  0.7085241155428433  0.7954995632530811  1.0000
  C   C54       1.0  0.7413394517566799  0.29147602513841525  0.20450162084775766  1.0000
  C   C55       1.0  0.3622837234129506  0.7052948683749989  0.7150219261743729  1.0000
  C   C56       1.0  0.6377174786910301  0.2947052738713865  0.2849785475674835  1.0000
  C   C57       1.0  0.4454323092098775  0.4885077499988454  0.7460466937775294  1.0000
  C   C58       1.0  0.5545721349470368  0.5114914135381453  0.2539534790545659  1.0000
  C   C59       1.0  0.3468147662015397  0.48258013880776934  0.8276946074523792  1.0000
  C   C60       1.0  0.6531877703992635  0.5174180558724968  0.1723058133008593  1.0000
  C   C61       1.0  0.2527045331032554  0.5931867242654079  0.8525181919015734  1.0000
  C   C62       1.0  0.7472976928345432  0.4068134175755629  0.14748146171511683  1.0000
  C   C63       1.0  0.1665515060943505  0.8298130326800217  0.8159413223059528  1.0000
  C   C64       1.0  0.833448812287351  0.1701861403042173  0.18405857923187338  1.0000
  C   C65       1.0  0.04754856779972269  0.8456585978016591  0.8780174164170731  1.0000
  C   C66       1.0  0.9524508668596922  0.1543396059204412  0.12198191291672343  1.0000
  C   C67       1.0  0.9685872557986955  0.9776672148225954  0.8913753681282799  1.0000
  C   C68       1.0  0.0314152625381681  0.022330984553029495  0.1086229215479975  1.0000
  N   N1        1.0  0.3087723640300268  0.2822049691676014  0.1665840182418776  1.0000
  N   N2        1.0  0.6912279482636876  0.7177942053817645  0.8334151729369665  1.0000
  N   N3        1.0  0.8349882695987033  0.9795748975622445  0.9376824608245542  1.0000
  N   N4        1.0  0.1650120366070311  0.020424278552240993  0.0623160199953006  1.0000
  N   N5        1.0  0.7476707877593965  0.6268169991966132  0.4034932705197889  1.0000
  N   N6        1.0  0.25232836058894037  0.37318314542571335  0.5965081331134101  1.0000
  N   N7        1.0  0.4524435190806884  0.5980670021337319  0.6907021502655013  1.0000
  N   N8        1.0  0.5475599073303741  0.4019321602435539  0.30929955305074935  1.0000
  O   O1        1.0  0.7607625919759684  0.4200520267847239  0.5832147886716399  1.0000
  O   O2        1.0  0.23923744618262782  0.5799490855346149  0.4167878975245713  1.0000
  O   O3        1.0  0.579480398565586  0.34636677074669814  0.5360796122128872  1.0000
  O   O4        1.0  0.42051917664250027  0.653637261531145  0.4639222784579928  1.0000
  O   O5        1.0  0.5944577015770064  0.8509335201411969  0.5466067829630816  1.0000
  O   O6        1.0  0.4055361692266857  0.14906760087108492  0.45339798254817504  1.0000
  O   O7        1.0  0.7564139089732506  0.7328605907380918  0.6256848762007294  1.0000
  O   O8        1.0  0.24358580025840124  0.26714247343731756  0.37431491178197257  1.0000
  O   O9        1.0  0.21496483444230555  0.3115069932949694  0.024876123437771014  1.0000
  O   O10       1.0  0.7850329611452622  0.688495103588835  0.9751232021070848  1.0000
  O   O11       1.0  0.020139455921885506  0.07722606878797929  0.8630958649158629  1.0000
  O   O12       1.0  0.9798630685029579  0.9227721290225261  0.13690313511940386  1.0000
