data_image0
_chemical_formula_structural       Zn6H32C88I16O24
_chemical_formula_sum              "Zn6 H32 C88 I16 O24"
_cell_length_a       18.570808098840327
_cell_length_b       29.24598375621547
_cell_length_c       29.246019011829084
_cell_angle_alpha    84.21680206237592
_cell_angle_beta     71.48756588194252
_cell_angle_gamma    71.48790856331641

_space_group_name_H-M_alt    "P 1"
_space_group_IT_number       1

loop_
  _space_group_symop_operation_xyz
  'x, y, z'

loop_
  _atom_site_type_symbol
  _atom_site_label
  _atom_site_symmetry_multiplicity
  _atom_site_fract_x
  _atom_site_fract_y
  _atom_site_fract_z
  _atom_site_occupancy
  Zn  Zn1       1.0  0.467069466669081  0.5328836511718222  0.5328996127210743  1.0000
  Zn  Zn2       1.0  0.43024352206641236  0.9999922727842402  0.9999905607708898  1.0000
  Zn  Zn3       1.0  0.5697585193690601  9.087203800100002e-06  5.573055567324291e-06  1.0000
  Zn  Zn4       1.0  0.999996402517581  0.46710860121673653  0.5328920494574731  1.0000
  Zn  Zn5       1.0  0.5329261151442068  0.46710040125984165  0.46711625102334164  1.0000
  Zn  Zn6       1.0  0.999996686326753  0.5328902589591991  0.46711055663991635  1.0000
  H   H1        1.0  0.470788281859278  0.785001540154326  0.12898976816296687  1.0000
  H   H2        1.0  0.5997902153152024  0.8710587878936737  0.7850039682267965  1.0000
  H   H3        1.0  0.3848208168757098  0.2150155863930792  0.8710360799911215  1.0000
  H   H4        1.0  0.2559340037363497  0.1289536501064887  0.21500265124289802  1.0000
  H   H5        1.0  0.6151838786677927  0.1289637823068333  0.7849839983772001  1.0000
  H   H6        1.0  0.7440663142997153  0.7849973617571205  0.8710468877625531  1.0000
  H   H7        1.0  0.5292096454513244  0.8710106333949171  0.21499861196256392  1.0000
  H   H8        1.0  0.40021368854466033  0.21499400203607874  0.12894149567242152  1.0000
  H   H9        1.0  0.39008234246587387  0.7758713532988964  0.2129915197792513  1.0000
  H   H10       1.0  0.8339376409715842  0.7759349452439109  0.7870622840353434  1.0000
  H   H11       1.0  0.3789610985688511  0.224084845583981  0.7870003577027732  1.0000
  H   H12       1.0  0.396968941456997  0.22414330914283906  0.21300720997874126  1.0000
  H   H13       1.0  0.6210434090233579  0.21300098039103696  0.7759127768987639  1.0000
  H   H14       1.0  0.603030774544976  0.7869933547756605  0.7758574224599928  1.0000
  H   H15       1.0  0.6099152346446246  0.7870102044058102  0.22412843357098922  1.0000
  H   H16       1.0  0.16606479670478072  0.21293724074315176  0.22406478060842264  1.0000
  H   H17       1.0  0.5569191977229765  0.6165413670231671  0.27369759627687534  1.0000
  H   H18       1.0  0.8306461132158136  0.7263159565155346  0.6165504081925378  1.0000
  H   H19       1.0  0.4471450684110108  0.38344014379191554  0.726317481604852  1.0000
  H   H20       1.0  0.17341680085461061  0.2736803373001919  0.3834238583637061  1.0000
  H   H21       1.0  0.5528544547559096  0.27368241570101753  0.6165592159489962  1.0000
  H   H22       1.0  0.8265911385568853  0.61657615277597  0.726319911162314  1.0000
  H   H23       1.0  0.44308265547994813  0.7263023754162107  0.3834589089519015  1.0000
  H   H24       1.0  0.1693509295899672  0.38344938401075984  0.2736836067345082  1.0000
  H   H25       1.0  0.5569205860513406  0.5529736507595473  0.3375053648827021  1.0000
  H   H26       1.0  0.8943946159594632  0.6625051646996312  0.5529825418993398  1.0000
  H   H27       1.0  0.4473422382050104  0.4470161527197121  0.6625129914229647  1.0000
  H   H28       1.0  0.10997502230271289  0.3374911280042028  0.44700051568173665  1.0000
  H   H29       1.0  0.5526574927778899  0.3374870422206726  0.5529826737736485  1.0000
  H   H30       1.0  0.8900298808068213  0.5529990152264475  0.6625088223902581  1.0000
  H   H31       1.0  0.44307905899832184  0.6624941437086704  0.44702670118928023  1.0000
  H   H32       1.0  0.10559940477493512  0.44701750829888454  0.3374948026373873  1.0000
  C   C1        1.0  0.4999984928939369  0.5659615439884577  0.43403886880493314  1.0000
  C   C2        1.0  0.7867704431987693  0.7133125150405348  0.7132954469942875  1.0000
  C   C3        1.0  0.3358459380485286  0.09909745621224891  0.14625974445294795  1.0000
  C   C4        1.0  0.5651049181811915  0.09909733613022101  0.8537021221461317  1.0000
  C   C5        1.0  0.6641540802989925  0.8537413020175392  0.9009026278697407  1.0000
  C   C6        1.0  0.5178933378135042  0.9008827530363066  0.14630245815606463  1.0000
  C   C7        1.0  0.41881247552931455  0.14629972516074474  0.0990644530117137  1.0000
  C   C8        1.0  0.4821060546313022  0.8536975204082252  0.09911801420936686  1.0000
  C   C9        1.0  0.581190994998096  0.9009363518969381  0.8536990787713851  1.0000
  C   C10       1.0  0.4348992158521198  0.14629734617950163  0.9009023968828701  1.0000
  C   C11       1.0  0.5000016812787608  0.2866962584595427  0.7133025731147741  1.0000
  C   C12       1.0  0.482531155864848  0.8179276613129076  0.13444769837975915  1.0000
  C   C13       1.0  0.6169470873176833  0.8655876249905391  0.817943538491889  1.0000
  C   C14       1.0  0.4349055483856643  0.18207080922820038  0.8655712706913476  1.0000
  C   C15       1.0  0.30054646668512675  0.1344130081238788  0.18204632342898464  1.0000
  C   C16       1.0  0.5650978210721361  0.1344279911328954  0.817928307176068  1.0000
  C   C17       1.0  0.6994538373813414  0.817954116863156  0.8655871969843006  1.0000
  C   C18       1.0  0.5174655712840494  0.8655535421498044  0.1820723585015146  1.0000
  C   C19       1.0  0.2132307520208272  0.2867032680409666  0.28668860009935326  1.0000
  C   C20       1.0  0.38305649321888774  0.1820551816467173  0.1344134967463333  1.0000
  C   C21       1.0  0.499998184699976  0.8236020131945238  0.1763990605177669  1.0000
  C   C22       1.0  0.4999997191236434  0.713288875697458  0.2867131722337107  1.0000
  C   C23       1.0  0.6763273679522753  0.8236288224579268  0.823634408933529  1.0000
  C   C24       1.0  0.5000022523206695  0.17638095750882596  0.8236187379748616  1.0000
  C   C25       1.0  0.3236729835271531  0.176365686676661  0.17637198715149793  1.0000
  C   C26       1.0  0.4999986902259437  0.8959230747776699  0.10407702384930674  1.0000
  C   C27       1.0  0.6040596950354669  0.8959756108286284  0.8959191166252369  1.0000
  C   C28       1.0  0.5000009926678501  0.10407936700337929  0.8959203651348704  1.0000
  C   C29       1.0  0.3959410402262478  0.10408019618657961  0.10402536423250552  1.0000
  C   C30       1.0  0.43885921699503433  0.7642343756443922  0.22873323169550028  1.0000
  C   C31       1.0  0.796836611260382  0.7642784811805896  0.7713066109798847  1.0000
  C   C32       1.0  0.4318235519732026  0.2357477089539657  0.7712756145690423  1.0000
  C   C33       1.0  0.33243571532376837  0.23576126653254903  0.22872551104038769  1.0000
  C   C34       1.0  0.5681798253122852  0.22872493562376667  0.7642508382747978  1.0000
  C   C35       1.0  0.6675657956038636  0.7712745680571517  0.7642390897918929  1.0000
  C   C36       1.0  0.5611363086985366  0.7712708202892172  0.23576793085981512  1.0000
  C   C37       1.0  0.20316545325520963  0.2286923706551391  0.23572185282601776  1.0000
  C   C38       1.0  0.43917420388893924  0.7288968679226426  0.26449475141711093  1.0000
  C   C39       1.0  0.8319293144588258  0.7289535551890297  0.735529526247504  1.0000
  C   C40       1.0  0.4325608846960663  0.2710830485646554  0.7355108536891919  1.0000
  C   C41       1.0  0.2962843126546419  0.2710995385819999  0.26449751669120763  1.0000
  C   C42       1.0  0.5674427066603299  0.26448902657639917  0.7289154462953463  1.0000
  C   C43       1.0  0.7037165818165647  0.7355021626502845  0.72890037693049  1.0000
  C   C44       1.0  0.5608219500252358  0.7355092580041429  0.27110553740670446  1.0000
  C   C45       1.0  0.16807317212301603  0.2644690982059927  0.2710472872256632  1.0000
  C   C46       1.0  0.49999706388071274  0.7858774846187584  0.21412500475226187  1.0000
  C   C47       1.0  0.7140496055214027  0.7858998227859856  0.7859029775650443  1.0000
  C   C48       1.0  0.5000026564106862  0.21411305820619478  0.7858862945127003  1.0000
  C   C49       1.0  0.9339675074784208  0.5659653210998882  0.5659691576828579  1.0000
  C   C50       1.0  0.2859514826978114  0.21409684978165439  0.21410045363462166  1.0000
  C   C51       1.0  0.5320298990491351  0.6265067627370017  0.31172996589145907  1.0000
  C   C52       1.0  0.8438323578231531  0.6882791695134429  0.6265078973605114  1.0000
  C   C53       1.0  0.47025134717501527  0.37348701550605773  0.6882803105934701  1.0000
  C   C54       1.0  0.15855611084439405  0.31171641057643734  0.37347642859661084  1.0000
  C   C55       1.0  0.529749797028458  0.3117193557029836  0.626511875243189  1.0000
  C   C56       1.0  0.4999998304684398  0.43402611418089515  0.5659730023030534  1.0000
  C   C57       1.0  0.8414478831862484  0.6265244337715784  0.6882833235114634  1.0000
  C   C58       1.0  0.4679715673602161  0.6882704756353205  0.3734942884547934  1.0000
  C   C59       1.0  0.15616551687345742  0.3734909994653961  0.31172039951680836  1.0000
  C   C60       1.0  0.06602603809524513  0.43403099095099407  0.4340357607316535  1.0000
  C   C61       1.0  0.5320844589195843  0.5910199669561464  0.347185317317738  1.0000
  C   C62       1.0  0.879269262461442  0.6528233568142738  0.5910228785010576  1.0000
  C   C63       1.0  0.47028341618329267  0.4089745320114062  0.652821934826278  1.0000
  C   C64       1.0  0.12320009450866107  0.3471751076552465  0.40896366984262045  1.0000
  C   C65       1.0  0.529716424997808  0.347177664467985  0.5910244877687989  1.0000
  C   C66       1.0  0.8767991834190807  0.5910365300515963  0.6528245918401794  1.0000
  C   C67       1.0  0.4679175319027279  0.6528150518879343  0.40898025413977734  1.0000
  C   C68       1.0  0.12072994900650974  0.4089771005465436  0.3471757709356354  1.0000
  C   C69       1.0  0.500000040082121  0.6039532593025  0.39604679137136156  1.0000
  C   C70       1.0  0.8959941165541208  0.6039571939101264  0.6039557832311999  1.0000
  C   C71       1.0  0.49999988891651265  0.3960380046229303  0.6039616578297214  1.0000
  C   C72       1.0  0.10400338123004362  0.39604416615146226  0.39604263351341024  1.0000
  C   C73       1.0  0.5000001487127786  0.6754002850272445  0.324600232579833  1.0000
  C   C74       1.0  0.8246732114180944  0.6754129543901684  0.6754040204036188  1.0000
  C   C75       1.0  0.500000743667613  0.32459314235183706  0.6754061634771135  1.0000
  C   C76       1.0  0.17533017640654694  0.3245952565822279  0.3245873227999852  1.0000
  C   C77       1.0  0.5657688539933687  0.9342754318241475  0.9342333500612341  1.0000
  C   C78       1.0  0.5000035243157369  0.0657652967682765  0.9342313666115063  1.0000
  C   C79       1.0  0.43423303994125456  0.0657648704023899  0.0657257253837855  1.0000
  C   C80       1.0  0.4999982949497834  0.9342421929801077  0.06575735620862841  1.0000
  C   C81       1.0  0.6397568262463553  0.5000040452040793  0.5000040108583548  1.0000
  C   C82       1.0  0.1397421208464705  0.5000382893615196  0.5000302431992625  1.0000
  C   C83       1.0  0.3602387800494853  0.4999958725631758  0.499995889507936  1.0000
  C   C84       1.0  0.8602527489834272  0.4999699216881055  0.499962815758039  1.0000
  C   C85       1.0  0.7172964515895542  0.4999723399289096  0.49997078643127685  1.0000
  C   C86       1.0  0.21728736987379446  0.49999829059953527  0.499996105627318  1.0000
  C   C87       1.0  0.2826990491545446  0.5000293807149134  0.5000271756404404  1.0000
  C   C88       1.0  0.7827094470834551  0.50000306944073  0.5000012857055013  1.0000
  I   I1        1.0  0.4575277829939639  0.8399971963947692  0.03704471040491342  1.0000
  I   I2        1.0  0.4946145855812034  0.9630311959984964  0.8399891264045538  1.0000
  I   I3        1.0  0.3346753768607159  0.1600277762157845  0.9630217218246672  1.0000
  I   I4        1.0  0.2976687329069278  0.036991611044840084  0.16000475460488423  1.0000
  I   I5        1.0  0.6653273560986291  0.03697834634236589  0.83997274406822  1.0000
  I   I6        1.0  0.7023293461082147  0.8399971296297367  0.9630087053865425  1.0000
  I   I7        1.0  0.542472437372048  0.9629550503343794  0.1600032609267927  1.0000
  I   I8        1.0  0.5053900107939241  0.16000946606863664  0.0369691558884  1.0000
  I   I9        1.0  0.34299585698487767  0.699778434762436  0.285895560634792  1.0000
  I   I10       1.0  0.95718238055629  0.6998327972008197  0.7141661071682535  1.0000
  I   I11       1.0  0.3286777129031789  0.3002185691268124  0.7141208031022473  1.0000
  I   I12       1.0  0.3709773685501077  0.30027677027595706  0.2859091653886097  1.0000
  I   I13       1.0  0.6713253966576574  0.2858781171901299  0.6997794213647952  1.0000
  I   I14       1.0  0.629020333534967  0.7140906533813766  0.6997242498711318  1.0000
  I   I15       1.0  0.6570029554709577  0.7141066855937981  0.30022111209325447  1.0000
  I   I16       1.0  0.04281915691018411  0.2858324269853441  0.30016492601083666  1.0000
  O   O1        1.0  0.47072207541678074  0.5799750204411042  0.4780528859422688  1.0000
  O   O2        1.0  0.9486968512325121  0.5219555431961354  0.5799937720237409  1.0000
  O   O3        1.0  0.5288162621338586  0.4200025433926626  0.5219610191384234  1.0000
  O   O4        1.0  0.050782776702178  0.4780465407483164  0.42002518154430396  1.0000
  O   O5        1.0  0.4711799426414133  0.47803950076924195  0.5799963859975962  1.0000
  O   O6        1.0  0.9492107912604836  0.5799758027848015  0.5219537165582865  1.0000
  O   O7        1.0  0.5292742295498485  0.5219474345292312  0.42002645208204836  1.0000
  O   O8        1.0  0.05129804200238652  0.4200060835461342  0.47804583158477254  1.0000
  O   O9        1.0  0.5802224169315124  0.5292898511516454  0.5291085794727692  1.0000
  O   O10       1.0  0.1093233893834977  0.4709312985116939  0.5293192667426112  1.0000
  O   O11       1.0  0.6386760275507867  0.47070371581727954  0.4708866783047442  1.0000
  O   O12       1.0  0.10955087605076858  0.5291184964300513  0.47070942012661027  1.0000
  O   O13       1.0  0.36132022620321197  0.5291130293909418  0.5292956606205621  1.0000
  O   O14       1.0  0.8904428348466311  0.5292925479456088  0.47088339097700077  1.0000
  O   O15       1.0  0.419773850350069  0.4708910756842145  0.47070979401956964  1.0000
  O   O16       1.0  0.8906716942057215  0.47068165139379664  0.5290700487232698  1.0000
  O   O17       1.0  0.6112134156862722  0.9546618040473476  0.9430272651942889  1.0000
  O   O18       1.0  0.5542177174170887  0.05699757612219259  0.9546407031186137  1.0000
  O   O19       1.0  0.5088570935474408  0.045350217422260586  0.05696933791867313  1.0000
  O   O20       1.0  0.5658551004127406  0.9430130031104227  0.045360572333592614  1.0000
  O   O21       1.0  0.4911450686625473  0.9430312248074555  0.9546481452511486  1.0000
  O   O22       1.0  0.4341401715747469  0.9546362009823142  0.05698708483996043  1.0000
  O   O23       1.0  0.38878825706788683  0.05697065163553112  0.045339878695671104  1.0000
  O   O24       1.0  0.4457898864088605  0.0453544973263647  0.9429995771466796  1.0000
