data_image0
_chemical_formula_structural       Dy2Cu2H30C50N12O16
_chemical_formula_sum              "Dy2 Cu2 H30 C50 N12 O16"
_cell_length_a       7.606212753852689
_cell_length_b       12.170853629767697
_cell_length_c       14.092536873477098
_cell_angle_alpha    69.31853338197816
_cell_angle_beta     87.5586176040023
_cell_angle_gamma    82.64622404459124

_space_group_name_H-M_alt    "P 1"
_space_group_IT_number       1

loop_
  _space_group_symop_operation_xyz
  'x, y, z'

loop_
  _atom_site_type_symbol
  _atom_site_label
  _atom_site_symmetry_multiplicity
  _atom_site_fract_x
  _atom_site_fract_y
  _atom_site_fract_z
  _atom_site_occupancy
  Dy  Dy1       1.0  0.7063216278672186  0.9120561832565386  0.15231328191516985  1.0000
  Dy  Dy2       1.0  0.2936773281285739  0.0879418642205181  0.8476840751949624  1.0000
  Cu  Cu1       1.0  0.7879231389652188  0.3553270460662006  0.3022476004057851  1.0000
  Cu  Cu2       1.0  0.21208107358039993  0.6446710441812302  0.6977517508417251  1.0000
  H   H1        1.0  0.8679984437009053  0.6005776071774351  0.15113949676545252  1.0000
  H   H2        1.0  0.13199096411013755  0.3994220951964708  0.8488611305037567  1.0000
  H   H3        1.0  0.6700336511253864  0.2221600519793229  0.1416991849480169  1.0000
  H   H4        1.0  0.3299288301552182  0.777849088342137  0.8583056064534988  1.0000
  H   H5        1.0  0.6014777694960998  0.38578289025878126  0.8183668866005223  1.0000
  H   H6        1.0  0.3985171214730485  0.6142221914645775  0.18163128187622857  1.0000
  H   H7        1.0  0.6964065830873452  0.5745711317964677  0.8185200752100812  1.0000
  H   H8        1.0  0.30359278774267306  0.42543134071394934  0.18147806670631178  1.0000
  H   H9        1.0  0.3677840647857167  0.7774857942588228  0.47815223869684337  1.0000
  H   H10       1.0  0.6322408561011058  0.22252046899827593  0.5218477162276401  1.0000
  H   H11       1.0  0.015215580224136655  0.8541764684199935  0.7627461761326729  1.0000
  H   H12       1.0  0.9848024912297646  0.14581820382465344  0.23725672318788335  1.0000
  H   H13       1.0  0.19420178351629147  0.19545540356691052  0.4673260653636434  1.0000
  H   H14       1.0  0.8057955536775482  0.8045505899159977  0.532671771499075  1.0000
  H   H15       1.0  0.3861459940003016  0.15225173847411363  0.3313817218848315  1.0000
  H   H16       1.0  0.6138462670096415  0.8477533276380598  0.6686143834177758  1.0000
  H   H17       1.0  0.11438231754235062  0.5312591261117987  0.2637947930570661  1.0000
  H   H18       1.0  0.8856183180949202  0.46873714649746034  0.7362066083740687  1.0000
  H   H19       1.0  0.30677269002691093  0.36483546364789293  0.388151277319686  1.0000
  H   H20       1.0  0.6932403559768828  0.6351644870080905  0.6118480178815702  1.0000
  H   H21       1.0  0.40916744357189566  0.38940114365323825  0.7311699341947816  1.0000
  H   H22       1.0  0.5908198280125347  0.6105896719783246  0.2688334224021531  1.0000
  H   H23       1.0  0.060640932705197756  0.7278879039379547  0.4665852154513246  1.0000
  H   H24       1.0  0.939355946780644  0.27210743178416413  0.5334186843231523  1.0000
  H   H25       1.0  0.812835516648626  0.6739263454907062  0.9639166718471587  1.0000
  H   H26       1.0  0.18716457564512004  0.32607258861829547  0.0360825203782582  1.0000
  H   H27       1.0  0.046715626643980095  0.0695194787000801  0.6603868134354869  1.0000
  H   H28       1.0  0.9532899081798262  0.9304785943322711  0.3396181891894302  1.0000
  H   H29       1.0  0.42830435448384213  0.2903063018041578  0.6070867119400702  1.0000
  H   H30       1.0  0.5717002176707808  0.7096900230918948  0.39291245372497496  1.0000
  C   C1        1.0  0.8244851080679467  0.5467107041183753  0.11110515535740717  1.0000
  C   C2        1.0  0.17550471120875238  0.45329343483690826  0.8888941245071253  1.0000
  C   C3        1.0  0.7414218489426717  0.5017951438038254  0.9814756462902494  1.0000
  C   C4        1.0  0.2585816421392124  0.4982064848450278  0.018522654648236898  1.0000
  C   C5        1.0  0.7353413090867917  0.4033926791727326  0.07309679649289079  1.0000
  C   C6        1.0  0.26464887204462434  0.5966096867324991  0.9269037192631375  1.0000
  C   C7        1.0  0.6792471232069558  0.29836650266277337  0.07236982435147606  1.0000
  C   C8        1.0  0.32073875506094396  0.7016375994030499  0.9276288483312457  1.0000
  C   C9        1.0  0.6292811216963158  0.2948327866311828  0.9788943639441643  1.0000
  C   C10       1.0  0.3707186098655698  0.7051679166785262  0.02110430312673368  1.0000
  C   C11       1.0  0.6377075139287315  0.3939344794019775  0.8890348333884149  1.0000
  C   C12       1.0  0.3622953830758532  0.6060636049645326  0.110963130903535  1.0000
  C   C13       1.0  0.6928884322980339  0.49853062273950854  0.8883579021851491  1.0000
  C   C14       1.0  0.3071169109312494  0.5014683733865439  0.11163973049276879  1.0000
  C   C15       1.0  0.559822575132067  0.18755413159739484  0.9715116878503522  1.0000
  C   C16       1.0  0.44016521836845607  0.8124535013850291  0.02849226211934311  1.0000
  C   C17       1.0  0.0328577688525655  0.031411678348035814  0.0346544980319905  1.0000
  C   C18       1.0  0.9671310089496715  0.968584602922249  0.9653230490074878  1.0000
  C   C19       1.0  0.49494289266152697  0.9438785667752897  0.3130355766522967  1.0000
  C   C20       1.0  0.5050620999416255  0.05612216390746031  0.6869679275038723  1.0000
  C   C21       1.0  0.38363150224209636  0.9640643409737987  0.39612691571088027  1.0000
  C   C22       1.0  0.6163829122822334  0.035941813646523706  0.6038733153607084  1.0000
  C   C23       1.0  0.3302891926527776  0.8676686201703138  0.47587205141137895  1.0000
  C   C24       1.0  0.6697257663379264  0.1323348691009372  0.5241310996028973  1.0000
  C   C25       1.0  0.2301860922315767  0.8906479058430606  0.553209193625527  1.0000
  C   C26       1.0  0.7698252831136188  0.10935378888603252  0.44679174315053427  1.0000
  C   C27       1.0  0.07834883195903325  0.8839376114329057  0.6890281276059796  1.0000
  C   C28       1.0  0.9216623134092998  0.11605875826512602  0.31097512988898063  1.0000
  C   C29       1.0  0.17882071558142335  0.0086331438194733  0.5483333532810946  1.0000
  C   C30       1.0  0.8211908468668625  0.9913676432132591  0.45167211049406586  1.0000
  C   C31       1.0  0.23211720986560638  0.10537797093650171  0.46924114975772113  1.0000
  C   C32       1.0  0.7678876023716086  0.8946236443466018  0.5307620918211954  1.0000
  C   C33       1.0  0.33659144996070023  0.08110987326678301  0.3941243510195634  1.0000
  C   C34       1.0  0.6634144918373224  0.9188926517442866  0.6058764612527838  1.0000
  C   C35       1.0  0.958712113620564  0.7333498148792684  0.28349467323675986  1.0000
  C   C36       1.0  0.04127575316402947  0.2666445411853147  0.7165097307436882  1.0000
  C   C37       1.0  0.07985649723861596  0.6389309317389547  0.35714194510457287  1.0000
  C   C38       1.0  0.920141924396539  0.36106974644315676  0.6428588886956419  1.0000
  C   C39       1.0  0.14847743153663373  0.536410806590105  0.3361051412815641  1.0000
  C   C40       1.0  0.8515236166891427  0.46358989875120216  0.6638956234818707  1.0000
  C   C41       1.0  0.25374193068491024  0.44320916333726507  0.4053302486881023  1.0000
  C   C42       1.0  0.7462668102096472  0.5567925311779832  0.5946657819659082  1.0000
  C   C43       1.0  0.2864418259439958  0.45393934914811507  0.49843328138623394  1.0000
  C   C44       1.0  0.7135672790509986  0.5460605646184149  0.5015654066332119  1.0000
  C   C45       1.0  0.35758112652486307  0.43340934401496883  0.6546898737560909  1.0000
  C   C46       1.0  0.6424170651334364  0.5665860091360743  0.34531328076302975  1.0000
  C   C47       1.0  0.21898420108789196  0.5567980743408755  0.520416786780828  1.0000
  C   C48       1.0  0.7810286645499714  0.44320276091546873  0.4795822458431758  1.0000
  C   C49       1.0  0.11575752824300169  0.6498967170329523  0.4497031074751519  1.0000
  C   C50       1.0  0.8842521223412377  0.35010052753517584  0.5502992112239584  1.0000
  N   N1        1.0  0.799418203806944  0.5893971214319081  0.008896307001656072  1.0000
  N   N2        1.0  0.20058135075758804  0.4106044549301515  0.9911042297029058  1.0000
  N   N3        1.0  0.7883444326081844  0.43554255876364323  0.1530449374737657  1.0000
  N   N4        1.0  0.21163660843555482  0.5644659101678258  0.8469553688257321  1.0000
  N   N5        1.0  0.0798455742805259  0.9999496234287121  0.6341540864291704  1.0000
  N   N6        1.0  0.920165578947831  4.6719323975703094e-05  0.3658541462246064  1.0000
  N   N7        1.0  0.16541032622721727  0.8142126347702571  0.6432867040148126  1.0000
  N   N8        1.0  0.8346006387751858  0.18578461952812828  0.356716290902888  1.0000
  N   N9        1.0  0.26734561267900153  0.5410458670184183  0.6194852739005086  1.0000
  N   N10       1.0  0.7326661200294852  0.4589540700579704  0.380514055819134  1.0000
  N   N11       1.0  0.37421219020958313  0.37893307617179767  0.58525350725715  1.0000
  N   N12       1.0  0.6257959644676917  0.6210650471157566  0.41474716190914757  1.0000
  O   O1        1.0  0.47115843599662804  0.20232031802890302  0.8917910344755315  1.0000
  O   O2        1.0  0.5287841856998342  0.7976894339109322  0.10822680539008896  1.0000
  O   O3        1.0  0.5893415288709535  0.08930119294404189  0.0432939748579955  1.0000
  O   O4        1.0  0.41066834046154815  0.9107014151485017  0.9566989157524689  1.0000
  O   O5        1.0  0.9549648500742125  0.014283464022597106  0.11926798342455669  1.0000
  O   O6        1.0  0.045026191341072816  0.9857146213062646  0.8807075479496832  1.0000
  O   O7        1.0  0.15766118382953917  0.09393083896099344  0.0012473605975741782  1.0000
  O   O8        1.0  0.8423305846637703  0.906063688719769  0.9987327747705737  1.0000
  O   O9        1.0  0.5741087106715241  0.026892365246936795  0.2519785810077907  1.0000
  O   O10       1.0  0.42589740363240475  0.9731093021091153  0.7480175186829926  1.0000
  O   O11       1.0  0.5108423279820684  0.8419035957987052  0.30267791473458766  1.0000
  O   O12       1.0  0.4891652968260018  0.1580971427965636  0.6973290740696854  1.0000
  O   O13       1.0  0.8932424346668528  0.8241262622860714  0.3053139951121012  1.0000
  O   O14       1.0  0.10674882753730232  0.17587079986636675  0.6946873853704858  1.0000
  O   O15       1.0  0.9121679738783894  0.7241321772973919  0.2010492851971435  1.0000
  O   O16       1.0  0.08781047098502628  0.2758567548296115  0.7989583918678919  1.0000
