data_image0
_chemical_formula_structural       Co2H26C24S4N2
_chemical_formula_sum              "Co2 H26 C24 S4 N2"
_cell_length_a       6.82293019620582
_cell_length_b       7.082140772087061
_cell_length_c       13.357121354175769
_cell_angle_alpha    97.01407402347041
_cell_angle_beta     105.08640179224162
_cell_angle_gamma    89.87613838728275

_space_group_name_H-M_alt    "P 1"
_space_group_IT_number       1

loop_
  _space_group_symop_operation_xyz
  'x, y, z'

loop_
  _atom_site_type_symbol
  _atom_site_label
  _atom_site_symmetry_multiplicity
  _atom_site_fract_x
  _atom_site_fract_y
  _atom_site_fract_z
  _atom_site_occupancy
  Co  Co1       1.0  0.5959907333230632  0.7103441411818425  0.1846997589505861  1.0000
  Co  Co2       1.0  0.591563773800587  0.2078043613074456  0.18662333696494224  1.0000
  H   H1        1.0  0.9134295400499112  0.8159902873231034  0.08568099523044737  1.0000
  H   H2        1.0  0.18041039143683693  0.32223351112850207  0.08762674415518032  1.0000
  H   H3        1.0  0.0929319973767733  0.77587977467897  0.9451416945809115  1.0000
  H   H4        1.0  0.8592526591479483  0.2837258009960379  0.946342103630599  1.0000
  H   H5        1.0  0.9208479411805471  0.8554747945697797  0.7673481988751975  1.0000
  H   H6        1.0  0.8544176208193761  0.3563904540007812  0.7676886406028915  1.0000
  H   H7        1.0  0.576254863271693  0.9894117396078459  0.7329228199274099  1.0000
  H   H8        1.0  0.16749854435761347  0.48127727115154084  0.7332741176331155  1.0000
  H   H9        1.0  0.3939510899136991  0.0265826822931459  0.8736513388717599  1.0000
  H   H10       1.0  0.49181856765072507  0.5167527165011307  0.8748984171017185  1.0000
  H   H11       1.0  0.6918711633533833  0.9839902529167619  0.39126803246845304  1.0000
  H   H12       1.0  0.6800425325783833  0.4939414991400285  0.38753503931791755  1.0000
  H   H13       1.0  0.7795182332338515  0.14413912849522603  0.5727856446892831  1.0000
  H   H14       1.0  0.7772412094056449  0.6497216263159656  0.56969450766168  1.0000
  H   H15       1.0  0.09124419171310189  0.05817264655710369  0.7023776117190295  1.0000
  H   H16       1.0  0.6088907118855075  0.5503060009517142  0.7007277493209045  1.0000
  H   H17       1.0  0.3079818388080326  0.7996787718120261  0.648102321135255  1.0000
  H   H18       1.0  0.34634275629522904  0.2843412792793388  0.6461629745898847  1.0000
  H   H19       1.0  0.22431173289918854  0.6435076527261857  0.466454407786884  1.0000
  H   H20       1.0  0.2452226935009421  0.1316827516167081  0.4640424253065803  1.0000
  H   H21       1.0  0.2510233848321946  0.6670925850471647  0.23466764331322312  1.0000
  H   H22       1.0  0.987597169313844  0.16997892344403448  0.2536577085626135  1.0000
  H   H23       1.0  0.44106963611803  0.6704237083347662  0.3385746775051572  1.0000
  H   H24       1.0  0.8837981015465387  0.18037719290743587  0.3518314760010597  1.0000
  H   H25       1.0  0.36535872688825327  0.8719939632054052  0.29020411795948325  1.0000
  H   H26       1.0  0.9176344377870436  0.3771172774727419  0.30080260698362343  1.0000
  C   C1        1.0  0.6416991118802714  0.9205223571204897  0.9876238985076855  1.0000
  C   C2        1.0  0.3560135779531066  0.4184890678343294  0.9892525015110324  1.0000
  C   C3        1.0  0.8399050261844748  0.8528883934269517  0.008105601902037969  1.0000
  C   C4        1.0  0.17689551296791  0.3557830636089677  0.00959574981322221  1.0000
  C   C5        1.0  0.9397399214454082  0.8301096197707383  0.9289684083579743  1.0000
  C   C6        1.0  0.9972817027316835  0.33369077214012327  0.9299753993346088  1.0000
  C   C7        1.0  0.8436353363727774  0.8757911073481636  0.8294703655809388  1.0000
  C   C8        1.0  0.9946193030389523  0.375452124238599  0.8301069217625993  1.0000
  C   C9        1.0  0.6489000747573287  0.9489799515671111  0.8099056734309471  1.0000
  C   C10       1.0  0.171288705361377  0.4438271001772022  0.8105856483605791  1.0000
  C   C11       1.0  0.5466266672811742  0.971004857575693  0.8884033937124586  1.0000
  C   C12       1.0  0.3527284973552867  0.46497940497366147  0.8896070301991587  1.0000
  C   C13       1.0  0.955901984152405  0.8071802709120136  0.4144925090791461  1.0000
  C   C14       1.0  0.450428201361646  0.30557370265968586  0.41119792076597855  1.0000
  C   C15       1.0  0.8293035587178039  0.9457166210819423  0.4470073056365464  1.0000
  C   C16       1.0  0.603715527029607  0.44985331796826233  0.44366533581104056  1.0000
  C   C17       1.0  0.8782860501751699  0.0351313803179494  0.5499603744699401  1.0000
  C   C18       1.0  0.6599439824387476  0.5368284577826401  0.5470964542886209  1.0000
  C   C19       1.0  0.05207778369680229  0.9857986998894149  0.6226706176028642  1.0000
  C   C20       1.0  0.5664122023979772  0.4801804059455108  0.6204872391871136  1.0000
  C   C21       1.0  0.17420778152649063  0.843095280683052  0.5919403483815061  1.0000
  C   C22       1.0  0.4181852144797986  0.33322638374585273  0.5896283739630023  1.0000
  C   C23       1.0  0.12768879849264891  0.7546312951211862  0.4891823898085619  1.0000
  C   C24       1.0  0.3600297400311305  0.24682998890475727  0.4864224840240682  1.0000
  S   S1        1.0  0.5030438120434297  0.9363202950915197  0.08390162612845839  1.0000
  S   S2        1.0  0.5906990900093874  0.43438294304233693  0.08684097455518013  1.0000
  S   S3        1.0  0.9109254814334378  0.6982937443465644  0.2846526773847486  1.0000
  S   S4        1.0  0.3656443017386408  0.19797601924174302  0.2808278923029661  1.0000
  N   N1        1.0  0.39126718946030803  0.7297789392559225  0.2705728046143037  1.0000
  N   N2        1.0  0.8753732499798302  0.23399188547746522  0.2830304368682874  1.0000
