data_image0
_chemical_formula_structural       Cd2H48C68N4O10
_chemical_formula_sum              "Cd2 H48 C68 N4 O10"
_cell_length_a       10.7447004822472
_cell_length_b       12.124375114324689
_cell_length_c       15.398267752037642
_cell_angle_alpha    102.86909226729426
_cell_angle_beta     110.8866911689902
_cell_angle_gamma    102.906253864978

_space_group_name_H-M_alt    "P 1"
_space_group_IT_number       1

loop_
  _space_group_symop_operation_xyz
  'x, y, z'

loop_
  _atom_site_type_symbol
  _atom_site_label
  _atom_site_symmetry_multiplicity
  _atom_site_fract_x
  _atom_site_fract_y
  _atom_site_fract_z
  _atom_site_occupancy
  Cd  Cd1       1.0  0.38125814565883326  0.0015302899101073046  0.6071398547914482  1.0000
  Cd  Cd2       1.0  0.6187410043671661  0.9984698147739695  0.3928636168452612  1.0000
  H   H1        1.0  0.07310679473823715  0.9475807274491289  0.5936781573298616  1.0000
  H   H2        1.0  0.9268968888562836  0.052418519397313894  0.4063216907946908  1.0000
  H   H3        1.0  0.821451320586611  0.8204987798628025  0.485006883218773  1.0000
  H   H4        1.0  0.1785512536059883  0.1795049844197649  0.5149942203768063  1.0000
  H   H5        1.0  0.9707291490860113  0.6294218663774985  0.29230043555863006  1.0000
  H   H6        1.0  0.029272938565718217  0.37057827593710624  0.7077005012182125  1.0000
  H   H7        1.0  0.21618730897820626  0.7628816053925789  0.41207003174213225  1.0000
  H   H8        1.0  0.7838156635381425  0.23711575859793044  0.5879325299132602  1.0000
  H   H9        1.0  0.6508420320579517  0.647633027867137  0.34307508641855117  1.0000
  H   H10       1.0  0.34915480999652704  0.35237638005363453  0.6569211824456216  1.0000
  H   H11       1.0  0.7487224210043877  0.6253579576035408  0.1769678036381563  1.0000
  H   H12       1.0  0.25127850194563456  0.3746396556280447  0.8230265183488896  1.0000
  H   H13       1.0  0.4601911184202335  0.45616806475987204  0.22353702375749407  1.0000
  H   H14       1.0  0.5398132703079598  0.5438330828334729  0.7764594632552428  1.0000
  H   H15       1.0  0.20678545964411654  0.3995888385997192  0.11993118473084506  1.0000
  H   H16       1.0  0.7932205232277025  0.6004042059876511  0.8800621715975293  1.0000
  H   H17       1.0  0.2987678460879977  0.6122615568883704  0.9461977626583642  1.0000
  H   H18       1.0  0.7012267836541214  0.38773522750930317  0.05379618621361714  1.0000
  H   H19       1.0  0.5543379444724366  0.6645877002101557  0.04822155743593019  1.0000
  H   H20       1.0  0.44566222758700047  0.33541536294004004  0.9517729870472134  1.0000
  H   H21       1.0  0.05806436482228615  0.48393090686572293  0.8951639381045593  1.0000
  H   H22       1.0  0.9419369225835935  0.5160676209573795  0.10482999848852614  1.0000
  H   H23       1.0  0.006455789850484518  0.3582247261724519  0.03605206608537509  1.0000
  H   H24       1.0  0.9935482344218584  0.6417755068293616  0.9639448063213293  1.0000
  H   H25       1.0  0.8206952943722925  0.17687254315519851  0.9660308253746235  1.0000
  H   H26       1.0  0.17930987676822238  0.8231302726025264  0.03397071907895106  1.0000
  H   H27       1.0  0.6048259932283456  0.02819595352310241  0.8191705301751211  1.0000
  H   H28       1.0  0.3951742977213188  0.9718067518078474  0.1808369659274831  1.0000
  H   H29       1.0  0.6288498055611242  0.24273953894270056  0.648620634449422  1.0000
  H   H30       1.0  0.37115424483542375  0.7572461895286868  0.35137539179801536  1.0000
  H   H31       1.0  0.8400275370765088  0.4028159685923073  0.7872430691067505  1.0000
  H   H32       1.0  0.1599758411037087  0.5971708348730688  0.21274715675060202  1.0000
  H   H33       1.0  0.46203943476259474  0.7776790525183446  0.6521565206086634  1.0000
  H   H34       1.0  0.5379616637730393  0.22232110707102487  0.34784418181984467  1.0000
  H   H35       1.0  0.5780548790192911  0.7610182712129545  0.817945927554234  1.0000
  H   H36       1.0  0.4219449880294021  0.23898369843609402  0.18205547813261086  1.0000
  H   H37       1.0  0.9863866566589153  0.9222326415117127  0.8292995795385207  1.0000
  H   H38       1.0  0.013613474739493397  0.07776025625075532  0.17070143683348243  1.0000
  H   H39       1.0  0.8686408103264112  0.9367074149131015  0.6615782336830732  1.0000
  H   H40       1.0  0.13136204010492492  0.0632872417009622  0.3384237757596224  1.0000
  H   H41       1.0  0.7011528411022921  0.9800461124683507  0.9361182720759869  1.0000
  H   H42       1.0  0.2988466317679864  0.019955032043988304  0.06388028109995499  1.0000
  H   H43       1.0  0.6365868200202413  0.040044630375440704  0.07564599660013731  1.0000
  H   H44       1.0  0.3634109009543351  0.9599620171121972  0.92435124956161  1.0000
  H   H45       1.0  0.8551269623089723  0.8289242378458825  0.21735811459207338  1.0000
  H   H46       1.0  0.14486117526514156  0.17108059280386811  0.7826429738703877  1.0000
  H   H47       1.0  0.9240204265515216  0.7704091089358301  0.07897740845583455  1.0000
  H   H48       1.0  0.07596763469449289  0.2295856636719762  0.9210262664096474  1.0000
  C   C1        1.0  0.04509654003845744  0.8740949400106998  0.5271031440801648  1.0000
  C   C2        1.0  0.9549038117519261  0.12590344406850562  0.4728963863933515  1.0000
  C   C3        1.0  0.9058260170589421  0.8030103324000495  0.46644054147775177  1.0000
  C   C4        1.0  0.09417715801584589  0.1969925715800898  0.5335585915362343  1.0000
  C   C5        1.0  0.8737275644643034  0.7141691172243797  0.37806501887098404  1.0000
  C   C6        1.0  0.1262727653472169  0.2858365459564851  0.6219339633107025  1.0000
  C   C7        1.0  0.9880696774462477  0.6988249340465772  0.35828579961536616  1.0000
  C   C8        1.0  0.011928824141470807  0.3011761740676421  0.6417144619551535  1.0000
  C   C9        1.0  0.12471339265127311  0.7722742482936484  0.4242019988099343  1.0000
  C   C10       1.0  0.8752852530003281  0.2277222880953502  0.575799363265119  1.0000
  C   C11       1.0  0.7260423398819069  0.6495953379442412  0.3103037776737095  1.0000
  C   C12       1.0  0.2739564625712276  0.35041408909989263  0.6896910171442128  1.0000
  C   C13       1.0  0.6759030995369741  0.6113859130989213  0.21126649602506112  1.0000
  C   C14       1.0  0.3240966175033222  0.3886206461663023  0.7887331615762745  1.0000
  C   C15       1.0  0.525500622527268  0.5673878385571599  0.1453378338982958  1.0000
  C   C16       1.0  0.47449856041608024  0.43261524186780065  0.8546564762365134  1.0000
  C   C17       1.0  0.4250287042518082  0.49095701755031484  0.16283619055440815  1.0000
  C   C18       1.0  0.5749716237605326  0.5090414380927442  0.8371607495952131  1.0000
  C   C19       1.0  0.2812023817420696  0.4593896006011705  0.103938420171886  1.0000
  C   C20       1.0  0.7188024976723284  0.5406079435313631  0.896056839208498  1.0000
  C   C21       1.0  0.23301251593331782  0.5043138897811731  0.02649407882916681  1.0000
  C   C22       1.0  0.7669923813146156  0.4956836006784756  0.9735031232941365  1.0000
  C   C23       1.0  0.33396450175516185  0.5771312245227734  0.006817123390739281  1.0000
  C   C24       1.0  0.6660323426454723  0.422863750431418  0.9931757089902785  1.0000
  C   C25       1.0  0.47760081710623575  0.6070532395597894  0.06411395570528812  1.0000
  C   C26       1.0  0.5223994990170836  0.3929452518652  0.9358816892823894  1.0000
  C   C27       1.0  0.08095715781287538  0.49204740407138564  0.9722473433227702  1.0000
  C   C28       1.0  0.9190484802357941  0.5079518797893883  0.027750383174556144  1.0000
  C   C29       1.0  0.9641116068051543  0.40035096805004866  0.9812060639899085  1.0000
  C   C30       1.0  0.03589216320731484  0.5996510935186097  0.018790450861502005  1.0000
  C   C31       1.0  0.8491264204319435  0.3042813022989607  0.8902268310287196  1.0000
  C   C32       1.0  0.15087413806222832  0.6957153963411002  0.10976787635229351  1.0000
  C   C33       1.0  0.7817143540008401  0.19543891739230193  0.8968814885983746  1.0000
  C   C34       1.0  0.21829034248781917  0.8045602406155299  0.10312118419840743  1.0000
  C   C35       1.0  0.6633034495399315  0.11181706182198782  0.8158903254005377  1.0000
  C   C36       1.0  0.33669928655007914  0.8881820770624815  0.18411382144249439  1.0000
  C   C37       1.0  0.6753061880746499  0.23245052119130355  0.7206588816293474  1.0000
  C   C38       1.0  0.32469748777619156  0.7675415360082953  0.27933827688216434  1.0000
  C   C39       1.0  0.7942112684049787  0.32053055860077967  0.7984833575318928  1.0000
  C   C40       1.0  0.20579177089660317  0.6794624662470242  0.20151188607538012  1.0000
  C   C41       1.0  0.587595313215175  0.8761192177696415  0.5494103803928779  1.0000
  C   C42       1.0  0.41240713294789794  0.12388185702744182  0.4505895234090288  1.0000
  C   C43       1.0  0.6580294869268287  0.8587216449927556  0.646288568105099  1.0000
  C   C44       1.0  0.3419728906518387  0.14127656140922806  0.3537166117128691  1.0000
  C   C45       1.0  0.5768956225023628  0.8081140780065468  0.6904492739140619  1.0000
  C   C46       1.0  0.4231041224613179  0.19188518426605589  0.3095515795600717  1.0000
  C   C47       1.0  0.6413975065854772  0.7987112531441983  0.783251440704788  1.0000
  C   C48       1.0  0.3586008788617434  0.2012871297026139  0.21674891623401032  1.0000
  C   C49       1.0  0.7889692833460487  0.8423564225087151  0.833142560018622  1.0000
  C   C50       1.0  0.21102664327263196  0.15763835502868775  0.16685780898573907  1.0000
  C   C51       1.0  0.8717457568686058  0.8897490336917643  0.7892792525884926  1.0000
  C   C52       1.0  0.12825436858528858  0.11024388196167219  0.21072111620253506  1.0000
  C   C53       1.0  0.8057440947774948  0.8972677968855792  0.6958866394586135  1.0000
  C   C54       1.0  0.19426012705932294  0.10272770337235931  0.3041171616813755  1.0000
  C   C55       1.0  0.8147204578530423  0.8699145863145009  0.9986365562786828  1.0000
  C   C56       1.0  0.18527806751271922  0.13008645023585794  0.0013662956157319125  1.0000
  C   C57       1.0  0.7351364965127446  0.9470500117080648  0.9976317504763654  1.0000
  C   C58       1.0  0.2648627518202246  0.052952871916311  0.002369683049153101  1.0000
  C   C59       1.0  0.6984314421923586  0.9799434477048411  0.07534169271281141  1.0000
  C   C60       1.0  0.30156692722049877  0.020062196352661515  0.9246587635151254  1.0000
  C   C61       1.0  0.7394295466332467  0.9362866109159855  0.15429537990873848  1.0000
  C   C62       1.0  0.26056584948682365  0.06371910285676562  0.8457037256932265  1.0000
  C   C63       1.0  0.821594167115222  0.8610558570242831  0.15500908964433077  1.0000
  C   C64       1.0  0.1783955782907114  0.1389480423753895  0.8449922053277843  1.0000
  C   C65       1.0  0.8593891875154965  0.8278960523660288  0.0780971333551718  1.0000
  C   C66       1.0  0.14060069006529116  0.17210331109035343  0.9219039669595259  1.0000
  C   C67       1.0  0.6942670104021146  0.9667278367456832  0.2355586697692757  1.0000
  C   C68       1.0  0.30572923077016867  0.03328243147752371  0.7644395696764903  1.0000
  N   N1        1.0  0.15377918448661632  0.8597667539032442  0.5069358057073854  1.0000
  N   N2        1.0  0.8462221742533983  0.1402315592283117  0.4930659018573777  1.0000
  N   N3        1.0  0.6094885368916819  0.1299356233809448  0.7289615790365216  1.0000
  N   N4        1.0  0.3905123234184417  0.8700591035645718  0.271038666547561  1.0000
  O   O1        1.0  0.45934171452660183  0.8730725033647675  0.5200950138216597  1.0000
  O   O2        1.0  0.5406614843262288  0.12693032905151821  0.4799067095162214  1.0000
  O   O3        1.0  0.6607213340208492  0.8930146256765431  0.501081183610907  1.0000
  O   O4        1.0  0.33928336246781754  0.10698453233128906  0.49892148918587503  1.0000
  O   O5        1.0  0.8598112464242504  0.8362133864793935  0.9262217436581394  1.0000
  O   O6        1.0  0.1401898758894333  0.1637867015461225  0.07378154909426367  1.0000
  O   O7        1.0  0.6355034183698648  0.0465063965485299  0.2411753715630808  1.0000
  O   O8        1.0  0.36449963227374854  0.9535082330217367  0.7588266457213563  1.0000
  O   O9        1.0  0.7175402146441315  0.908405319345313  0.2963630562397268  1.0000
  O   O10       1.0  0.2824514751260949  0.09160586038841963  0.7036368639752766  1.0000
