data_image0
_chemical_formula_structural       Cd4H20C12S4N4O8
_chemical_formula_sum              "Cd4 H20 C12 S4 N4 O8"
_cell_length_a       5.624360537091827
_cell_length_b       9.552685779095201
_cell_length_c       9.571040869082005
_cell_angle_alpha    90.00015453329556
_cell_angle_beta     89.99956944536174
_cell_angle_gamma    89.99950201863142

_space_group_name_H-M_alt    "P 1"
_space_group_IT_number       1

loop_
  _space_group_symop_operation_xyz
  'x, y, z'

loop_
  _atom_site_type_symbol
  _atom_site_label
  _atom_site_symmetry_multiplicity
  _atom_site_fract_x
  _atom_site_fract_y
  _atom_site_fract_z
  _atom_site_occupancy
  Cd  Cd1       1.0  0.8593583065033599  0.33526735482173814  0.41147322717004187  1.0000
  Cd  Cd2       1.0  0.6406343936391181  0.664732998174088  0.9114740974165015  1.0000
  Cd  Cd3       1.0  0.3593619572373468  0.16474617311786938  0.5885248005487964  1.0000
  Cd  Cd4       1.0  0.14063870821667018  0.8352569929187297  0.08853145589423407  1.0000
  H   H1        1.0  0.44474683471926085  0.5103964078349887  0.6057426600831306  1.0000
  H   H2        1.0  0.05525004498871059  0.4895879607241794  0.10573827433776725  1.0000
  H   H3        1.0  0.9447536340182905  0.9896129276045825  0.3942469827475036  1.0000
  H   H4        1.0  0.5552552979968793  0.010389473590905097  0.8942537226245545  1.0000
  H   H5        1.0  0.5036535071270762  0.6000525040904634  0.4460285780782128  1.0000
  H   H6        1.0  0.9963476213778005  0.39994270585670216  0.946027217448453  1.0000
  H   H7        1.0  0.0036453375198845996  0.8999622811599935  0.5539608361171771  1.0000
  H   H8        1.0  0.4963468997264043  0.10004393424568289  0.05396605301402249  1.0000
  H   H9        1.0  0.16151352917079007  0.6974062884819716  0.569600111067629  1.0000
  H   H10       1.0  0.3384927231205736  0.3025915935016173  0.06959714914478349  1.0000
  H   H11       1.0  0.6615047627242346  0.8026066234932256  0.43039490602929914  1.0000
  H   H12       1.0  0.8384930186381963  0.19739273254541698  0.9303915632063136  1.0000
  H   H13       1.0  0.8175941504701354  0.5689946548795818  0.6029345272068126  1.0000
  H   H14       1.0  0.6824080051090745  0.4309996504870596  0.10293466751821258  1.0000
  H   H15       1.0  0.3175929628089803  0.9310132526408946  0.3970692347326689  1.0000
  H   H16       1.0  0.18241424898898362  0.06898968004342979  0.8970776893507516  1.0000
  H   H17       1.0  0.0282247240318796  0.4693211688858411  0.6639868860960121  1.0000
  H   H18       1.0  0.4717749335675734  0.5306727746582779  0.1639787666883095  1.0000
  H   H19       1.0  0.528210471790011  0.030696186368089705  0.3360135835292367  1.0000
  H   H20       1.0  0.9717992380720157  0.9693060612975869  0.8360253894906005  1.0000
  C   C1        1.0  0.3794333120276718  0.5297899376718432  0.49960807772092136  1.0000
  C   C2        1.0  0.12057430818997258  0.4701996566099568  0.9996084962239846  1.0000
  C   C3        1.0  0.8794300832351706  0.9702291611810311  0.5003901992481019  1.0000
  C   C4        1.0  0.6205752200225874  0.029780576200558094  0.0003863596051231999  1.0000
  C   C5        1.0  0.13687716900120245  0.6012867063809322  0.5075754285789529  1.0000
  C   C6        1.0  0.3631299118061334  0.39871205889640743  0.007572627763629197  1.0000
  C   C7        1.0  0.6368608539102991  0.8987252877745178  0.4924238717466378  1.0000
  C   C8        1.0  0.8631307649034523  0.10127737230079956  0.9924212047418093  1.0000
  C   C9        1.0  0.05688474688425058  0.6447519843702877  0.3600838620182642  1.0000
  C   C10       1.0  0.4431176251265682  0.35524561667055105  0.8600826027124027  1.0000
  C   C11       1.0  0.5568990920292051  0.8552541475556265  0.6399272687235962  1.0000
  C   C12       1.0  0.9431079032237829  0.14474862995044896  0.13993596799825528  1.0000
  S   S1        1.0  0.3772180094017016  0.36483097173659457  0.402458546672193  1.0000
  S   S2        1.0  0.12277135068949717  0.6351646474155854  0.9024625452029439  1.0000
  S   S3        1.0  0.8772272045803644  0.1351814158502904  0.597532091954619  1.0000
  S   S4        1.0  0.6227732451086752  0.8648191562392356  0.09753681455748617  1.0000
  N   N1        1.0  0.9609052916946009  0.5096381584742175  0.5731192040224184  1.0000
  N   N2        1.0  0.5390830382611113  0.49036130245328735  0.07312220230800649  1.0000
  N   N3        1.0  0.46090107180580725  0.9903700455874824  0.4268818636605971  1.0000
  N   N4        1.0  0.03911107561972219  0.009638199823548601  0.9268959833059397  1.0000
  O   O1        1.0  0.17027854929948916  0.7497022105361208  0.30993875125479053  1.0000
  O   O2        1.0  0.3297298266521835  0.25027432175677683  0.809935591277515  1.0000
  O   O3        1.0  0.6702759583915423  0.750307515057919  0.6900572736637398  1.0000
  O   O4        1.0  0.8297019195579761  0.24970481611256898  0.19005420291482264  1.0000
  O   O5        1.0  0.8984213320419555  0.5754110842429155  0.2975819968780015  1.0000
  O   O6        1.0  0.6015693335150017  0.42458896847649885  0.7975802801047676  1.0000
  O   O7        1.0  0.39846060748375567  0.9246016341411334  0.7024224687931876  1.0000
  O   O8        1.0  0.10153320246628537  0.07541753460054679  0.20243032829687013  1.0000
