data_image0
_chemical_formula_structural       Hg2H24C28S4N8
_chemical_formula_sum              "Hg2 H24 C28 S4 N8"
_cell_length_a       5.714038606292357
_cell_length_b       9.452631397160008
_cell_length_c       14.850706319016451
_cell_angle_alpha    94.25412147198834
_cell_angle_beta     89.99756080498851
_cell_angle_gamma    89.99973023437194

_space_group_name_H-M_alt    "P 1"
_space_group_IT_number       1

loop_
  _space_group_symop_operation_xyz
  'x, y, z'

loop_
  _atom_site_type_symbol
  _atom_site_label
  _atom_site_symmetry_multiplicity
  _atom_site_fract_x
  _atom_site_fract_y
  _atom_site_fract_z
  _atom_site_occupancy
  Hg  Hg1       1.0  0.31256918895483204  0.49999748066569777  0.7500083259537007  1.0000
  Hg  Hg2       1.0  0.6874330151518819  0.4999946553970034  0.2500024687131486  1.0000
  H   H1        1.0  0.38520551678839615  0.8330135648882973  0.7761817273494032  1.0000
  H   H2        1.0  0.3851873949436921  0.1669940781617569  0.7238151068297682  1.0000
  H   H3        1.0  0.6147616869704821  0.1669924646041281  0.2238223935814503  1.0000
  H   H4        1.0  0.6147938104022613  0.8330120909937405  0.27617892052733584  1.0000
  H   H5        1.0  0.6420915917722567  0.025210562135079304  0.8489498448365467  1.0000
  H   H6        1.0  0.6420675383851061  0.9748118116809367  0.6510427170836054  1.0000
  H   H7        1.0  0.35788786250690646  0.9747891304012909  0.1510519213115771  1.0000
  H   H8        1.0  0.35791366765273125  0.025197623778701893  0.3489454221737347  1.0000
  H   H9        1.0  0.073449720439541  0.6970468901361854  0.9490747789756497  1.0000
  H   H10       1.0  0.0734734788306  0.3029531478032155  0.5509289394482195  1.0000
  H   H11       1.0  0.9265507357420547  0.3029613909445601  0.0509200332423987  1.0000
  H   H12       1.0  0.9265707266311836  0.6970368100152056  0.4490857804985424  1.0000
  H   H13       1.0  0.791029915757214  0.519198236112011  0.8785391906112565  1.0000
  H   H14       1.0  0.7910708470413184  0.4808020016444772  0.6214617179978815  1.0000
  H   H15       1.0  0.2089705403837598  0.4808047596808435  0.12145399576812818  1.0000
  H   H16       1.0  0.20899085961686137  0.5191975216260758  0.37855216015589827  1.0000
  H   H17       1.0  0.0157789822761032  0.08778099706943006  0.9173644877622422  1.0000
  H   H18       1.0  0.0157459767843378  0.9122209959088681  0.5826388872647712  1.0000
  H   H19       1.0  0.984202223013888  0.9122314995089554  0.08263256724486472  1.0000
  H   H20       1.0  0.9842684786157816  0.0877786400776941  0.41736691619691874  1.0000
  H   H21       1.0  0.21920949374073473  0.9548547526390221  0.9457932920606709  1.0000
  H   H22       1.0  0.21920981054398683  0.04513925368072339  0.5542135754388227  1.0000
  H   H23       1.0  0.7807699617321829  0.04515566902547619  0.054200286426507205  1.0000
  H   H24       1.0  0.7808046447157649  0.9548540269031208  0.44579121907961655  1.0000
  C   C1        1.0  0.5396064677471699  0.8080844415148363  0.8153901230171883  1.0000
  C   C2        1.0  0.5395820482326669  0.1919318225325171  0.684603865914184  1.0000
  C   C3        1.0  0.4603729870586903  0.1919174378842357  0.1846070448288444  1.0000
  C   C4        1.0  0.460397407268232  0.8080754354205337  0.3153881987479892  1.0000
  C   C5        1.0  0.6834803331935363  0.9136755854668549  0.8547752485332866  1.0000
  C   C6        1.0  0.6834608764539921  0.08634112144032001  0.6452188716923005  1.0000
  C   C7        1.0  0.3165061221393514  0.08632315808257118  0.1452183867609946  1.0000
  C   C8        1.0  0.31651507942223844  0.9136683234344504  0.354768594677772  1.0000
  C   C9        1.0  0.8814865525299211  0.8761070779632972  0.9032265815981972  1.0000
  C   C10       1.0  0.8814897825157645  0.12390073661293134  0.5967730248069643  1.0000
  C   C11       1.0  0.1184964026922302  0.12389695093303033  0.09676867954475202  1.0000
  C   C12       1.0  0.11851767288085571  0.876102109836154  0.4032309279884601  1.0000
  C   C13       1.0  0.9233439657923626  0.7313956441735955  0.9107597177183564  1.0000
  C   C14       1.0  0.9233629894069539  0.26860960457898386  0.5892463226200634  1.0000
  C   C15       1.0  0.07664773958071439  0.2686094080569815  0.089238291015441  1.0000
  C   C16       1.0  0.076674215998537  0.7313920033746796  0.4107703592263547  1.0000
  C   C17       1.0  0.7679373719822851  0.632159619117843  0.8710394473651776  1.0000
  C   C18       1.0  0.7679561423771019  0.3678455849252984  0.6289658546238783  1.0000
  C   C19       1.0  0.23204908283338452  0.36784327431837477  0.1289611409789515  1.0000
  C   C20       1.0  0.23208281313836923  0.6321570837870779  0.3710508832243704  1.0000
  C   C21       1.0  0.03465436022202079  0.9875615890186605  0.9496921876484522  1.0000
  C   C22       1.0  0.034652982925216194  0.0124387434347852  0.5503083318797976  1.0000
  C   C23       1.0  0.9653233451720594  0.012446720425508298  0.0503006059278093  1.0000
  C   C24       1.0  0.9653562223133039  0.9875609019669082  0.4496967986946316  1.0000
  C   C25       1.0  0.419388391830239  0.6983847692836703  0.5933277047907382  1.0000
  C   C26       1.0  0.4193904761360442  0.30160150978524297  0.9066719074044869  1.0000
  C   C27       1.0  0.5806050633504326  0.30161602111129326  0.4066714257152384  1.0000
  C   C28       1.0  0.5806414819304068  0.6983624974573458  0.09330036536908891  1.0000
  S   S1        1.0  0.1626097554477539  0.6623591811664439  0.6391597342531837  1.0000
  S   S2        1.0  0.1626094028651153  0.3376376826727637  0.8608555873091674  1.0000
  S   S3        1.0  0.8373889490094726  0.3376404177792551  0.36084876086248135  1.0000
  S   S4        1.0  0.8374015524549422  0.6623440132391494  0.13914253502384347  1.0000
  N   N1        1.0  0.5807833075356471  0.6694727404515319  0.8231550754618767  1.0000
  N   N2        1.0  0.5807812700213688  0.3305409806111753  0.6768453512705291  1.0000
  N   N3        1.0  0.41919614697730617  0.33053015310272127  0.1768455129022399  1.0000
  N   N4        1.0  0.41923143564291376  0.669467151037267  0.3231602273485663  1.0000
  N   N5        1.0  0.5969100072983123  0.7287105244523602  0.5591786264477818  1.0000
  N   N6        1.0  0.5969014625283293  0.27126643687508784  0.9408305704113147  1.0000
  N   N7        1.0  0.4030991969490998  0.2712826443007045  0.4408342429126719  1.0000
  N   N8        1.0  0.40312174412529345  0.7287058702886284  0.05915560848693959  1.0000
