data_image0
_chemical_formula_structural       Ag2H20C24S2N2O6
_chemical_formula_sum              "Ag2 H20 C24 S2 N2 O6"
_cell_length_a       5.2427684252061955
_cell_length_b       10.858490955536977
_cell_length_c       11.183715335970282
_cell_angle_alpha    119.09935810711949
_cell_angle_beta     88.14899902279497
_cell_angle_gamma    99.14122669456678

_space_group_name_H-M_alt    "P 1"
_space_group_IT_number       1

loop_
  _space_group_symop_operation_xyz
  'x, y, z'

loop_
  _atom_site_type_symbol
  _atom_site_label
  _atom_site_symmetry_multiplicity
  _atom_site_fract_x
  _atom_site_fract_y
  _atom_site_fract_z
  _atom_site_occupancy
  Ag  Ag1       1.0  0.7704282685179181  0.1748433140006682  0.054954299722588515  1.0000
  Ag  Ag2       1.0  0.22957945084282017  0.8251559908806954  0.9450506459954082  1.0000
  H   H1        1.0  0.6407431411483274  0.9051060450709798  0.7875128265500635  1.0000
  H   H2        1.0  0.3592615841607341  0.09489532076333519  0.21248772012508965  1.0000
  H   H3        1.0  0.7798933292055708  0.731015705209913  0.5653507337225604  1.0000
  H   H4        1.0  0.22010880272269867  0.26898241830471653  0.4346474005118067  1.0000
  H   H5        1.0  0.2239066870992943  0.823468398340566  0.3562257612071703  1.0000
  H   H6        1.0  0.7760873417872247  0.17652742927865717  0.6437704085159763  1.0000
  H   H7        1.0  0.07751082601979677  0.9954901890792128  0.5821910311102839  1.0000
  H   H8        1.0  0.9224853068707902  0.004506745537504704  0.41780655047477205  1.0000
  H   H9        1.0  0.5859128184465304  0.5032837977628899  0.4223354795805533  1.0000
  H   H10       1.0  0.4140883836041453  0.4967196193414266  0.5776687151244387  1.0000
  H   H11       1.0  0.8690217611934514  0.3238243835772677  0.36774260786491897  1.0000
  H   H12       1.0  0.13098605635851607  0.6761834232564894  0.6322654285960567  1.0000
  H   H13       1.0  0.21463128530926667  0.2934185949853116  0.19674464094630645  1.0000
  H   H14       1.0  0.7853757393768602  0.7065860077892765  0.8032627887655577  1.0000
  H   H15       1.0  0.23844464634802162  0.43150996023033616  0.07150086081696118  1.0000
  H   H16       1.0  0.7615572503772656  0.568488158980763  0.9285008498941563  1.0000
  H   H17       1.0  0.966079296584475  0.6198363985966752  0.1357045457870001  1.0000
  H   H18       1.0  0.033915739951147786  0.38015626322388124  0.8642928228787028  1.0000
  H   H19       1.0  0.5776317346343873  0.7065620617057745  0.24280790195565052  1.0000
  H   H20       1.0  0.4223602395634317  0.293431596634278  0.7571818850202163  1.0000
  C   C1        1.0  0.35112056361955263  0.9624485425802903  0.6986806072674767  1.0000
  C   C2        1.0  0.6488809324348495  0.03755487990343911  0.3013191168415759  1.0000
  C   C3        1.0  0.545130342868049  0.8853333604272463  0.6934578801285624  1.0000
  C   C4        1.0  0.4548651636340466  0.11466993651613677  0.3065453680973603  1.0000
  C   C5        1.0  0.6226357833691053  0.786401658704001  0.5679584920673262  1.0000
  C   C6        1.0  0.3773561315884706  0.21360262507594296  0.4320452215414504  1.0000
  C   C7        1.0  0.5128401669387017  0.764547371074464  0.44430335245247227  1.0000
  C   C8        1.0  0.4871599292716338  0.2354507098761259  0.5556965525669779  1.0000
  C   C9        1.0  0.3108686497293931  0.8393861905073692  0.4509628538911129  1.0000
  C   C10       1.0  0.6891284031138981  0.1606150136778552  0.5490376229708642  1.0000
  C   C11       1.0  0.23176352453783977  0.9370252886753432  0.5767861325985919  1.0000
  C   C12       1.0  0.7682314736167584  0.0629737462307034  0.42320796151610546  1.0000
  C   C13       1.0  0.7600308660957111  0.5761688895673416  0.2856098633015165  1.0000
  C   C14       1.0  0.2399594441594175  0.4238268593791119  0.7143844832766745  1.0000
  C   C15       1.0  0.7331264044532732  0.48994034634372247  0.34823590022269  1.0000
  C   C16       1.0  0.2668723806188424  0.5100598316685561  0.6517631996839552  1.0000
  C   C17       1.0  0.8879218331583231  0.3854896619387064  0.3139108952661971  1.0000
  C   C18       1.0  0.11208648369525781  0.6145107170590477  0.6860891860261018  1.0000
  C   C19       1.0  0.07089096324231998  0.36163665292581726  0.21219078614906542  1.0000
  C   C20       1.0  0.9291115404611859  0.6383636037592383  0.7878101369025429  1.0000
  C   C21       1.0  0.09376240550606235  0.44696286881728026  0.14755434641000406  1.0000
  C   C22       1.0  0.9062281494374389  0.5530339477902686  0.852440500457618  1.0000
  C   C23       1.0  0.9411767409121197  0.5519824515895664  0.18330134188072822  1.0000
  C   C24       1.0  0.0588098601970017  0.4480142820416688  0.8166952583186883  1.0000
  S   S1        1.0  0.278429280343488  0.10389667943346129  0.8563654474387332  1.0000
  S   S2        1.0  0.7215732233600248  0.8961035772516012  0.14363547561288192  1.0000
  N   N1        1.0  0.6078583068370733  0.6808115364286847  0.31803953592891787  1.0000
  N   N2        1.0  0.3921324927947936  0.3191863478399597  0.6819558112281355  1.0000
  O   O1        1.0  0.4569632810083776  0.23461572535039468  0.8814299583204601  1.0000
  O   O2        1.0  0.5430247787455541  0.7653863508898695  0.11856556684936241  1.0000
  O   O3        1.0  0.3302714544331026  0.0664333467715252  0.964697949278239  1.0000
  O   O4        1.0  0.6697438691072721  0.9335650553254665  0.03530388360592686  1.0000
  O   O5        1.0  0.0050544053359687195  0.11354124421714575  0.843689504704244  1.0000
  O   O6        1.0  0.9949439287404404  0.8864504253874443  0.15631186917455148  1.0000
