data_image0
_chemical_formula_structural       Li4H24C12O20
_chemical_formula_sum              "Li4 H24 C12 O20"
_cell_length_a       4.625362559988614
_cell_length_b       5.246438843552979
_cell_length_c       19.919140153514178
_cell_angle_alpha    89.99903858345465
_cell_angle_beta     89.99905778282863
_cell_angle_gamma    96.57297202564453

_space_group_name_H-M_alt    "P 1"
_space_group_IT_number       1

loop_
  _space_group_symop_operation_xyz
  'x, y, z'

loop_
  _atom_site_type_symbol
  _atom_site_label
  _atom_site_symmetry_multiplicity
  _atom_site_fract_x
  _atom_site_fract_y
  _atom_site_fract_z
  _atom_site_occupancy
  Li  Li1       1.0  0.34970873985017903  0.6697313439583824  0.7828596430576695  1.0000
  Li  Li2       1.0  0.650285798939656  0.8302662046941123  0.28286441810372753  1.0000
  Li  Li3       1.0  0.6502955887631927  0.3302664474759709  0.2171409539861386  1.0000
  Li  Li4       1.0  0.3497072273846982  0.16972773061401375  0.7171366808616993  1.0000
  H   H1        1.0  0.9849866743690967  0.0118967577005336  0.8180436347841249  1.0000
  H   H2        1.0  0.015000924319345216  0.48810332878348833  0.31804793254223535  1.0000
  H   H3        1.0  0.015000109550861403  0.9880990849438119  0.18195696204929848  1.0000
  H   H4        1.0  0.9850084641786483  0.511900226113319  0.6819516604479503  1.0000
  H   H5        1.0  0.9290138986219959  0.8937791685020784  0.7477941132058772  1.0000
  H   H6        1.0  0.07097890811292021  0.6062181513707898  0.24779790442687494  1.0000
  H   H7        1.0  0.07098080058691639  0.10621093321763911  0.2522064837923281  1.0000
  H   H8        1.0  0.9290199124082364  0.3937873034456629  0.752203194493255  1.0000
  H   H9        1.0  0.09882917726029211  0.61478536370862  0.9071077660425001  1.0000
  H   H10       1.0  0.9011829172251284  0.8852342817061611  0.40710694158284605  1.0000
  H   H11       1.0  0.9011568721931127  0.3852047229186581  0.09289232881229739  1.0000
  H   H12       1.0  0.0988315308487344  0.1147750367107179  0.5928926514131091  1.0000
  H   H13       1.0  0.7147022770456106  0.8149682300306225  0.928596113494194  1.0000
  H   H14       1.0  0.2852987643504292  0.6850538855224144  0.4285963528281087  1.0000
  H   H15       1.0  0.2852743867963667  0.18501608574644024  0.0714074955058877  1.0000
  H   H16       1.0  0.7147190699516203  0.3149650300893612  0.5714052482299579  1.0000
  H   H17       1.0  0.24330570133059126  0.22118567214001672  0.9241165636990728  1.0000
  H   H18       1.0  0.7567022261686986  0.27883632856834595  0.4241136792896896  1.0000
  H   H19       1.0  0.7566726778618644  0.778812074045831  0.0758830289442187  1.0000
  H   H20       1.0  0.24332111792367067  0.721174923344428  0.5758818975653383  1.0000
  H   H21       1.0  0.7191352800481711  0.3089484581847159  0.9846536305513708  1.0000
  H   H22       1.0  0.28086442561967573  0.19105368597321612  0.484653124282424  1.0000
  H   H23       1.0  0.2808368144283407  0.6910339313113527  0.015348472319779195  1.0000
  H   H24       1.0  0.7191594071393724  0.8089614034667322  0.5153459667464586  1.0000
  C   C1        1.0  0.6024095557796018  0.2729587723300427  0.8557407845235119  1.0000
  C   C2        1.0  0.39760076248424536  0.22704955697153648  0.3557405836093181  1.0000
  C   C3        1.0  0.3975602165863776  0.7270562226741221  0.14425328549771166  1.0000
  C   C4        1.0  0.6024205810793147  0.7729290814691794  0.6442554955932633  1.0000
  C   C5        1.0  0.40866598908303337  0.3786549553091874  0.9087584838440462  1.0000
  C   C6        1.0  0.5913451399366992  0.12136719025064482  0.4087590880062492  1.0000
  C   C7        1.0  0.5913140625308628  0.6213389573746895  0.09124211292112958  1.0000
  C   C8        1.0  0.40867628531686506  0.878645976789457  0.5912405050409362  1.0000
  C   C9        1.0  0.5938425738648974  0.4662626663038836  0.9702159630153843  1.0000
  C   C10       1.0  0.4061653177956046  0.033749328967125805  0.4702150473287077  1.0000
  C   C11       1.0  0.4061364979456883  0.5337235717866022  0.029785637877289196  1.0000
  C   C12       1.0  0.5938616573986053  0.966273438803306  0.5297825375713998  1.0000
  O   O1        1.0  0.6094010537840335  0.37402793297125214  0.7974441207400459  1.0000
  O   O2        1.0  0.39059178814028434  0.1259793674358107  0.2974478769209554  1.0000
  O   O3        1.0  0.3905888716448445  0.6259755881764378  0.20255798214281379  1.0000
  O   O4        1.0  0.6094045833357029  0.8740069008107411  0.702554226228834  1.0000
  O   O5        1.0  0.09277071259885618  0.945607543823989  0.7792824121292197  1.0000
  O   O6        1.0  0.9072192941638093  0.5543876642381277  0.2792862196313591  1.0000
  O   O7        1.0  0.9072163158859967  0.05439021754072829  0.2207191887465854  1.0000
  O   O8        1.0  0.09278503460394208  0.44561012716742  0.7207138753827493  1.0000
  O   O9        1.0  0.7464356794238755  0.09335872810016352  0.8739687560818367  1.0000
  O   O10       1.0  0.2535728140359055  0.4066574642099994  0.3739659927841004  1.0000
  O   O11       1.0  0.2535496352542239  0.9066256025676721  0.1260318408537344  1.0000
  O   O12       1.0  0.7464459608453708  0.5933518613929679  0.626027575912289  1.0000
  O   O13       1.0  0.2754380841959545  0.5856656421820645  0.8805736100382829  1.0000
  O   O14       1.0  0.7245747421238136  0.9143643584628478  0.3805755537541201  1.0000
  O   O15       1.0  0.7245537592998659  0.4143359639823531  0.11942698680091719  1.0000
  O   O16       1.0  0.2754332177457641  0.08564494880035062  0.6194265493050678  1.0000
  O   O17       1.0  0.804619480579561  0.6795760099256399  0.9534878525909531  1.0000
  O   O18       1.0  0.19538257258521702  0.8204413180829138  0.4534888913855396  1.0000
  O   O19       1.0  0.19535959153976276  0.320410228107221  0.04651274424232099  1.0000
  O   O20       1.0  0.8046415045843532  0.17957569010621915  0.5465117057154244  1.0000
