data_image0
_chemical_formula_structural       Zn2H36C20N4O16
_chemical_formula_sum              "Zn2 H36 C20 N4 O16"
_cell_length_a       9.53099679804197
_cell_length_b       9.558551612029255
_cell_length_c       9.493512075153102
_cell_angle_alpha    97.86798843454429
_cell_angle_beta     120.13064494323164
_cell_angle_gamma    90.00040212095948

_space_group_name_H-M_alt    "P 1"
_space_group_IT_number       1

loop_
  _space_group_symop_operation_xyz
  'x, y, z'

loop_
  _atom_site_type_symbol
  _atom_site_label
  _atom_site_symmetry_multiplicity
  _atom_site_fract_x
  _atom_site_fract_y
  _atom_site_fract_z
  _atom_site_occupancy
  Zn  Zn1       1.0  0.2302447994910892  0.24999555118593972  0.9999972516476208  1.0000
  Zn  Zn2       1.0  0.769749922570007  0.750001702410657  0.9999985778031261  1.0000
  H   H1        1.0  0.5474941137796846  0.368130072764771  0.18962934698268438  1.0000
  H   H2        1.0  0.3578710614106911  0.1318686490562229  0.8103747887919825  1.0000
  H   H3        1.0  0.4525057335682662  0.6318655437790783  0.8103736010855729  1.0000
  H   H4        1.0  0.6421319325174298  0.8681354408965805  0.18962771088084926  1.0000
  H   H5        1.0  0.5232763051538143  0.20215410681869633  0.20055938530152423  1.0000
  H   H6        1.0  0.32271654679448153  0.29784436594227515  0.7994421766998842  1.0000
  H   H7        1.0  0.47672108113897593  0.7978415048743488  0.7994402454078512  1.0000
  H   H8        1.0  0.6772851898070298  0.7021586682469163  0.20056272010647552  1.0000
  H   H9        1.0  0.9111752353929887  0.4043450088477983  0.8528355722484381  1.0000
  H   H10       1.0  0.05833769882544  0.09565079463045122  0.14716471983453522  1.0000
  H   H11       1.0  0.08882019027639391  0.595655897237407  0.14716276928676567  1.0000
  H   H12       1.0  0.9416575685497078  0.9043479954777852  0.8528353598267345  1.0000
  H   H13       1.0  0.5447781776242452  0.3778479453989903  0.4925223118474592  1.0000
  H   H14       1.0  0.05225619049269171  0.12215267939463811  0.5074812155930246  1.0000
  H   H15       1.0  0.45521396839735934  0.6221561428763706  0.5074790689601019  1.0000
  H   H16       1.0  0.9477401584654783  0.8778450489501568  0.4925171428107975  1.0000
  H   H17       1.0  0.6694628803256463  0.47640387993550354  0.6965729661433073  1.0000
  H   H18       1.0  0.9728850745735114  0.023595764056487705  0.3034282529596268  1.0000
  H   H19       1.0  0.3305363335229501  0.5235980929644911  0.3034305446171644  1.0000
  H   H20       1.0  0.027111450128252626  0.9764040818153674  0.6965694295681149  1.0000
  H   H21       1.0  0.5171998201552623  0.34429864884549494  0.6584725991808825  1.0000
  H   H22       1.0  0.858728701337675  0.15570201146869073  0.34152763027785943  1.0000
  H   H23       1.0  0.48279551701733686  0.6557001474631008  0.34153172948029475  1.0000
  H   H24       1.0  0.14127163834233164  0.8442999545561566  0.6584711656621993  1.0000
  H   H25       1.0  0.5467359777322257  0.1239954055339183  0.46879873026349383  1.0000
  H   H26       1.0  0.077939274214053  0.3760106167368705  0.5311958838870299  1.0000
  H   H27       1.0  0.4532622442801255  0.876011840932286  0.5311892162525853  1.0000
  H   H28       1.0  0.9220585427130458  0.6239902879987795  0.46880152600714814  1.0000
  H   H29       1.0  0.6808168381042137  0.0487319496744121  0.6490923204510752  1.0000
  H   H30       1.0  0.03173922788839432  0.4512659570714633  0.35089916483499206  1.0000
  H   H31       1.0  0.3191663869855502  0.9512689414573148  0.3508958077895629  1.0000
  H   H32       1.0  0.9682729621340441  0.5487338908789071  0.6490998977759336  1.0000
  H   H33       1.0  0.7482877923571962  0.09210228483352273  0.5154313625056236  1.0000
  H   H34       1.0  0.23286070925605878  0.4078925017358871  0.48456500518682344  1.0000
  H   H35       1.0  0.2517100420192619  0.9078986214522187  0.48456710963852606  1.0000
  H   H36       1.0  0.767145124335869  0.5921020611960373  0.5154417940917997  1.0000
  C   C1        1.0  0.2876700941394504  0.5352315575897749  0.9210750812543157  1.0000
  C   C2        1.0  0.36659251889051353  0.9647580819850463  0.07893148850366334  1.0000
  C   C3        1.0  0.7123472890833823  0.464769375101689  0.07894143176110192  1.0000
  C   C4        1.0  0.6334123658635775  0.035240707375237414  0.9210680513434328  1.0000
  C   C5        1.0  0.306238220708927  0.6866132178112565  0.9748555006452764  1.0000
  C   C6        1.0  0.33138230220555437  0.8133816510127191  0.02515225244567191  1.0000
  C   C7        1.0  0.6937773873061843  0.3133813583235253  0.02516031906897351  1.0000
  C   C8        1.0  0.6686190922584385  0.18661819991046974  0.9748488780499119  1.0000
  C   C9        1.0  0.8797972817355415  0.29543680323094906  0.7848851048382957  1.0000
  C   C10       1.0  0.09490388551813571  0.20455689189770965  0.2151074617774286  1.0000
  C   C11       1.0  0.12020826331693261  0.704556683111406  0.2151098165036204  1.0000
  C   C12       1.0  0.9050928766249768  0.7954461279395987  0.7848876135612176  1.0000
  C   C13       1.0  0.6074267581244895  0.37304526814564554  0.625182600908282  1.0000
  C   C14       1.0  0.982241555126322  0.1269541574417303  0.374818102924586  1.0000
  C   C15       1.0  0.3925698189253595  0.6269545823764775  0.3748182683693957  1.0000
  C   C16       1.0  0.017756041808787953  0.8730435748785585  0.6251829764086595  1.0000
  C   C17       1.0  0.6724446218496426  0.12486745824429593  0.5688154284444241  1.0000
  C   C18       1.0  0.10363728589020132  0.37512859443756247  0.431177416046971  1.0000
  C   C19       1.0  0.3275460225543015  0.875135552566178  0.4311734779969642  1.0000
  C   C20       1.0  0.8963701914142492  0.6248712624122846  0.5688277588459134  1.0000
  N   N1        1.0  0.7262062231802633  0.26760516534275075  0.6621328889116003  1.0000
  N   N2        1.0  0.06407586413650534  0.23239307127922615  0.33786458671626474  1.0000
  N   N3        1.0  0.2737869520762787  0.7323978565188938  0.33786358388858434  1.0000
  N   N4        1.0  0.9359217944963588  0.7676057174794552  0.6621345613039726  1.0000
  O   O1        1.0  0.4788255854819213  0.2961703806684781  0.1998661784637934  1.0000
  O   O2        1.0  0.27896304314535314  0.20382666504978184  0.8001330813696799  1.0000
  O   O3        1.0  0.5211707017784873  0.7038262912379168  0.800134111253037  1.0000
  O   O4        1.0  0.7210360485577211  0.7961752969995788  0.19986299364095578  1.0000
  O   O5        1.0  0.9812806206057656  0.202804161784286  0.8197022492370822  1.0000
  O   O6        1.0  0.1615695963406552  0.29719339737157213  0.18028451196887835  1.0000
  O   O7        1.0  0.01871137772126023  0.7972009643283826  0.18028445325773393  1.0000
  O   O8        1.0  0.8384220934975984  0.7028064465491257  0.8197118470909859  1.0000
  O   O9        1.0  0.21888239403931212  0.46296486220984434  0.9757176620137289  1.0000
  O   O10       1.0  0.24316328491811834  0.037024602921150104  0.024279439495479876  1.0000
  O   O11       1.0  0.7811387075652905  0.5370371310960353  0.024299771227056618  1.0000
  O   O12       1.0  0.7568384987541846  0.9629688699446325  0.9757062568081881  1.0000
  O   O13       1.0  0.3416934893554782  0.48988246257245993  0.8264046274397786  1.0000
  O   O14       1.0  0.5152849000155085  0.010111814772820103  0.17359434494243695  1.0000
  O   O15       1.0  0.65832868448247  0.51011741718186  0.17361620260651037  1.0000
  O   O16       1.0  0.48471827900587516  0.9898954444951688  0.8264023607913703  1.0000
