data_image0
_chemical_formula_structural       K2H48C36I6O12F28
_chemical_formula_sum              "K2 H48 C36 I6 O12 F28"
_cell_length_a       9.61278134366125
_cell_length_b       12.176063541208226
_cell_length_c       14.6649
_cell_angle_alpha    101.1591336864742
_cell_angle_beta     109.18209436906862
_cell_angle_gamma    89.98972378158363

_space_group_name_H-M_alt    "P 1"
_space_group_IT_number       1

loop_
  _space_group_symop_operation_xyz
  'x, y, z'

loop_
  _atom_site_type_symbol
  _atom_site_label
  _atom_site_symmetry_multiplicity
  _atom_site_fract_x
  _atom_site_fract_y
  _atom_site_fract_z
  _atom_site_occupancy
  K   K1        1.0  0.5000004922309742  0.0  3.105854560278483e-07  1.0000
  K   K2        1.0  0.4999993529021083  0.5000003173810086  0.9999997752494422  1.0000
  H   H1        1.0  0.20241410666947246  0.9838567866107297  0.1158344619600769  1.0000
  H   H2        1.0  0.08661225953375147  0.5161710160073838  0.8841195948609907  1.0000
  H   H3        1.0  0.7975856250185557  0.016143009073935802  0.884165856560564  1.0000
  H   H4        1.0  0.9133886491390014  0.4838296187546335  0.11588111198600608  1.0000
  H   H5        1.0  0.15741483568765344  0.12463990539416163  0.1539898155032802  1.0000
  H   H6        1.0  0.0033069518413170974  0.3754275381745843  0.8458411718134116  1.0000
  H   H7        1.0  0.8425848960003747  0.8753598902905041  0.8460098211170433  1.0000
  H   H8        1.0  0.996692930947617  0.6245739356647775  0.15415944891214653  1.0000
  H   H9        1.0  0.42960665566115347  0.1817164637514637  0.23223135766887273  1.0000
  H   H10       1.0  0.1971648788837115  0.3182393825301659  0.7677693289544719  1.0000
  H   H11       1.0  0.5703930760268746  0.8182833319332021  0.7677689608517682  1.0000
  H   H12       1.0  0.8028348528043168  0.6817604131544996  0.2322303076658514  1.0000
  H   H13       1.0  0.36727498247726936  0.0779049753354357  0.2838890947522899  1.0000
  H   H14       1.0  0.08306982480890208  0.42207436511190377  0.7160545860744989  1.0000
  H   H15       1.0  0.6327247492107658  0.922094820349237  0.7161112237683511  1.0000
  H   H16       1.0  0.9169299824295791  0.5779262696501065  0.2839452016482796  1.0000
  H   H17       1.0  0.6055383385378403  0.0094505281563357  0.33585734916911747  1.0000
  H   H18       1.0  0.2693252410205034  0.490475111340814  0.6640876990864868  1.0000
  H   H19       1.0  0.3944613931501877  0.9905492675283298  0.664142287451206  1.0000
  H   H20       1.0  0.7306744906675249  0.5095246843438517  0.3359119375338366  1.0000
  H   H21       1.0  0.6821345666176271  0.1080740013374708  0.28601543700875  1.0000
  H   H22       1.0  0.39592859327677127  0.3918558335464084  0.7139516309049582  1.0000
  H   H23       1.0  0.3178652406208542  0.8919266334245393  0.7139850326143531  1.0000
  H   H24       1.0  0.6040711384112567  0.6081439621382572  0.28604800571535793  1.0000
  H   H25       1.0  0.8183244610380882  0.9317500833781694  0.2972844075054156  1.0000
  H   H26       1.0  0.5208404875491793  0.5681099037705978  0.7027741542931523  1.0000
  H   H27       1.0  0.18167652318511776  0.0682513904611852  0.7027157685437189  1.0000
  H   H28       1.0  0.47915924413884875  0.4318898919140679  0.2972254823271712  1.0000
  H   H29       1.0  0.6533516310707341  0.8523473549788108  0.21312658104372423  1.0000
  H   H30       1.0  0.44006365345309456  0.6475998962140183  0.7868009715695193  1.0000
  H   H31       1.0  0.34664927760201897  0.1476532797832064  0.7868734439029551  1.0000
  H   H32       1.0  0.5599349768006688  0.3523998994706475  0.21319842782691006  1.0000
  H   H33       1.0  0.7897816170791429  0.798018774932082  0.09986139991009674  1.0000
  H   H34       1.0  0.6898268495488011  0.7020451080119443  0.9001964366141662  1.0000
  H   H35       1.0  0.21021819015933826  0.2019818598299352  0.9001390697130061  1.0000
  H   H36       1.0  0.3101728821392271  0.2979546876727213  0.09980388190647459  1.0000
  H   H37       1.0  0.9493110190901533  0.8850042453139366  0.18162409682178554  1.0000
  H   H38       1.0  0.7676030155694418  0.6150646720941708  0.8185440833130143  1.0000
  H   H39       1.0  0.05068871259788209  0.11499555037073611  0.8183762216988555  1.0000
  H   H40       1.0  0.23239781755285088  0.3849351235904948  0.18145647243152038  1.0000
  H   H41       1.0  0.09013633599465007  0.9933887052697019  0.9457926685767646  1.0000
  H   H42       1.0  0.14437609968616266  0.5065585459231272  0.05405969610946928  1.0000
  H   H43       1.0  0.9098633956933851  0.0066110904149639  0.05420764994387639  1.0000
  H   H44       1.0  0.8556236320018653  0.49344124976153847  0.9459406224111717  1.0000
  H   H45       1.0  0.040917839394538184  0.1334174935184151  0.9818324988359348  1.0000
  H   H46       1.0  0.0589572556894922  0.3665870192493301  0.017916543016624986  1.0000
  H   H47       1.0  0.959081816743037  0.8665814630889062  0.018167668582250895  1.0000
  H   H48       1.0  0.9410424759985361  0.6334127764353354  0.9820830936036914  1.0000
  C   C1        1.0  0.24088585691299608  0.0733227739448878  0.13267386686790414  1.0000
  C   C2        1.0  0.10815858136736979  0.4266892905189792  0.867240582018546  1.0000
  C   C3        1.0  0.7591140258759379  0.9266786998944738  0.8673267538576538  1.0000
  C   C4        1.0  0.8918412258711114  0.573311344243038  0.13275920570423239  1.0000
  C   C5        1.0  0.3855099458358779  0.0936687214486369  0.21680387675264257  1.0000
  C   C6        1.0  0.16854648481729834  0.4063047454572697  0.7831553425026598  1.0000
  C   C7        1.0  0.6144897858521503  0.9063310742360287  0.7831957598676736  1.0000
  C   C8        1.0  0.8314522209869109  0.5936958893047404  0.21684420799622464  1.0000
  C   C9        1.0  0.6240044433067381  0.0244540701933929  0.2686527061208821  1.0000
  C   C10       1.0  0.35513887305014435  0.4754631785302834  0.731320048834938  1.0000
  C   C11       1.0  0.37599536393174293  0.9755465645686174  0.7313470816018963  1.0000
  C   C12       1.0  0.6448608586378839  0.5245366171543822  0.2686795877853854  1.0000
  C   C13       1.0  0.715822891702409  0.9351030364557431  0.23563798841446013  1.0000
  C   C14       1.0  0.4800098746500652  0.5648265941128017  0.7643654364983662  1.0000
  C   C15       1.0  0.2841804464902467  0.0649001155383075  0.7643629642873861  1.0000
  C   C16       1.0  0.5199898570379631  0.4351732015718639  0.23563420012195727  1.0000
  C   C17       1.0  0.8428049445930126  0.8839201573819437  0.12174693519197177  1.0000
  C   C18       1.0  0.7210106769840294  0.6161470818714676  0.8783555677886595  1.0000
  C   C19       1.0  0.1571947870950154  0.1160796383027218  0.8782527014283444  1.0000
  C   C20       1.0  0.27898905470399876  0.38385271381319813  0.12164406883166382  1.0000
  C   C21       1.0  0.1283593452413001  0.08310138134379491  0.9645738306457332  1.0000
  C   C22       1.0  0.16373045972660796  0.416830970772125  0.035256863608673014  1.0000
  C   C23       1.0  0.871640310896275  0.9168975752635263  0.035425654872128017  1.0000
  C   C24       1.0  0.8362703733956919  0.5831688249125407  0.9647436921358616  1.0000
  C   C25       1.0  0.261332133449109  0.7672162455332483  0.3651590733851434  1.0000
  C   C26       1.0  0.8962825297664452  0.7326462588475593  0.6347782395259145  1.0000
  C   C27       1.0  0.7386675982389191  0.23278355015141736  0.6348405632351799  1.0000
  C   C28       1.0  0.1037171263711301  0.2673526977597618  0.3652212459919539  1.0000
  C   C29       1.0  0.31215732905749854  0.6564311852884614  0.3994434382400057  1.0000
  C   C30       1.0  0.9127744160694745  0.8434271237056166  0.6004850218586313  1.0000
  C   C31       1.0  0.6878435040647943  0.34356861039620423  0.6005564356042115  1.0000
  C   C32       1.0  0.08722524006810058  0.15657183290170454  0.39951514555955464  1.0000
  C   C33       1.0  0.2927178877247342  0.6386544926204252  0.49734524447103456  1.0000
  C   C34       1.0  0.7952875850544601  0.8612608736332279  0.5025610361800118  1.0000
  C   C35       1.0  0.7072840468318374  0.3613453030642404  0.5026548665970836  1.0000
  C   C36       1.0  0.2047121466335682  0.1387389220514379  0.4974379185399869  1.0000
  I   I1        1.0  0.3099016423222878  0.7500243897758951  0.00011898975887451116  1.0000
  I   I2        1.0  0.6900981649161934  0.24997624498612234  0.9998807979639038  1.0000
  I   I3        1.0  0.2873687561128833  0.7681316789185431  0.22046688440253345  1.0000
  I   I4        1.0  0.06720692960951169  0.7317333426943051  0.7795528405239978  1.0000
  I   I5        1.0  0.7126298741408803  0.2318681167661225  0.779532514993889  1.0000
  I   I6        1.0  0.9327915495433388  0.26826477483567157  0.2204462566675147  1.0000
  O   O1        1.0  0.261642389970163  0.10242449356186971  0.047766170963385  1.0000
  O   O2        1.0  0.21386509666383088  0.3974860425430364  0.9521689065792174  1.0000
  O   O3        1.0  0.7383573417178723  0.897575302122796  0.9522334656569383  1.0000
  O   O4        1.0  0.7861357364584691  0.6025137531416362  0.04783164916531743  1.0000
  O   O5        1.0  0.4866531392326578  0.0189832858926451  0.19073100058613332  1.0000
  O   O6        1.0  0.2958309572064691  0.4809180203614432  0.8092142764358952  1.0000
  O   O7        1.0  0.5133465924553704  0.9810165097920205  0.8092693179345077  1.0000
  O   O8        1.0  0.7041687744815588  0.5190817753232225  0.19078536018442793  1.0000
  O   O9        1.0  0.7497276252559503  0.9620315457446793  0.15450374195637548  1.0000
  O   O10       1.0  0.5951793309460527  0.5379777971718127  0.845584005587483  1.0000
  O   O11       1.0  0.2502721064320781  0.0379682499399934  0.8454965765642655  1.0000
  O   O12       1.0  0.4048215021762473  0.462021998512853  0.15441586825673434  1.0000
  F   F1        1.0  0.3410502540970199  0.8559604220338742  0.43577621584739745  1.0000
  F   F2        1.0  0.9051597974744109  0.6438945306508117  0.5641276497363847  1.0000
  F   F3        1.0  0.6589495531414611  0.144040212728143  0.5642242537757056  1.0000
  F   F4        1.0  0.0948387572288922  0.3561044259565023  0.4358715985575826  1.0000
  F   F5        1.0  0.11557354422810559  0.7765711188720559  0.35779238162726307  1.0000
  F   F6        1.0  0.757862564373248  0.7233803277075026  0.6421071270814309  1.0000
  F   F7        1.0  0.8844261119094696  0.2234278377352652  0.6422071038905983  1.0000
  F   F8        1.0  0.24213716731478027  0.276619467977163  0.35789182763857497  1.0000
  F   F9        1.0  0.45906106690750187  0.6501062202487304  0.4116527736245245  1.0000
  F   F10       1.0  0.047551487818694185  0.849738663507793  0.5884043785995131  1.0000
  F   F11       1.0  0.5409387403309864  0.34989441451327963  0.5883463321979292  1.0000
  F   F12       1.0  0.9524483194197869  0.150261971254217  0.41159472722294765  1.0000
  F   F13       1.0  0.23438354599012  0.5676047792078549  0.3274479972448319  1.0000
  F   F14       1.0  0.907073000946113  0.9322568860956011  0.6724615513219803  1.0000
  F   F15       1.0  0.7656183885664447  0.43239501647681083  0.672552795723604  1.0000
  F   F16       1.0  0.09292878250954567  0.0677412314343684  0.327539621341856  1.0000
  F   F17       1.0  0.3487370537895771  0.5403179838918675  0.5173076548723117  1.0000
  F   F18       1.0  0.8313798758291425  0.9596175202181031  0.48269069606385523  1.0000
  F   F19       1.0  0.6512649563174406  0.45968265087014265  0.48269260729826147  1.0000
  F   F20       1.0  0.16861993140933854  0.0403831145439071  0.5173104554595581  1.0000
  F   F21       1.0  0.14887221765955863  0.6338163726391173  0.4895377915449188  1.0000
  F   F22       1.0  0.6592010118977923  0.8661543727194143  0.5102763254461067  1.0000
  F   F23       1.0  0.851129716897006  0.3661834230455483  0.510463001423517  1.0000
  F   F24       1.0  0.3407998212245076  0.1338454229652513  0.4897249121987528  1.0000
  F   F25       1.0  0.366053191843271  0.7222853317700101  0.5741274773885222  1.0000
  F   F26       1.0  0.7916204041706363  0.777681218201792  0.42570082153766003  1.0000
  F   F27       1.0  0.6339488182637536  0.2777153029920001  0.4258727847820438  1.0000
  F   F28       1.0  0.20837837718403307  0.2223202556375696  0.5742981981633619  1.0000
