data_image0
_chemical_formula_structural       Zn4H32C16O32F16
_chemical_formula_sum              "Zn4 H32 C16 O32 F16"
_cell_length_a       9.037516361018335
_cell_length_b       10.694257948024804
_cell_length_c       10.941041273663656
_cell_angle_alpha    115.49964944143102
_cell_angle_beta     89.99977587186464
_cell_angle_gamma    90.00004717170869

_space_group_name_H-M_alt    "P 1"
_space_group_IT_number       1

loop_
  _space_group_symop_operation_xyz
  'x, y, z'

loop_
  _atom_site_type_symbol
  _atom_site_label
  _atom_site_symmetry_multiplicity
  _atom_site_fract_x
  _atom_site_fract_y
  _atom_site_fract_z
  _atom_site_occupancy
  Zn  Zn1       1.0  0.8668380628313058  0.764144416874984  0.008318846156796901  1.0000
  Zn  Zn2       1.0  0.3668397807983935  0.23585644435713238  0.49168102183644186  1.0000
  Zn  Zn3       1.0  0.13316267222000988  0.23585424712995012  0.9916790880305087  1.0000
  Zn  Zn4       1.0  0.6331631672395304  0.7641463577709188  0.508322314785957  1.0000
  H   H1        1.0  0.9296059818702248  0.9960018642748024  0.2384970330430605  1.0000
  H   H2        1.0  0.42960967045009113  0.003998938071305199  0.26150443518358923  1.0000
  H   H3        1.0  0.0703925401810253  0.0039978342621438  0.7615022517580102  1.0000
  H   H4        1.0  0.5703910645963717  0.9960007589965444  0.7384957629845843  1.0000
  H   H5        1.0  0.7658741975517813  0.9958151193566276  0.17671131429213438  1.0000
  H   H6        1.0  0.2658731679332433  0.004187903870288799  0.3232897925230774  1.0000
  H   H7        1.0  0.23412543100194227  0.00418561811518  0.8232865810034158  1.0000
  H   H8        1.0  0.7341275671126866  0.9958128291966941  0.6767108428837716  1.0000
  H   H9        1.0  0.841033915352945  0.7591720857792623  0.2600584072726519  1.0000
  H   H10       1.0  0.34103129694934614  0.24082775805214135  0.23994385672025229  1.0000
  H   H11       1.0  0.1589657131986186  0.24082865022442942  0.7399404013939943  1.0000
  H   H12       1.0  0.6589672250970082  0.7591688280830694  0.7600568564780943  1.0000
  H   H13       1.0  0.7945534243891147  0.6183107518871935  0.14686412244539326  1.0000
  H   H14       1.0  0.2945537266050309  0.38169224577556077  0.3531368808751481  1.0000
  H   H15       1.0  0.20544509766698843  0.38168791358683046  0.8531328983748098  1.0000
  H   H16       1.0  0.7054447954402576  0.6183064123579173  0.6468647068005425  1.0000
  H   H17       1.0  0.7742531092057021  0.5192447964737782  0.8013675898276633  1.0000
  H   H18       1.0  0.2742531322636381  0.4807504938603913  0.6986365978818655  1.0000
  H   H19       1.0  0.22574541284012636  0.4807528256605734  0.19863356060935192  1.0000
  H   H20       1.0  0.7257464962803439  0.5192481642726037  0.3013649897918285  1.0000
  H   H21       1.0  0.9439002783130732  0.5220825953408267  0.8456084739289552  1.0000
  H   H22       1.0  0.4439049339698328  0.47791565177172396  0.6543964132969934  1.0000
  H   H23       1.0  0.05609603074239541  0.4779139951996996  0.15438949916008937  1.0000
  H   H24       1.0  0.556095801066924  0.522086111421963  0.34560831283292265  1.0000
  H   H25       1.0  0.8884151931371135  0.7892376494057485  0.7772089960851858  1.0000
  H   H26       1.0  0.38841594620678427  0.21076169637792222  0.7227883082708787  1.0000
  H   H27       1.0  0.11158332891952231  0.21075998006914173  0.2227875874963416  1.0000
  H   H28       1.0  0.6115847888450646  0.7892359316278784  0.2772091886777588  1.0000
  H   H29       1.0  0.0177333414463519  0.8903833678402007  0.8671691741324921  1.0000
  H   H30       1.0  0.5177359311611411  0.10961319742057189  0.6328299828943713  1.0000
  H   H31       1.0  0.9822662871041177  0.10961529469711447  0.1328296734279135  1.0000
  H   H32       1.0  0.4822636973844752  0.8903864981796656  0.36717112864690193  1.0000
  C   C1        1.0  0.17104834301360228  0.6440431181237045  0.9646256002183976  1.0000
  C   C2        1.0  0.6710505266210092  0.35596055659966896  0.5353797177095458  1.0000
  C   C3        1.0  0.8289534985315471  0.35595657894365457  0.03537459794778635  1.0000
  C   C4        1.0  0.3289502084200678  0.644041209530236  0.4646231816781707  1.0000
  C   C5        1.0  0.3366503411338186  0.6807216338826549  0.0009854755458105714  1.0000
  C   C6        1.0  0.8366536145676166  0.3192802961285039  0.4990112851347562  1.0000
  C   C7        1.0  0.6633481809212184  0.31927910358963624  0.9990124197517362  1.0000
  C   C8        1.0  0.16335043997764132  0.6807225118714866  0.5009883980012546  1.0000
  C   C9        1.0  0.3888980707074269  0.8064693331326183  0.9755895870737917  1.0000
  C   C10       1.0  0.8889001484852984  0.1935310452829597  0.5244099795182322  1.0000
  C   C11       1.0  0.6111015578408825  0.19352932793658786  0.024410173857709976  1.0000
  C   C12       1.0  0.1111027995601717  0.8064696892511447  0.47558974251352026  1.0000
  C   C13       1.0  0.5491523298022115  0.8530852759197101  0.02703280171415642  1.0000
  C   C14       1.0  0.049152943466303604  0.14691276342455237  0.4729650742282275  1.0000
  C   C15       1.0  0.4508472987439304  0.14691338368139373  0.9729678725884414  1.0000
  C   C16       1.0  0.9508477915871723  0.8530859020484911  0.5270319465879822  1.0000
  O   O1        1.0  0.08245651988242031  0.727431182140883  0.04884303832539411  1.0000
  O   O2        1.0  0.5824621874184075  0.27256993110812994  0.4511587692551942  1.0000
  O   O3        1.0  0.9175420021758428  0.2725674848012575  0.9511530691237127  1.0000
  O   O4        1.0  0.41754186712252306  0.7274328739556422  0.5488427406230088  1.0000
  O   O5        1.0  0.14333407738067183  0.5380739105348552  0.8553896220606133  1.0000
  O   O6        1.0  0.64333584696314  0.46192875729731503  0.6446126185262174  1.0000
  O   O7        1.0  0.8566600186752922  0.4619268240031926  0.14461009998711205  1.0000
  O   O8        1.0  0.35666156857860903  0.5380709338995758  0.35539123313234466  1.0000
  O   O9        1.0  0.6503139813758523  0.7860708564647966  0.9447627951759189  1.0000
  O   O10       1.0  0.15031442393051717  0.21393284701792223  0.5552362039798027  1.0000
  O   O11       1.0  0.3496845406737989  0.2139319500695579  0.055237801341171226  1.0000
  O   O12       1.0  0.8496863111213316  0.7860647809878714  0.4447612929688277  1.0000
  O   O13       1.0  0.5645114064704018  0.9483383949399452  0.1444707025335176  1.0000
  O   O14       1.0  0.0645102703859877  0.051656519780984  0.3555276330132102  1.0000
  O   O15       1.0  0.43549154157613396  0.051660267595892186  0.8555281450208909  1.0000
  O   O16       1.0  0.9354871451730206  0.9483390376961293  0.64446807609297  1.0000
  O   O17       1.0  0.8719111182124096  0.9752551269510759  0.15353708604034455  1.0000
  O   O18       1.0  0.3719111053873548  0.0247477988219345  0.3464654648688565  1.0000
  O   O19       1.0  0.1280885103364611  0.024746643583647192  0.8464630732360803  1.0000
  O   O20       1.0  0.6280907361566931  0.9752498247790482  0.6535347721910724  1.0000
  O   O21       1.0  0.7846391802870087  0.7196414998133205  0.17435753012028943  1.0000
  O   O22       1.0  0.28464062069902246  0.28036046334643316  0.3256476385916969  1.0000
  O   O23       1.0  0.21536044826076764  0.2803581972550262  0.8256426680498806  1.0000
  O   O24       1.0  0.7153567948502797  0.7196371602565176  0.6743525984762185  1.0000
  O   O25       1.0  0.8416896079736488  0.5504406675584973  0.8797413077689884  1.0000
  O   O26       1.0  0.3416921846211665  0.44955663466249973  0.6202635110609551  1.0000
  O   O27       1.0  0.1583089140770326  0.4495559215129317  0.12025757868716613  1.0000
  O   O28       1.0  0.6583085504188161  0.5504430580010293  0.37973942722051396  1.0000
  O   O29       1.0  0.9509211249453317  0.8137782574252055  0.8579379463026626  1.0000
  O   O30       1.0  0.4509200232217907  0.18621585264822466  0.6420569463035761  1.0000
  O   O31       1.0  0.049078503611625  0.18622040951643018  0.14205816114444758  1.0000
  O   O32       1.0  0.5490818183276859  0.8137838473553456  0.35794142512040844  1.0000
  F   F1        1.0  0.42601114585205124  0.5699561116546477  0.9259428150277885  1.0000
  F   F2        1.0  0.9260154313547915  0.43004423367877825  0.5740566176334668  1.0000
  F   F3        1.0  0.5739873761986659  0.4300446228814323  0.07405690701195765  1.0000
  F   F4        1.0  0.073986410181746  0.569959602980795  0.4259480696006932  1.0000
  F   F5        1.0  0.3600369956713294  0.7122376242051514  0.13497726136568375  1.0000
  F   F6        1.0  0.8600364465993523  0.28776325336693986  0.3650162375763913  1.0000
  F   F7        1.0  0.639961526388568  0.2877620802042244  0.8650183699509951  1.0000
  F   F8        1.0  0.13996428845094042  0.7122416281009122  0.6349834066718502  1.0000
  F   F9        1.0  0.3789775083621337  0.768224319827695  0.8388839569904006  1.0000
  F   F10       1.0  0.8789778698489599  0.2317760659633449  0.6611165587753052  1.0000
  F   F11       1.0  0.6210232266832706  0.2317774492384217  0.1611171156551165  1.0000
  F   F12       1.0  0.1210261846925036  0.7682257031012938  0.3388845138642295  1.0000
  F   F13       1.0  0.2929978839626131  0.9153606290938184  0.039588101837907154  1.0000
  F   F14       1.0  0.7929988992275626  0.08464133982847237  0.46040881637162573  1.0000
  F   F15       1.0  0.7070039575798504  0.0846401025045651  0.9604134469380412  1.0000
  F   F16       1.0  0.20700183582379592  0.9153614696411123  0.5395899533992717  1.0000
