data_image0
_chemical_formula_structural       Mg4H28C40N12O20
_chemical_formula_sum              "Mg4 H28 C40 N12 O20"
_cell_length_a       7.607203166088852
_cell_length_b       10.092838692100237
_cell_length_c       15.949024177032046
_cell_angle_alpha    89.99994315008402
_cell_angle_beta     90.00022802489588
_cell_angle_gamma    90.00050488269925

_space_group_name_H-M_alt    "P 1"
_space_group_IT_number       1

loop_
  _space_group_symop_operation_xyz
  'x, y, z'

loop_
  _atom_site_type_symbol
  _atom_site_label
  _atom_site_symmetry_multiplicity
  _atom_site_fract_x
  _atom_site_fract_y
  _atom_site_fract_z
  _atom_site_occupancy
  Mg  Mg1       1.0  0.15185871842499674  0.9759477710345977  0.20978006972725174  1.0000
  Mg  Mg2       1.0  0.8481412864715168  0.024053959844636104  0.7097790365371422  1.0000
  Mg  Mg3       1.0  0.6518584843877165  0.5240527723913927  0.20978257991869498  1.0000
  Mg  Mg4       1.0  0.3481441496189319  0.47594895849215385  0.7097821693267219  1.0000
  H   H1        1.0  0.4271640820233528  0.1212495443418433  0.2753990433794867  1.0000
  H   H2        1.0  0.5728430304107022  0.8787481217610987  0.7753988130994285  1.0000
  H   H3        1.0  0.9271627577485759  0.3787486238627409  0.275400701064548  1.0000
  H   H4        1.0  0.07284435474084461  0.6212549870454893  0.7754021713933312  1.0000
  H   H5        1.0  0.24835249004414095  0.20446636962085307  0.2809471451112771  1.0000
  H   H6        1.0  0.7516572967272026  0.7955342603035478  0.7809498230162147  1.0000
  H   H7        1.0  0.7483475588365566  0.2955335808258326  0.2809488556994921  1.0000
  H   H8        1.0  0.2516582843273696  0.7044710122916484  0.780948112422905  1.0000
  H   H9        1.0  0.0676393288724029  0.5323962181815816  0.3974354968682121  1.0000
  H   H10       1.0  0.9323661491440093  0.46760125897807087  0.8974324642625785  1.0000
  H   H11       1.0  0.5676390486620877  0.9675995149982982  0.3974345900738569  1.0000
  H   H12       1.0  0.4323638002642056  0.0324009345611316  0.8974283550725699  1.0000
  H   H13       1.0  0.8334498665862854  0.7333261787339679  0.635048832963335  1.0000
  H   H14       1.0  0.1665429564816279  0.26667566782238333  0.1350478376274467  1.0000
  H   H15       1.0  0.33345552877283074  0.7666739154291162  0.635046455828224  1.0000
  H   H16       1.0  0.666542552453322  0.23332694034502316  0.13504770677754144  1.0000
  H   H17       1.0  0.9321127434780083  0.10177681069733072  0.5310734892965101  1.0000
  H   H18       1.0  0.06787791756549671  0.8982212336206882  0.031075662799878497  1.0000
  H   H19       1.0  0.4321107496549459  0.39821901275889365  0.5310766714979137  1.0000
  H   H20       1.0  0.5678825405194274  0.6017829947700406  0.031077496580621793  1.0000
  H   H21       1.0  0.9522124302462843  0.6165002677131993  0.5115668226257881  1.0000
  H   H22       1.0  0.047785959021510394  0.3834948344316301  0.011562387375150298  1.0000
  H   H23       1.0  0.45221289245043284  0.8834928759662262  0.5115618632223473  1.0000
  H   H24       1.0  0.5477920695329388  0.11650618941128238  0.011561076807637998  1.0000
  H   H25       1.0  0.062406970100966005  0.0010144759495319003  0.401754420226922  1.0000
  H   H26       1.0  0.9375867122246007  0.9989800220767437  0.9017554489167237  1.0000
  H   H27       1.0  0.5624044295411395  0.4989761323551392  0.4017560014706873  1.0000
  H   H28       1.0  0.4375918819076219  0.5010223288835077  0.9017570026622861  1.0000
  C   C1        1.0  0.1034643889441753  0.7394728837388769  0.3734082905158118  1.0000
  C   C2        1.0  0.8965343205022122  0.260522648995348  0.873404692981907  1.0000
  C   C3        1.0  0.6034695626573168  0.7605161877750177  0.37340688838555275  1.0000
  C   C4        1.0  0.3965344049815229  0.23948330818366514  0.873404841120802  1.0000
  C   C5        1.0  0.23232523305761532  0.5830505778323386  0.29640061923061  1.0000
  C   C6        1.0  0.767674163299006  0.41694903733391453  0.796399179965064  1.0000
  C   C7        1.0  0.732328301257752  0.9169454092017731  0.2964003716418375  1.0000
  C   C8        1.0  0.2676724096496769  0.0830571783753484  0.7963969195637401  1.0000
  C   C9        1.0  0.2736051405520783  0.7084852209416825  0.2653278720135645  1.0000
  C   C10       1.0  0.7263926879806989  0.2915134515274573  0.7653239243313193  1.0000
  C   C11       1.0  0.7736093638807519  0.7915110869783321  0.26532394218845207  1.0000
  C   C12       1.0  0.22639240828486612  0.20849055791132534  0.7653240921736708  1.0000
  C   C13       1.0  0.017758109956126603  0.7999213463399569  0.44506147464951323  1.0000
  C   C14       1.0  0.9822398689585512  0.20007209385328648  0.9450580820049123  1.0000
  C   C15       1.0  0.5177599442669704  0.7000680386954768  0.44505885695235037  1.0000
  C   C16       1.0  0.4822419782940273  0.2999293647183592  0.9450588187118212  1.0000
  C   C17       1.0  0.8824285555820169  0.7892977512271175  0.5813860185054904  1.0000
  C   C18       1.0  0.11756514461784923  0.21070120601075368  0.08138370963570908  1.0000
  C   C19       1.0  0.3824335600398215  0.71069878645433  0.5813830499586243  1.0000
  C   C20       1.0  0.6175667128818745  0.2893021524097676  0.0813847971955042  1.0000
  C   C21       1.0  0.9376324667458888  0.9946812276403135  0.5229435598351839  1.0000
  C   C22       1.0  0.0623581280251599  0.005316829265972  0.022943782314534596  1.0000
  C   C23       1.0  0.43763505781832623  0.5053147744896618  0.5229451108471963  1.0000
  C   C24       1.0  0.5623621096949876  0.4946852640389706  0.02294536629631949  1.0000
  C   C25       1.0  0.9496063244779267  0.7244550212390877  0.5115316739114986  1.0000
  C   C26       1.0  0.050392064526249704  0.2755430533637124  0.011528566351678596  1.0000
  C   C27       1.0  0.4496068327006811  0.7755400868756865  0.5115286641352981  1.0000
  C   C28       1.0  0.5503941853902179  0.2244609601437801  0.011527187146235499  1.0000
  C   C29       1.0  0.28154347324571927  0.44419883949763056  0.275710417117466  1.0000
  C   C30       1.0  0.7184518108510148  0.5558017984888508  0.775710047973206  1.0000
  C   C31       1.0  0.7815488704181774  0.0557993568126847  0.2757072641514568  1.0000
  C   C32       1.0  0.21845955908757025  0.944203262827564  0.7757037959872333  1.0000
  C   C33       1.0  0.009713943526080002  0.9385076969850419  0.45143359946739275  1.0000
  C   C34       1.0  0.9902801437122548  0.06148771493185019  0.9514315645466949  1.0000
  C   C35       1.0  0.5097167784651332  0.561485588238604  0.4514323238749894  1.0000
  C   C36       1.0  0.49028256697332045  0.4385137869012894  0.9514334671405463  1.0000
  C   C37       1.0  0.38196028372494334  0.7502974603756698  0.19176484265434365  1.0000
  C   C38       1.0  0.6180303725815224  0.2497151971835336  0.6917607110978492  1.0000
  C   C39       1.0  0.8819653303280078  0.7497076038459268  0.19176156640805428  1.0000
  C   C40       1.0  0.11803715687782561  0.25030802615889064  0.6917614793642526  1.0000
  N   N1        1.0  0.8776352230156024  0.9221533163289308  0.5880741550961304  1.0000
  N   N2        1.0  0.12235590262319113  0.07784563054318029  0.08807507498776347  1.0000
  N   N3        1.0  0.3776412954319781  0.5778431793241907  0.5880756599998873  1.0000
  N   N4        1.0  0.6223577174977564  0.4221577491736426  0.08807795907428329  1.0000
  N   N5        1.0  0.19003115509988083  0.8035939285996464  0.3124986716221016  1.0000
  N   N6        1.0  0.8099670579082172  0.19640467083950602  0.8124949467244206  1.0000
  N   N7        1.0  0.6900329463039513  0.696403735638633  0.31249605625720267  1.0000
  N   N8        1.0  0.30996526670812585  0.30359684540503196  0.8124956810958678  1.0000
  N   N9        1.0  0.12263618106947399  0.6061576371392333  0.3629663333583863  1.0000
  N   N10       1.0  0.8773624432749543  0.39383791175986715  0.8629644948234227  1.0000
  N   N11       1.0  0.622642921349417  0.8938355404378909  0.36296359247454996  1.0000
  N   N12       1.0  0.3773622757215236  0.10616496249443942  0.8629622197312016  1.0000
  O   O1        1.0  0.36224798645989864  0.8690737105966232  0.1672867991598324  1.0000
  O   O2        1.0  0.6377503574456468  0.13091520565070877  0.6672802734279413  1.0000
  O   O3        1.0  0.8622490082094318  0.6309203624359085  0.16728422542577445  1.0000
  O   O4        1.0  0.13774802124425628  0.36908242502654076  0.6672853551467455  1.0000
  O   O5        1.0  0.4877199570205164  0.667555998656063  0.16014297432572985  1.0000
  O   O6        1.0  0.5122862159732192  0.33243887348297113  0.6601410927702459  1.0000
  O   O7        1.0  0.9877167740518191  0.8324418869274339  0.16014089946394708  1.0000
  O   O8        1.0  0.012272309890711602  0.16755992077069237  0.6601368976371518  1.0000
  O   O9        1.0  0.4357733674325673  0.42021602696470256  0.25026889259587637  1.0000
  O   O10       1.0  0.5642348547377836  0.5797846504530426  0.7502694626682851  1.0000
  O   O11       1.0  0.9357711591756515  0.07978421863884928  0.2502669783693675  1.0000
  O   O12       1.0  0.0642291756782072  0.920214477158027  0.750260717928441  1.0000
  O   O13       1.0  0.2976394173820935  0.11280154410424359  0.2734201158353072  1.0000
  O   O14       1.0  0.702367678945919  0.8871990974659026  0.773421385739695  1.0000
  O   O15       1.0  0.7976368778461378  0.38719874368473467  0.273421768147486  1.0000
  O   O16       1.0  0.20236758943008232  0.6128048702779124  0.7734241224072704  1.0000
  O   O17       1.0  0.16366000753062346  0.3569672820569069  0.28942590303417143  1.0000
  O   O18       1.0  0.8363406465328681  0.6430313531070196  0.7894288423759404  1.0000
  O   O19       1.0  0.6636624861092459  0.14302912324801298  0.2894264565918546  1.0000
  O   O20       1.0  0.33634342613718365  0.8569744659448163  0.7894232728409276  1.0000
