data_image0
_chemical_formula_structural       Cd8H112C192S8N32O32
_chemical_formula_sum              "Cd8 H112 C192 S8 N32 O32"
_cell_length_a       16.098579916002638
_cell_length_b       16.12696397500173
_cell_length_c       20.4289553060038
_cell_angle_alpha    89.9999585100977
_cell_angle_beta     89.99994343963832
_cell_angle_gamma    90.00003294915574

_space_group_name_H-M_alt    "P 1"
_space_group_IT_number       1

loop_
  _space_group_symop_operation_xyz
  'x, y, z'

loop_
  _atom_site_type_symbol
  _atom_site_label
  _atom_site_symmetry_multiplicity
  _atom_site_fract_x
  _atom_site_fract_y
  _atom_site_fract_z
  _atom_site_occupancy
  Cd  Cd1       1.0  0.9118574251661116  0.6159753232420683  0.3212953879673891  1.0000
  Cd  Cd2       1.0  0.5881424699686589  0.38402518660720364  0.32129558082494475  1.0000
  Cd  Cd3       1.0  0.41185806583983714  0.3840245812044855  0.1787039235354371  1.0000
  Cd  Cd4       1.0  0.0881426231767648  0.6159751522039015  0.17870447298455622  1.0000
  Cd  Cd5       1.0  0.0881422443701183  0.384024259568548  0.6787041648244811  1.0000
  Cd  Cd6       1.0  0.41185782074055066  0.6159750162831016  0.6787039719665062  1.0000
  Cd  Cd7       1.0  0.588142846041869  0.6159756216857771  0.8212961187570613  1.0000
  Cd  Cd8       1.0  0.9118576675318336  0.38402505068595605  0.8212960588094803  1.0000
  H   H1        1.0  0.8077848789482259  0.4696371696433913  0.27383832035065586  1.0000
  H   H2        1.0  0.6922150754036663  0.5303627635548267  0.2738388375808967  1.0000
  H   H3        1.0  0.30778554476029285  0.5303620550172282  0.2261615619291391  1.0000
  H   H4        1.0  0.19221570621101589  0.46963701488291315  0.22616162445432766  1.0000
  H   H5        1.0  0.19221479058800375  0.5303624131672253  0.7261612324412142  1.0000
  H   H6        1.0  0.30778521530493214  0.4696374393350311  0.7261616942131399  1.0000
  H   H7        1.0  0.6922159882940377  0.4696375277936936  0.7738384803632885  1.0000
  H   H8        1.0  0.8077852056697239  0.5303619478478722  0.7738393968411048  1.0000
  H   H9        1.0  0.7990151204270148  0.31828320047026176  0.2694690786135326  1.0000
  H   H10       1.0  0.7009842182040058  0.681717356805464  0.26946999176900743  1.0000
  H   H11       1.0  0.29901586803531893  0.6817166392389208  0.23053032101351795  1.0000
  H   H12       1.0  0.2009853774845496  0.3182824266632663  0.2305304634177432  1.0000
  H   H13       1.0  0.20098454910939265  0.6817170024198658  0.73053047417816  1.0000
  H   H14       1.0  0.2990154513324014  0.3182828460846635  0.7305295610226851  1.0000
  H   H15       1.0  0.7009850438468206  0.31828294357227077  0.7694687422765798  1.0000
  H   H16       1.0  0.7990149132244253  0.6817159159887182  0.7694685998729442  1.0000
  H   H17       1.0  0.0432838075879474  0.3090474787621388  0.3582693160878635  1.0000
  H   H18       1.0  0.4567147938469275  0.6909533304821378  0.35826953473664264  1.0000
  H   H19       1.0  0.5432846765435927  0.6909534543931385  0.14173126225486501  1.0000
  H   H20       1.0  0.9567160638267397  0.30904721977823596  0.14173072073696605  1.0000
  H   H21       1.0  0.9567152407752245  0.6909533442068747  0.6417312157064715  1.0000
  H   H22       1.0  0.5432848756888687  0.309046872407542  0.6417309970576356  1.0000
  H   H23       1.0  0.45671623533829125  0.30904736857663545  0.8582687800374558  1.0000
  H   H24       1.0  0.0432842268830811  0.690952983112517  0.8582678530519064  1.0000
  H   H25       1.0  0.040005921627788196  0.464053713532074  0.361088310893699  1.0000
  H   H26       1.0  0.45999329746212675  0.5359477132119322  0.3610891053036341  1.0000
  H   H27       1.0  0.5400067047488406  0.5359472177433346  0.13891080150505533  1.0000
  H   H28       1.0  0.9599946603126668  0.4640528389291133  0.13891163711087273  1.0000
  H   H29       1.0  0.959993126736478  0.5359477295171259  0.6389107523965907  1.0000
  H   H30       1.0  0.5400069932467774  0.46405248967814566  0.6389109369891062  1.0000
  H   H31       1.0  0.45999544947864723  0.46405360522679456  0.8610892407867754  1.0000
  H   H32       1.0  0.0400068727415359  0.5359473639610995  0.8610888946826735  1.0000
  H   H33       1.0  0.9766045340233306  0.0396188362490264  0.40288021851608147  1.0000
  H   H34       1.0  0.5233946381364446  0.9603822190203102  0.4028801316798863  1.0000
  H   H35       1.0  0.47660560873894287  0.960381725421996  0.09712002142469343  1.0000
  H   H36       1.0  0.0233945609063113  0.039618082644807394  0.09712046219584643  1.0000
  H   H37       1.0  0.0233945143399694  0.9603813666407034  0.597119823777142  1.0000
  H   H38       1.0  0.4766056525727649  0.039617983869994995  0.5971194211115576  1.0000
  H   H39       1.0  0.523394060797031  0.039619097547195295  0.9028805103694001  1.0000
  H   H40       1.0  0.9766044874571167  0.9603815001656312  0.9028790905962654  1.0000
  H   H41       1.0  0.9783829946930849  0.19178634906361938  0.40435748912168634  1.0000
  H   H42       1.0  0.5216167967958966  0.8082140847744624  0.4043574908678593  1.0000
  H   H43       1.0  0.4783833623623649  0.8082135935479824  0.09564274943065243  1.0000
  H   H44       1.0  0.021617430299102097  0.19178621587091266  0.09564310439600383  1.0000
  H   H45       1.0  0.021617296015030298  0.8082132337464927  0.5956435321738098  1.0000
  H   H46       1.0  0.4783834939128794  0.19178673819490644  0.5956430409259924  1.0000
  H   H47       1.0  0.5216169283471999  0.1917878495013525  0.9043568033604434  1.0000
  H   H48       1.0  0.9783816180642689  0.8082121267807164  0.9043559588951737  1.0000
  H   H49       1.0  0.03922027379670109  0.9242451075748049  0.3560786231392257  1.0000
  H   H50       1.0  0.46077895154384413  0.07575508359449397  0.3560796806303302  1.0000
  H   H51       1.0  0.539222027734482  0.07575396301116646  0.14392146887581705  1.0000
  H   H52       1.0  0.9607787099019589  0.9242448489170911  0.14392155067271523  1.0000
  H   H53       1.0  0.9607787745664211  0.07575447523540649  0.6439214191541752  1.0000
  H   H54       1.0  0.5392219603375565  0.9242451192955412  0.6439208511634578  1.0000
  H   H55       1.0  0.46077764180174086  0.9242456197994426  0.856078083916053  1.0000
  H   H56       1.0  0.039220338461468884  0.0757547338933477  0.8560780021193963  1.0000
  H   H57       1.0  0.797685366140186  0.9198179994558869  0.2641700553128176  1.0000
  H   H58       1.0  0.7023133579307909  0.08018318274867647  0.26417033311287963  1.0000
  H   H59       1.0  0.2976870027280327  0.08018245956996849  0.23582983485346898  1.0000
  H   H60       1.0  0.20231361500614753  0.9198166014823241  0.23583012103622994  1.0000
  H   H61       1.0  0.20231368222280818  0.08018220343361548  0.7358304764817022  1.0000
  H   H62       1.0  0.29768693277811314  0.9198170201414083  0.7358297091798607  1.0000
  H   H63       1.0  0.7023126668080691  0.9198177433199388  0.7641702074395129  1.0000
  H   H64       1.0  0.7976854333572801  0.08018298132811448  0.7641694317558818  1.0000
  H   H65       1.0  0.8048263214607658  0.7647472743866286  0.2682089721066347  1.0000
  H   H66       1.0  0.695172397571241  0.23525452420187065  0.2682081876235643  1.0000
  H   H67       1.0  0.3048274313055828  0.235253188735605  0.23179140198441672  1.0000
  H   H68       1.0  0.19517257029524157  0.7647458760123129  0.23179129309955482  1.0000
  H   H69       1.0  0.19517272690240622  0.23525354858239209  0.7317915596877074  1.0000
  H   H70       1.0  0.3048278931379684  0.7647456786884347  0.7317913651678867  1.0000
  H   H71       1.0  0.695172238229908  0.7647470141538547  0.7682096193111507  1.0000
  H   H72       1.0  0.8048264780678733  0.2352537067978986  0.7682087491938461  1.0000
  H   H73       1.0  0.0341067329739317  0.7687118004307648  0.3584596039773801  1.0000
  H   H74       1.0  0.46589186822364326  0.23128900863948587  0.3584595893503818  1.0000
  H   H75       1.0  0.5341085795396977  0.2312885073804125  0.1415409815319819  1.0000
  H   H76       1.0  0.9658921610675789  0.7687109268059656  0.1415406589569415  1.0000
  H   H77       1.0  0.9658916942164381  0.2312890225380712  0.6415409278171965  1.0000
  H   H78       1.0  0.5341084224847775  0.7687105741708535  0.6415409424438325  1.0000
  H   H79       1.0  0.4658910899959707  0.7687123155885585  0.8584600397634078  1.0000
  H   H80       1.0  0.03410688729584879  0.23128865600447301  0.85845889383517  1.0000
  H   H81       1.0  0.3008929698709508  0.6249514121654799  0.33633457213145596  1.0000
  H   H82       1.0  0.1991069012801603  0.3750487970727007  0.3363341939734711  1.0000
  H   H83       1.0  0.8008930081811768  0.37504842862059445  0.16366531553065045  1.0000
  H   H84       1.0  0.6991064624731749  0.6249516053982942  0.16366577317852204  1.0000
  H   H85       1.0  0.6991060784920434  0.37504879072402275  0.6636659596630566  1.0000
  H   H86       1.0  0.8008927682557639  0.6249507857376881  0.6636658483196882  1.0000
  H   H87       1.0  0.1991066613552306  0.6249517742695332  0.8363342372610422  1.0000
  H   H88       1.0  0.3008938282354237  0.37504859749156333  0.8363347586155072  1.0000
  H   H89       1.0  0.38259265722692953  0.6258250794382505  0.4416752178440647  1.0000
  H   H90       1.0  0.11740770365094022  0.37417379324214994  0.4416753934915862  1.0000
  H   H91       1.0  0.8825922053059613  0.3741754282979171  0.05832509551593291  1.0000
  H   H92       1.0  0.6174073967939434  0.6258253221991906  0.05832463746374831  1.0000
  H   H93       1.0  0.6174070123086891  0.3741745033719114  0.5583253139503911  1.0000
  H   H94       1.0  0.8825919658846217  0.6258245494092021  0.5583246488019287  1.0000
  H   H95       1.0  0.11740746423031817  0.6258253946715013  0.9416749467768712  1.0000
  H   H96       1.0  0.382592893915394  0.3741742606118236  0.9416744258265839  1.0000
  H   H97       1.0  0.1566683086549503  0.6082333087341851  0.551076891678399  1.0000
  H   H98       1.0  0.3433312945383377  0.3917673240699245  0.5510763913084489  1.0000
  H   H99       1.0  0.656668621827279  0.39176661183353906  0.948922848886497  1.0000
  H   H100      1.0  0.8433317324916203  0.6082327035859976  0.9489232034818331  1.0000
  H   H101      1.0  0.8433313608809742  0.3917662740762039  0.4489231506147677  1.0000
  H   H102      1.0  0.6566677538249124  0.6082316386609887  0.44892316148384037  1.0000
  H   H103      1.0  0.3433316688817527  0.608232970977248  0.05107670390513161  1.0000
  H   H104      1.0  0.156667937044304  0.3917668792243915  0.051076838811326304  1.0000
  H   H105      1.0  0.07393933767288982  0.6086649080547274  0.4468082538214447  1.0000
  H   H106      1.0  0.4260603956282906  0.39133644024659014  0.4468076890913367  1.0000
  H   H107      1.0  0.573938902048198  0.39133356236912675  0.053192300582054514  1.0000
  H   H108      1.0  0.9260613276277851  0.6086647125066164  0.0531930798230817  1.0000
  H   H109      1.0  0.9260609530355879  0.3913359149144212  0.5531927674737036  1.0000
  H   H110      1.0  0.5739386527345188  0.6086631425634011  0.5531928427033607  1.0000
  H   H111      1.0  0.42606138866047166  0.6086647802826307  0.9468072522099293  1.0000
  H   H112      1.0  0.0739395842540986  0.39133611046315747  0.9468069624692392  1.0000
  C   C1        1.0  0.8587502214867584  0.4320857804426126  0.2923527185453949  1.0000
  C   C2        1.0  0.6412478462450152  0.5679147558922394  0.292352275057688  1.0000
  C   C3        1.0  0.3587521743929614  0.5679140935361459  0.207648102934897  1.0000
  C   C4        1.0  0.1412503420260265  0.4320856133861993  0.20764724777693291  1.0000
  C   C5        1.0  0.14124820570312827  0.5679144224464848  0.7076483027506556  1.0000
  C   C6        1.0  0.3587524444644998  0.4320854469982861  0.7076467882324737  1.0000
  C   C7        1.0  0.6412499798337379  0.4320861093540244  0.7923529183596969  1.0000
  C   C8        1.0  0.8587505698553244  0.5679133493450266  0.7923527945159138  1.0000
  C   C9        1.0  0.8547063635649296  0.3462512737105356  0.2895302802714284  1.0000
  C   C10       1.0  0.6452935712063661  0.65374864512777  0.2895307634436507  1.0000
  C   C11       1.0  0.3547064989104386  0.6537479778686828  0.21046956536522296  1.0000
  C   C12       1.0  0.14529477164159488  0.3462504863120727  0.2104692457336129  1.0000
  C   C13       1.0  0.14529392714349135  0.6537483090998036  0.7104702515227787  1.0000
  C   C14       1.0  0.35470485598413154  0.34625155776178207  0.7104692788498215  1.0000
  C   C15       1.0  0.6452944129712108  0.3462509848627703  0.7895299874263416  1.0000
  C   C16       1.0  0.854706140240367  0.6537484764196007  0.7895298175566554  1.0000
  C   C17       1.0  0.9210047293960102  0.29933420537542327  0.31359170379410284  1.0000
  C   C18       1.0  0.5789951753510039  0.7006663115232213  0.31359270135923384  1.0000
  C   C19       1.0  0.4210049218111394  0.7006657043185596  0.18640809006659964  1.0000
  C   C20       1.0  0.07899575759242339  0.2993334019604816  0.18640784909515426  1.0000
  C   C21       1.0  0.0789949401403973  0.7006659975147044  0.6864078489975827  1.0000
  C   C22       1.0  0.42100573653100776  0.29933389136726146  0.6864068514319754  1.0000
  C   C23       1.0  0.5789953688977575  0.2993344985715183  0.8135919522261402  1.0000
  C   C24       1.0  0.9210045331170419  0.7006655607712416  0.8135907246940735  1.0000
  C   C25       1.0  0.9889647566679612  0.34237517188394406  0.34043151022331847  1.0000
  C   C26       1.0  0.5110344934159555  0.6576259405329734  0.34043160652226595  1.0000
  C   C27       1.0  0.48896557893595366  0.6576253968780392  0.15956872006483286  1.0000
  C   C28       1.0  0.011036376303998502  0.3423737339626456  0.15956801800295756  1.0000
  C   C29       1.0  0.011034912868190402  0.6576262711647585  0.6595690215705974  1.0000
  C   C30       1.0  0.4889645549473443  0.3423742623567492  0.6595684357709575  1.0000
  C   C31       1.0  0.5110359541185545  0.3423748060124012  0.8404313222274169  1.0000
  C   C32       1.0  0.9889651567512489  0.6576258488489442  0.8404305557856021  1.0000
  C   C33       1.0  0.9881808608826789  0.4284787926464516  0.34127440708371654  1.0000
  C   C34       1.0  0.5118177669768117  0.5715229390784342  0.3412745521088  1.0000
  C   C35       1.0  0.48818163456863317  0.5715223957455392  0.15872533431517166  1.0000
  C   C36       1.0  0.011819700550979901  0.42847797602559  0.15872507180434783  1.0000
  C   C37       1.0  0.011818187480976398  0.5715226504023009  0.6587256352091517  1.0000
  C   C38       1.0  0.48818252373227017  0.42847788389116187  0.6587254901837554  1.0000
  C   C39       1.0  0.5118192773134282  0.4284790473037531  0.8412747079769717  1.0000
  C   C40       1.0  0.9881818325038338  0.5715222268650703  0.8412744809866127  1.0000
  C   C41       1.0  0.919546811844647  0.20819615894349397  0.3115338670467268  1.0000
  C   C42       1.0  0.5804549589886038  0.7918043598388634  0.311534811249537  1.0000
  C   C43       1.0  0.41954519071043705  0.7918043699933007  0.18846543845177882  1.0000
  C   C44       1.0  0.08045362260720168  0.20819473440224803  0.18846573806575864  1.0000
  C   C45       1.0  0.0804547212103515  0.7918046640266778  0.6884656857440562  1.0000
  C   C46       1.0  0.4195453317203003  0.20819584305122157  0.6884652310432033  1.0000
  C   C47       1.0  0.5804532364806718  0.20819583289669197  0.8115336248391077  1.0000
  C   C48       1.0  0.9195454257566595  0.79180422832912  0.8115328357239521  1.0000
  C   C49       1.0  0.8845474721591557  0.16346177708219758  0.25770735254762667  1.0000
  C   C50       1.0  0.6154531234942056  0.8365387909574334  0.2577077542835795  1.0000
  C   C51       1.0  0.38454705199143996  0.8365381116959367  0.24229295928592623  1.0000
  C   C52       1.0  0.11545293650516439  0.16346094344167028  0.24229325720054365  1.0000
  C   C53       1.0  0.11545343972224488  0.8365384258078379  0.7422931792461612  1.0000
  C   C54       1.0  0.38454778838732295  0.16346079185331056  0.7422922880090966  1.0000
  C   C55       1.0  0.61545261754479  0.16346147111467246  0.7577065935059439  1.0000
  C   C56       1.0  0.8845467330310584  0.8365386393689389  0.7577062955913264  1.0000
  C   C57       1.0  0.8837411645941131  0.0734429739173876  0.25662068578687075  1.0000
  C   C58       1.0  0.6162588112426163  0.9265582151960244  0.256621035311504  1.0000
  C   C59       1.0  0.3837420373077122  0.9265575344782772  0.24337913717439366  1.0000
  C   C60       1.0  0.1162585710064903  0.0734421397450262  0.2433794860419668  1.0000
  C   C61       1.0  0.11625850494216648  0.9265578490520312  0.7433793565059333  1.0000
  C   C62       1.0  0.3837421006387843  0.07344198769401089  0.7433794964822839  1.0000
  C   C63       1.0  0.6162576322285105  0.0734420483323319  0.7566204156174765  1.0000
  C   C64       1.0  0.8837410985302226  0.9265580631453287  0.7566195772484365  1.0000
  C   C65       1.0  0.9175813698812193  0.026777015145412995  0.3098147912570256  1.0000
  C   C66       1.0  0.5824204030973588  0.9732241252896612  0.30981562996971956  1.0000
  C   C67       1.0  0.41758047235301626  0.9732228925842888  0.19018500527757715  1.0000
  C   C68       1.0  0.0824195811644657  0.026776210237976297  0.19018540731138966  1.0000
  C   C69       1.0  0.08242016317377218  0.9732238078247659  0.6901847615337574  1.0000
  C   C70       1.0  0.4175811299568437  0.026776077600551697  0.6901849018238267  1.0000
  C   C71       1.0  0.5824185760101059  0.026776690225922595  0.809815037015824  1.0000
  C   C72       1.0  0.9175807095443886  0.9732227524932991  0.8098141454804095  1.0000
  C   C73       1.0  0.9513563801050466  0.07275651762180499  0.3607997508820945  1.0000
  C   C74       1.0  0.5486434657349548  0.9272439560759337  0.36080113182035234  1.0000
  C   C75       1.0  0.4513573832107127  0.9272434094855411  0.13919904027257252  1.0000
  C   C76       1.0  0.048642112755054305  0.07275636007400978  0.13919944233779097  1.0000
  C   C77       1.0  0.0486432894316664  0.92724368526855  0.6391993124083017  1.0000
  C   C78       1.0  0.45135806731907013  0.07275562673476091  0.6391993999733716  1.0000
  C   C79       1.0  0.5486416651525872  0.07275679340418148  0.8608010020206509  1.0000
  C   C80       1.0  0.9513569356091622  0.9272438428163807  0.8607991314515577  1.0000
  C   C81       1.0  0.9524558806398673  0.1603557706797929  0.3617190087799927  1.0000
  C   C82       1.0  0.5475445852262765  0.8396440820978127  0.36171946176952474  1.0000
  C   C83       1.0  0.45245559204944635  0.8396435369777817  0.13828125002057595  1.0000
  C   C84       1.0  0.0475439050612181  0.1603549932626507  0.13828160274817242  1.0000
  C   C85       1.0  0.0475444100685536  0.8396438121305535  0.6382815230142144  1.0000
  C   C86       1.0  0.45245632665542973  0.16035612079244999  0.6382805805229738  1.0000
  C   C87       1.0  0.547544077486961  0.16035666591234585  0.8617183027711167  1.0000
  C   C88       1.0  0.9524557644746494  0.8396433493889289  0.8617179500440532  1.0000
  C   C89       1.0  0.984636584365809  0.8914896866581257  0.33800098067847983  1.0000
  C   C90       1.0  0.5153626687503206  0.10851204806193236  0.33800236724796673  1.0000
  C   C91       1.0  0.4846377082378979  0.1085108796211074  0.1619987634883557  1.0000
  C   C92       1.0  0.015362380450994797  0.8914882489949746  0.16199872240170526  1.0000
  C   C93       1.0  0.015363085170775998  0.10851113631152029  0.661998572113035  1.0000
  C   C94       1.0  0.4846382431310801  0.8914881548281028  0.6619981645458213  1.0000
  C   C95       1.0  0.5153613401257076  0.8914893232688428  0.8380007893035785  1.0000
  C   C96       1.0  0.9846366679125608  0.10851071373616607  0.8380003408892875  1.0000
  C   C97       1.0  0.9175344219309309  0.9355705123957349  0.31102262008804626  1.0000
  C   C98       1.0  0.5824642436759858  0.0644300068533923  0.31102397951342203  1.0000
  C   C99       1.0  0.41753672907428546  0.0644287752286559  0.18897668698085826  1.0000
  C   C100      1.0  0.0824645682963876  0.935569708620214  0.18897705773318313  1.0000
  C   C101      1.0  0.08246462643297998  0.06442969049443548  0.6889764432025987  1.0000
  C   C102      1.0  0.41753604703261255  0.9355701960364654  0.6889765522806145  1.0000
  C   C103      1.0  0.5824629404619373  0.9355708075819534  0.8110228658110119  1.0000
  C   C104      1.0  0.9175357224129428  0.06442987419080029  0.8110220055571491  1.0000
  C   C105      1.0  0.8512142889212059  0.8890329172918853  0.2856704084442327  1.0000
  C   C106      1.0  0.6487844083224487  0.11096886531758798  0.28566924190352694  1.0000
  C   C107      1.0  0.35121597008276245  0.11096819252225737  0.21433090842229063  1.0000
  C   C108      1.0  0.14878405330568972  0.8890315082835227  0.2143307645478175  1.0000
  C   C109      1.0  0.14878475944153283  0.11096852575619917  0.7143311023525103  1.0000
  C   C110      1.0  0.35121588238676077  0.8890313375727174  0.7143303108879239  1.0000
  C   C111      1.0  0.6487843206257152  0.889032630446891  0.7856701128728504  1.0000
  C   C112      1.0  0.8512143738846304  0.11096807452650378  0.785669277745825  1.0000
  C   C113      1.0  0.8546704681243327  0.8030055656096804  0.2880327649732521  1.0000
  C   C114      1.0  0.6453288473433999  0.19699497467868804  0.28803253083979297  1.0000
  C   C115      1.0  0.35467220182424336  0.19699430602869936  0.21196757019192358  1.0000
  C   C116      1.0  0.145328445685486  0.8030047768602271  0.21196796781165977  1.0000
  C   C117      1.0  0.1453279590658596  0.19699463727964425  0.7119677668215092  1.0000
  C   C118      1.0  0.35467206453781586  0.8030046081318359  0.7119680009541727  1.0000
  C   C119      1.0  0.6453274677113683  0.8030052767814693  0.7880329616025323  1.0000
  C   C120      1.0  0.8546706026775085  0.19699542602927514  0.7880325639828599  1.0000
  C   C121      1.0  0.9829618772988341  0.8052769305582999  0.33855120548410883  1.0000
  C   C122      1.0  0.5170379963033297  0.19472294342011753  0.3385520518439408  1.0000
  C   C123      1.0  0.4829636727272728  0.1947217745220229  0.16144805048956815  1.0000
  C   C124      1.0  0.0170376589938996  0.8052767345186137  0.16144854699629013  1.0000
  C   C125      1.0  0.017037171064593803  0.19472265225213187  0.6614483473080031  1.0000
  C   C126      1.0  0.4829629155781986  0.8052766393906267  0.6614479904487285  1.0000
  C   C127      1.0  0.517036617981276  0.8052771882090253  0.8385519918035274  1.0000
  C   C128      1.0  0.982962010542508  0.19472346837150667  0.8385510057954025  1.0000
  C   C129      1.0  0.1348062775089716  0.6181137541694425  0.3222213377155542  1.0000
  C   C130      1.0  0.36519423242520327  0.3818858479044493  0.32222131543527155  1.0000
  C   C131      1.0  0.6348063021499826  0.3818859913330357  0.17777867965205024  1.0000
  C   C132      1.0  0.8651937720664195  0.6181140297707584  0.17777901151221445  1.0000
  C   C133      1.0  0.8651940131999253  0.38188644872064254  0.6777787045771861  1.0000
  C   C134      1.0  0.6348054371108984  0.6181143549854509  0.6777787268577102  1.0000
  C   C135      1.0  0.3651946097317235  0.61811421155722  0.8222213626404483  1.0000
  C   C136      1.0  0.13480776098839437  0.381886173119902  0.822220541278753  1.0000
  C   C137      1.0  0.1826893435943902  0.617794398139871  0.38519614972310023  1.0000
  C   C138      1.0  0.31731108775903044  0.3822051463048908  0.3851961646541754  1.0000
  C   C139      1.0  0.6826882046549442  0.38220537483291384  0.11480334074936144  1.0000
  C   C140      1.0  0.817310705797226  0.6177947039001026  0.11480371018635792  1.0000
  C   C141      1.0  0.8173109471146917  0.3822064248297251  0.6148038925694621  1.0000
  C   C142      1.0  0.6826885817767164  0.6177938164259801  0.6148038776391617  1.0000
  C   C143      1.0  0.31731146488146317  0.6177948280572136  0.8851962120423312  1.0000
  C   C144      1.0  0.18268834256625147  0.38220611906913843  0.8851963321066876  1.0000
  C   C145      1.0  0.26974733528292916  0.6220940552243802  0.38354600564463237  1.0000
  C   C146      1.0  0.2302530981298148  0.3779054907306474  0.3835456015261301  1.0000
  C   C147      1.0  0.7697474341515473  0.37790576769375406  0.11645341683935584  1.0000
  C   C148      1.0  0.7302520954139097  0.6220936894496629  0.11645434130280563  1.0000
  C   C149      1.0  0.7302517130800581  0.37790614766512215  0.6164545261498875  1.0000
  C   C150      1.0  0.7697471925790323  0.6220934720006281  0.6164539512656761  1.0000
  C   C151      1.0  0.23025223538498804  0.6220938151170825  0.883545646451218  1.0000
  C   C152      1.0  0.2697481952949943  0.37790651344041487  0.8835457009899346  1.0000
  C   C153      1.0  0.31498482987626625  0.6228120937922837  0.4414334314686316  1.0000
  C   C154      1.0  0.18501491013071805  0.3771873991887418  0.4414335525913844  1.0000
  C   C155      1.0  0.8149837582178846  0.377188375157452  0.058566445188688525  1.0000
  C   C156      1.0  0.685015843579926  0.6228111349593349  0.058566915067046914  1.0000
  C   C157      1.0  0.6850154608321546  0.3771874890180554  0.5585671003255827  1.0000
  C   C158      1.0  0.8149835170593461  0.6228134237798739  0.5585674687044886  1.0000
  C   C159      1.0  0.18501529014523044  0.6228112076527522  0.9414335971047125  1.0000
  C   C160      1.0  0.3149844471289782  0.37718906793075035  0.9414331272256933  1.0000
  C   C161      1.0  0.2742631867394324  0.6187548741688287  0.5019196545806112  1.0000
  C   C162      1.0  0.2257370989654106  0.38124518354035786  0.5019192520752896  1.0000
  C   C163      1.0  0.7742628113347293  0.3812444937831215  0.9980799941489452  1.0000
  C   C164      1.0  0.7257368604722457  0.6187541565723151  0.9980804345506871  1.0000
  C   C165      1.0  0.7257371039689885  0.38124470864151044  0.49808087721359595  1.0000
  C   C166      1.0  0.7742625705711744  0.6187556394292812  0.49808030071621817  1.0000
  C   C167      1.0  0.22573685820131567  0.6187544689479763  0.0019195586431024  1.0000
  C   C168      1.0  0.27426343023660843  0.38124480615896056  0.0019191182411191004  1.0000
  C   C169      1.0  0.18735179137887306  0.6131270067535083  0.5036828737806404  1.0000
  C   C170      1.0  0.31264849212541884  0.38687366942123436  0.5036833791794211  1.0000
  C   C171      1.0  0.6873508002454684  0.38687169125785903  0.9963168428228291  1.0000
  C   C172      1.0  0.8126494949345543  0.6131263406319718  0.996316729073691  1.0000
  C   C173      1.0  0.8126491205026554  0.38687257605723596  0.49631716851203594  1.0000
  C   C174      1.0  0.6873499350652563  0.6131271535478289  0.49631666311387346  1.0000
  C   C175      1.0  0.312648869290271  0.6131272714730115  0.0036831994705082004  1.0000
  C   C176      1.0  0.1873514169470951  0.3868726220994814  0.0036828237178739014  1.0000
  C   C177      1.0  0.14159872357234346  0.6129955632909299  0.44572544930526464  1.0000
  C   C178      1.0  0.35840101107975636  0.38700516592173523  0.4457249398954632  1.0000
  C   C179      1.0  0.6415989052735824  0.38700294594960377  0.0542740732567779  1.0000
  C   C180      1.0  0.8584007018797236  0.6129953279359981  0.05427490285566712  1.0000
  C   C181      1.0  0.8584009459634531  0.38700463959875003  0.5542750824890137  1.0000
  C   C182      1.0  0.6415986584564732  0.6129944168888739  0.554274612896407  1.0000
  C   C183      1.0  0.35840076426259054  0.6129953967022034  0.9457249900341583  1.0000
  C   C184      1.0  0.14159958882869716  0.3870042548743483  0.9457256289385402  1.0000
  C   C185      1.0  0.3244334122070285  0.6199373518875078  0.5637867238428313  1.0000
  C   C186      1.0  0.1755667962991296  0.38006202912674764  0.5637863611957599  1.0000
  C   C187      1.0  0.8244331133190599  0.3800626649263065  0.9362133752073449  1.0000
  C   C188      1.0  0.6755672568590967  0.6199366621240117  0.9362133646106444  1.0000
  C   C189      1.0  0.6755668785013853  0.38006223092283165  0.43621380795137554  1.0000
  C   C190      1.0  0.8244322520639924  0.6199375536834635  0.43621368109764114  1.0000
  C   C191      1.0  0.17556655621685738  0.6199369178840755  0.06378666708581453  1.0000
  C   C192      1.0  0.32443303384945205  0.3800623006070366  0.0637866776824509  1.0000
  S   S1        1.0  0.8243813466476553  0.12115378082341269  0.15650005920067406  1.0000
  S   S2        1.0  0.6756181329481519  0.8788468798323021  0.1564999002060716  1.0000
  S   S3        1.0  0.3243820669263826  0.8788466935173815  0.34350029961901646  1.0000
  S   S4        1.0  0.1756190376285716  0.12115288908410796  0.3435000852891435  1.0000
  S   S5        1.0  0.1756189440609432  0.8788464220664448  0.8435004725933553  1.0000
  S   S6        1.0  0.32438153658777213  0.12115270297808678  0.8435001420870879  1.0000
  S   S7        1.0  0.6756188449551459  0.12115288929336289  0.6564997426736527  1.0000
  S   S8        1.0  0.8243818742542287  0.8788479338863409  0.6564984884993026  1.0000
  N   N1        1.0  0.8509134502166446  0.04221578570609809  0.20071378608235343  1.0000
  N   N2        1.0  0.649085974208745  0.9577848344890397  0.20071360257576745  1.0000
  N   N3        1.0  0.3509142711693086  0.9577840837766229  0.29928655201722176  1.0000
  N   N4        1.0  0.1490856462104517  0.04221553928508829  0.29928640364006054  1.0000
  N   N5        1.0  0.1490862193191518  0.9577844171835818  0.7992867457119249  1.0000
  N   N6        1.0  0.35091493767296095  0.042215368401222995  0.7992864397167313  1.0000
  N   N7        1.0  0.6490847771938136  0.042215499033588295  0.7007134902761863  1.0000
  N   N8        1.0  0.8509146444992409  0.9577852836849556  0.7007126596499236  1.0000
  N   N9        1.0  0.8520607998253168  0.19729519149773714  0.20272510200880597  1.0000
  N   N10       1.0  0.6479386220902724  0.8027054268567752  0.20272500826033027  1.0000
  N   N11       1.0  0.3520609127198354  0.8027052987225288  0.29727523519483884  1.0000
  N   N12       1.0  0.14793900716991  0.19729494625931918  0.2972749988512434  1.0000
  N   N13       1.0  0.1479394908832816  0.8027050113921204  0.7972754297852237  1.0000
  N   N14       1.0  0.35206104744595734  0.19729415595383407  0.79727454453154  1.0000
  N   N15       1.0  0.6479393779890685  0.19729490416755618  0.7027248070979015  1.0000
  N   N16       1.0  0.8520600411944842  0.80270587671059  0.7027235749379346  1.0000
  N   N17       1.0  0.9242516474329959  0.472826872269941  0.31712683114471935  1.0000
  N   N18       1.0  0.5757482529033879  0.5271736413940642  0.3171269516560216  1.0000
  N   N19       1.0  0.42425236542224104  0.5271730392867228  0.18287344968138805  1.0000
  N   N20       1.0  0.0757489395649316  0.4728266903066539  0.1828731118325422  1.0000
  N   N21       1.0  0.0757480221030988  0.5271733306199665  0.6828732111482625  1.0000
  N   N22       1.0  0.42425141663240845  0.4728265614956157  0.6828735801382565  1.0000
  N   N23       1.0  0.5757497888047637  0.472827163603668  0.8171270821119166  1.0000
  N   N24       1.0  0.924252593489271  0.527173512583559  0.817127419961004  1.0000
  N   N25       1.0  0.9193040914098062  0.7616003828548655  0.3137354853961512  1.0000
  N   N26       1.0  0.5806945708134279  0.23840075399213834  0.3137347885115461  1.0000
  N   N27       1.0  0.41930525987724826  0.2384001459430394  0.1862647992933972  1.0000
  N   N28       1.0  0.08069355618595608  0.7615989604660454  0.18626576061631545  1.0000
  N   N29       1.0  0.08069433578008049  0.23839982003423896  0.6862655358998995  1.0000
  N   N30       1.0  0.41930634106797265  0.761599448897897  0.6862657432822419  1.0000
  N   N31       1.0  0.5806944096582427  0.7616000569464133  0.8137362220021701  1.0000
  N   N32       1.0  0.9193042498306384  0.23840062234313555  0.8137357501814436  1.0000
  O   O1        1.0  0.056073245516294896  0.6209722972003389  0.3242948951093467  1.0000
  O   O2        1.0  0.443926640658198  0.3790279230556024  0.3242943234792365  1.0000
  O   O3        1.0  0.5560726499236208  0.3790280232120579  0.17570616274750256  1.0000
  O   O4        1.0  0.9439261845337583  0.6209713797089335  0.17570545248102581  1.0000
  O   O5        1.0  0.9439264240198071  0.37902790568956835  0.6757051471836348  1.0000
  O   O6        1.0  0.5560736500505284  0.620971659754957  0.6757057188136815  1.0000
  O   O7        1.0  0.4439270196119978  0.6209715595981108  0.8242943690469533  1.0000
  O   O8        1.0  0.0560728638293639  0.3790282031012779  0.8242945898123826  1.0000
  O   O9        1.0  0.17640376813704248  0.6162485913306168  0.2688725342852436  1.0000
  O   O10       1.0  0.3235961871937789  0.38375167964282036  0.26887254342180716  1.0000
  O   O11       1.0  0.6764043484572609  0.38375179811615107  0.2311269610950931  1.0000
  O   O12       1.0  0.8235962803633327  0.616249414326866  0.2311278160111244  1.0000
  O   O13       1.0  0.8235959013987537  0.38375161155905596  0.7311279975090345  1.0000
  O   O14       1.0  0.6764041035153027  0.6162491433267759  0.7311274988707553  1.0000
  O   O15       1.0  0.3235965634252338  0.6162490248540707  0.7688721021946422  1.0000
  O   O16       1.0  0.17640338917312454  0.3837520287220641  0.7688722262815022  1.0000
  O   O17       1.0  0.4035621341301406  0.6228678721925007  0.5598109626183572  1.0000
  O   O18       1.0  0.09643870050965829  0.37713213253946515  0.5598111529469777  1.0000
  O   O19       1.0  0.9035618285921102  0.3771328100968176  0.9401890746360311  1.0000
  O   O20       1.0  0.5964385366252644  0.6228671333947771  0.9401891241559146  1.0000
  O   O21       1.0  0.5964381565784579  0.37713233069735697  0.4401895691756793  1.0000
  O   O22       1.0  0.9035609690256051  0.6228662101116668  0.4401893788478334  1.0000
  O   O23       1.0  0.09643784094368608  0.6228673927928624  0.05981145715824712  1.0000
  O   O24       1.0  0.4035623752564419  0.37713306949547837  0.05981091813658422  1.0000
  O   O25       1.0  0.28569269351348225  0.6181961325409658  0.6183279523362375  1.0000
  O   O26       1.0  0.2143074469350026  0.3818025784821371  0.6183280479383627  1.0000
  O   O27       1.0  0.7856930848592114  0.38180386204758315  0.881672176968259  1.0000
  O   O28       1.0  0.7143079745486388  0.618195514914106  0.8816726266162508  1.0000
  O   O29       1.0  0.7143069760222575  0.3818028301899118  0.38167208995710683  1.0000
  O   O30       1.0  0.7856922226005665  0.618195764169215  0.38167199435515203  1.0000
  O   O31       1.0  0.2143072058496927  0.6181963408425016  0.11832786532448131  1.0000
  O   O32       1.0  0.2856929373327119  0.3818034478171198  0.11832741567660324  1.0000
