data_image0
_chemical_formula_structural       H28Pb5C20Br2N4O18
_chemical_formula_sum              "H28 Pb5 C20 Br2 N4 O18"
_cell_length_a       7.657684973294119
_cell_length_b       8.888893335563987
_cell_length_c       13.602812873337284
_cell_angle_alpha    72.60695477406571
_cell_angle_beta     80.40136804800426
_cell_angle_gamma    74.84247580755986

_space_group_name_H-M_alt    "P 1"
_space_group_IT_number       1

loop_
  _space_group_symop_operation_xyz
  'x, y, z'

loop_
  _atom_site_type_symbol
  _atom_site_label
  _atom_site_symmetry_multiplicity
  _atom_site_fract_x
  _atom_site_fract_y
  _atom_site_fract_z
  _atom_site_occupancy
  H   H1        1.0  0.8830557781276622  0.17283704116094611  0.24832137824222394  1.0000
  H   H2        1.0  0.11696742886909547  0.8271543385443396  0.7516616053983468  1.0000
  H   H3        1.0  0.7483758886249844  0.2626065097901957  0.15884093941031807  1.0000
  H   H4        1.0  0.2516317762502353  0.7373885625860341  0.8411508353375154  1.0000
  H   H5        1.0  0.01152132586086197  0.47087339834762787  0.16517851766589334  1.0000
  H   H6        1.0  0.9884728497743961  0.5291543681472464  0.8348206176169908  1.0000
  H   H7        1.0  0.8113731665742633  0.47066982538455454  0.2508613471086605  1.0000
  H   H8        1.0  0.18862384458945766  0.529351885607852  0.7491372384420744  1.0000
  H   H9        1.0  0.8087927432206923  0.5853933342039783  0.3980691826414001  1.0000
  H   H10       1.0  0.19122026936658182  0.414622272624385  0.60194015363831  1.0000
  H   H11       1.0  0.6860020152407171  0.7369775396782501  0.30134390591425125  1.0000
  H   H12       1.0  0.3140020114105794  0.2630368954347802  0.6986672174027575  1.0000
  H   H13       1.0  0.12425077102580666  0.00019319547913450007  0.1328405384226485  1.0000
  H   H14       1.0  0.875736880834445  0.9997971238624576  0.8671539968676143  1.0000
  H   H15       1.0  0.3033826897313006  0.002064266121856001  0.031096646989737995  1.0000
  H   H16       1.0  0.6966104222033279  0.9979199884950772  0.9689007755891267  1.0000
  H   H17       1.0  0.476866612888102  0.7276617595088128  0.0010788645080310375  1.0000
  H   H18       1.0  0.523126645280797  0.27231645265379006  0.9989233982819243  1.0000
  H   H19       1.0  0.56520046640302  0.745729300674519  0.10750532458045102  1.0000
  H   H20       1.0  0.4347829917924385  0.25426708149068133  0.8924942943644041  1.0000
  H   H21       1.0  0.8476125029778597  0.7564940680978014  0.11081492368742829  1.0000
  H   H22       1.0  0.15237576714079634  0.243498671994864  0.889193786021444  1.0000
  H   H23       1.0  0.9188663636604488  0.8818184805397639  0.16813112973624555  1.0000
  H   H24       1.0  0.08113136386768358  0.11818992831958043  0.8318604262628  1.0000
  H   H25       1.0  0.17755849381227748  0.6171360295852752  0.07583606844917765  1.0000
  H   H26       1.0  0.8224248431966144  0.382855518103952  0.9241637688509741  1.0000
  H   H27       1.0  0.11813667412341286  0.8218760758185513  0.0070013899938174435  1.0000
  H   H28       1.0  0.8818552332355977  0.1781130186825237  0.992995934670212  1.0000
  Pb  Pb1       1.0  0.27813132784129363  0.6191515070846878  0.3295271650532996  1.0000
  Pb  Pb2       1.0  0.7218567170384771  0.38085815558090996  0.6704790016814428  1.0000
  Pb  Pb3       1.0  0.4932469113289881  0.14232184554503394  0.324208406936755  1.0000
  Pb  Pb4       1.0  0.5067795457985224  0.8576828207064724  0.6757827160948153  1.0000
  Pb  Pb5       1.0  3.1444753659599524e-05  2.6491815369000014e-05  0.499992584259175  1.0000
  C   C1        1.0  0.05493220912644856  0.33559147026286956  0.31955816411876736  1.0000
  C   C2        1.0  0.9450646548558408  0.6644096907024918  0.6804363541645982  1.0000
  C   C3        1.0  0.9535986144314561  0.4819254224800178  0.24284679819699306  1.0000
  C   C4        1.0  0.04639839673227184  0.5180962885123892  0.7571517873537417  1.0000
  C   C5        1.0  0.8206023791029151  0.6904653480104913  0.33131026219236037  1.0000
  C   C6        1.0  0.1794075933525931  0.30954664313658503  0.6686949114677603  1.0000
  C   C7        1.0  0.859216720731787  0.8173853879417906  0.3733270439410674  1.0000
  C   C8        1.0  0.14079159379240738  0.18262782041774986  0.6266824552677052  1.0000
  C   C9        1.0  0.3775648122423476  0.9815268005536095  0.18168231737186594  1.0000
  C   C10       1.0  0.6224239902366049  0.018458682092124  0.8183196716365586  1.0000
  C   C11       1.0  0.266540426763477  0.9429314314627321  0.11301138197207189  1.0000
  C   C12       1.0  0.733450765214698  0.05705524802619522  0.8869850087193286  1.0000
  C   C13       1.0  0.5247646089447143  0.5121528320653896  0.1281497745270315  1.0000
  C   C14       1.0  0.47523677602642767  0.48783502074493873  0.8718608914539416  1.0000
  C   C15       1.0  0.46428133052894077  0.6954694031976985  0.08621930260225948  1.0000
  C   C16       1.0  0.5357105498516145  0.3045196928975217  0.9137816999634297  1.0000
  C   C17       1.0  0.9562054144066748  0.7619757941696362  0.15322236821030089  1.0000
  C   C18       1.0  0.04378415642644737  0.2380278174451647  0.8467811624917446  1.0000
  C   C19       1.0  0.1355324132049418  0.7399836476480955  0.08559473587740032  1.0000
  C   C20       1.0  0.8644525493611039  0.26000668474163996  0.9144051893560956  1.0000
  Br  Br1       1.0  0.6450377769344084  0.2947200501859015  0.4601726406609501  1.0000
  Br  Br2       1.0  0.3549927855961029  0.7052676830070936  0.5398339044693827  1.0000
  N   N1        1.0  0.9642947207725852  0.6384118905236991  0.2539993722105933  1.0000
  N   N2        1.0  0.03570701350192707  0.3616013420072193  0.746004108977445  1.0000
  N   N3        1.0  0.2835396205002282  0.7688365857989012  0.12987944803748522  1.0000
  N   N4        1.0  0.7164512554958973  0.23115130453783914  0.8701189410211186  1.0000
  O   O1        1.0  0.14237741115186955  0.3542780710434671  0.3845859591643971  1.0000
  O   O2        1.0  0.8575905731352831  0.6457111243117383  0.6154216248114394  1.0000
  O   O3        1.0  0.7886214662843967  0.15619085822974907  0.21217034584006458  1.0000
  O   O4        1.0  0.21138815092142227  0.8438017873615069  0.7878180473132373  1.0000
  O   O5        1.0  0.04846995801585045  0.1969825712857728  0.3117702025960796  1.0000
  O   O6        1.0  0.9515490915517397  0.8030366200024733  0.6881959782810156  1.0000
  O   O7        1.0  0.023168368587448505  0.8333976815991095  0.36358227777130026  1.0000
  O   O8        1.0  0.9768440586661808  0.16660946871925836  0.6364331714878659  1.0000
  O   O9        1.0  0.7310254766803361  0.9003516051892362  0.41983730107475736  1.0000
  O   O10       1.0  0.26898148703396874  0.09967248550878341  0.5801672600080892  1.0000
  O   O11       1.0  0.41936575335008525  0.8773333711805409  0.2668266258234411  1.0000
  O   O12       1.0  0.5806111334563154  0.1226521591822092  0.7331742404080686  1.0000
  O   O13       1.0  0.41653050822671384  0.1192029505800818  0.1516555490393188  1.0000
  O   O14       1.0  0.5834772229309946  0.8807703669790429  0.8483441361002804  1.0000
  O   O15       1.0  0.43116219197892747  0.442025006132198  0.2083407344309549  1.0000
  O   O16       1.0  0.568848616096808  0.557967642021623  0.7916659277902198  1.0000
  O   O17       1.0  0.667903591229745  0.4428988324234099  0.0846181246310564  1.0000
  O   O18       1.0  0.3320936648248887  0.5570950793845882  0.9153887980405243  1.0000
