data_image0
_chemical_formula_structural       Ag16H40C32N8O32
_chemical_formula_sum              "Ag16 H40 C32 N8 O32"
_cell_length_a       6.888004024002769
_cell_length_b       9.459676695000137
_cell_length_c       19.541544865007687
_cell_angle_alpha    90.00001391285025
_cell_angle_beta     89.99989875608105
_cell_angle_gamma    89.99998619497583

_space_group_name_H-M_alt    "P 1"
_space_group_IT_number       1

loop_
  _space_group_symop_operation_xyz
  'x, y, z'

loop_
  _atom_site_type_symbol
  _atom_site_label
  _atom_site_symmetry_multiplicity
  _atom_site_fract_x
  _atom_site_fract_y
  _atom_site_fract_z
  _atom_site_occupancy
  Ag  Ag1       1.0  0.13507135467956738  0.5594927898558806  0.4272420563748298  1.0000
  Ag  Ag2       1.0  0.6350675907139588  0.5594915990553844  0.0727576434057582  1.0000
  Ag  Ag3       1.0  0.1350714979126408  0.9405069944857157  0.9272424659124779  1.0000
  Ag  Ag4       1.0  0.3649319293796579  0.05949259478028778  0.4272424668722152  1.0000
  Ag  Ag5       1.0  0.8649283086493256  0.44050772284653306  0.5727574399803785  1.0000
  Ag  Ag6       1.0  0.36492771721584905  0.44050679941038595  0.9272423646809572  1.0000
  Ag  Ag7       1.0  0.8649296172145353  0.0594924610981167  0.0727575421724822  1.0000
  Ag  Ag8       1.0  0.6350706375467252  0.9405079179219982  0.5727575412123542  1.0000
  Ag  Ag9       1.0  0.9469081474735075  0.42171943785027105  0.1394784652788204  1.0000
  Ag  Ag10      1.0  0.4469064368375227  0.421719537903172  0.3605215347931008  1.0000
  Ag  Ag11      1.0  0.9469069574405036  0.07828182230096557  0.639478832443146  1.0000
  Ag  Ag12      1.0  0.5530944165219935  0.9217175332302215  0.13947861785825924  1.0000
  Ag  Ag13      1.0  0.053092967653320486  0.5782821319707236  0.8605215428062607  1.0000
  Ag  Ag14      1.0  0.5530903228922526  0.5782830890366596  0.6394779615631379  1.0000
  Ag  Ag15      1.0  0.05309270588600869  0.921717633283123  0.3605216873725325  1.0000
  Ag  Ag16      1.0  0.4469066986066321  0.07828086523490188  0.8605208784963735  1.0000
  H   H1        1.0  0.2673338682431278  0.586441832282567  0.1502137653137794  1.0000
  H   H2        1.0  0.7673330787190691  0.5864418382319554  0.3497853430445517  1.0000
  H   H3        1.0  0.2673325684957034  0.9135567318475422  0.6502141716992682  1.0000
  H   H4        1.0  0.23266643255837485  0.08644060354986749  0.1502137469254308  1.0000
  H   H5        1.0  0.7326672468865992  0.4135576233010099  0.8497852193106467  1.0000
  H   H6        1.0  0.23266222921294136  0.4135586744707139  0.6502136415817432  1.0000
  H   H7        1.0  0.7326670948320878  0.08644272373641827  0.3497858363861468  1.0000
  H   H8        1.0  0.7673332307723084  0.9135567377966747  0.8497852376993223  1.0000
  H   H9        1.0  0.18776780819774067  0.7973380694792525  0.2145244805965589  1.0000
  H   H10       1.0  0.6877673392531632  0.7973391001326745  0.28547572573006624  1.0000
  H   H11       1.0  0.18776657746295197  0.7026615982980073  0.7145248623111229  1.0000
  H   H12       1.0  0.3122321030085828  0.2973378837513677  0.21452441237156716  1.0000
  H   H13       1.0  0.8122333069283271  0.20266032898612704  0.785476039218608  1.0000
  H   H14       1.0  0.3122279686770568  0.20266458392586628  0.7145237706266913  1.0000
  H   H15       1.0  0.8122330858621111  0.29733891440479715  0.2854761692348902  1.0000
  H   H16       1.0  0.6877661085187226  0.7026605147142675  0.7854761074445094  1.0000
  H   H17       1.0  0.9432813235148884  0.746286573744065  0.21008856303254217  1.0000
  H   H18       1.0  0.44327996486152427  0.7462876953257548  0.2899119890096529  1.0000
  H   H19       1.0  0.9432786242759617  0.7537140148995433  0.7100884389894375  1.0000
  H   H20       1.0  0.5567194941075327  0.24628537622143645  0.21008763138956973  1.0000
  H   H21       1.0  0.05672124340929939  0.2537118247213214  0.7899124685124336  1.0000
  H   H22       1.0  0.5567153430688733  0.2537149316142048  0.7100875073470405  1.0000
  H   H23       1.0  0.05672249084959448  0.24628755492157953  0.289912080825907  1.0000
  H   H24       1.0  0.44327726562183745  0.7537119651256176  0.789912376696627  1.0000
  H   H25       1.0  0.21557007058407146  0.8081174742443195  0.09177624475338318  1.0000
  H   H26       1.0  0.7155704415515981  0.8081175096483901  0.4082239454197421  1.0000
  H   H27       1.0  0.21556739157731633  0.691882126732075  0.5917766252074088  1.0000
  H   H28       1.0  0.28443190078183983  0.30811623632937557  0.091776193941854  1.0000
  H   H29       1.0  0.7844324963423188  0.19188303845796637  0.9082237633311793  1.0000
  H   H30       1.0  0.2844306735752298  0.19188406017260462  0.591776062665339  1.0000
  H   H31       1.0  0.7844322717491962  0.30811732885202037  0.4082238946082697  1.0000
  H   H32       1.0  0.715569214345507  0.6918821621358828  0.9082238141430423  1.0000
  H   H33       1.0  0.9668733744603272  0.7610312299276315  0.0843625703076469  1.0000
  H   H34       1.0  0.4668728408752472  0.7610313577608563  0.41563796868201314  1.0000
  H   H35       1.0  0.9668721318457754  0.738969291160785  0.5843624445392308  1.0000
  H   H36       1.0  0.5331280650656466  0.26103109370865946  0.08436267690214552  1.0000
  H   H37       1.0  0.0331291924662338  0.23896822565607315  0.9156374377768515  1.0000
  H   H38       1.0  0.5331268224498229  0.23896915494194101  0.5843630628639929  1.0000
  H   H39       1.0  0.0331304350804373  0.2610322786600818  0.41563756354539555  1.0000
  H   H40       1.0  0.4668715982610435  0.7389673047568478  0.9156378429134762  1.0000
  C   C1        1.0  0.12419920152334636  0.6145866013122898  0.27420145026355414  1.0000
  C   C2        1.0  0.6241975782629721  0.6145876018865903  0.22579877450156974  1.0000
  C   C3        1.0  0.12419645918777886  0.8854120507017172  0.7742013416268209  1.0000
  C   C4        1.0  0.37580337560083166  0.1145874614266589  0.2742013422210974  1.0000
  C   C5        1.0  0.8758019136040004  0.38541179715296175  0.7257985578213351  1.0000
  C   C6        1.0  0.37579918146570174  0.3854139679347952  0.7742012335848756  1.0000
  C   C7        1.0  0.8758032041400126  0.11458740488225055  0.22579866645859434  1.0000
  C   C8        1.0  0.6241962877269671  0.8854119941573015  0.7257986658643106  1.0000
  C   C9        1.0  0.09152805182270639  0.7039596214791501  0.21070443882094736  1.0000
  C   C10       1.0  0.591527563836763  0.7039606540578873  0.2892953051323843  1.0000
  C   C11       1.0  0.09152679053114099  0.796040061444124  0.7107048314590756  1.0000
  C   C12       1.0  0.40847190898303853  0.20395941867980832  0.21070431031541403  1.0000
  C   C13       1.0  0.9084730633046402  0.2960387769861015  0.789295569263949  1.0000
  C   C14       1.0  0.4084691958930191  0.29604197288194456  0.7107041912238544  1.0000
  C   C15       1.0  0.9084743245945858  0.20396045125841766  0.2892956883562121  1.0000
  C   C16       1.0  0.5915263025455386  0.7960389797856988  0.7892956977703918  1.0000
  C   C17       1.0  0.16266089695206887  0.6426530324387087  0.0211426344192347  1.0000
  C   C18       1.0  0.6626594640157322  0.6426562748006858  0.478858592998975  1.0000
  C   C19       1.0  0.16266106739818292  0.8573465423209541  0.5211430342286506  1.0000
  C   C20       1.0  0.3373429324636703  0.14265601361225316  0.0211410152764842  1.0000
  C   C21       1.0  0.8373416699735611  0.3573443089079618  0.9788578853954135  1.0000
  C   C22       1.0  0.3373431029104807  0.357345295020174  0.5211414150856513  1.0000
  C   C23       1.0  0.8373444031229693  0.14265502750004086  0.4788585090458711  1.0000
  C   C24       1.0  0.6626567308641214  0.857343441971707  0.9788589928089239  1.0000
  C   C25       1.0  0.11436370869159868  0.717204227155946  0.0877238791355168  1.0000
  C   C26       1.0  0.6143626076575329  0.7172053217213942  0.41227687552462555  1.0000
  C   C27       1.0  0.11436245173542396  0.7827953897301041  0.5877237584940005  1.0000
  C   C28       1.0  0.38563831262626275  0.21720402840698932  0.0877232532023626  1.0000
  C   C29       1.0  0.8856388582336903  0.28279522842788646  0.9122766406792522  1.0000
  C   C30       1.0  0.3856370556697398  0.2827973052183096  0.5877231325609671  1.0000
  C   C31       1.0  0.8856401151896874  0.21720512297230943  0.41227676132083263  1.0000
  C   C32       1.0  0.6143628025009132  0.7827954271768505  0.9122767548825975  1.0000
  N   N1        1.0  0.127943705904201  0.6240784368317448  0.14769046921542642  1.0000
  N   N2        1.0  0.627942903798825  0.6240795011718275  0.35230975431441897  1.0000
  N   N3        1.0  0.12794241847392834  0.8759212078706395  0.6476903594679229  1.0000
  N   N4        1.0  0.37205804696034744  0.12407824049169845  0.14768985178829303  1.0000
  N   N5        1.0  0.8720574092231458  0.3759199616335066  0.8523095388694698  1.0000
  N   N6        1.0  0.37205385593095736  0.37592312576800413  0.6476897420418197  1.0000
  N   N7        1.0  0.8720586966517982  0.12407930483190201  0.3523101603473648  1.0000
  N   N8        1.0  0.6279416163676215  0.8759201579736883  0.852310156297051  1.0000
  O   O1        1.0  0.06957074268558468  0.6719976735268531  0.331260930854782  1.0000
  O   O2        1.0  0.5695665002609543  0.6719975882230216  0.1687398465743684  1.0000
  O   O3        1.0  0.06956511553785559  0.828003131174732  0.8312608155030361  1.0000
  O   O4        1.0  0.4304329830170274  0.1719964097135787  0.3312602768646045  1.0000
  O   O5        1.0  0.9304347278395751  0.328002839175177  0.6687390772288708  1.0000
  O   O6        1.0  0.43042880766834185  0.328003981598492  0.8312601615125317  1.0000
  O   O7        1.0  0.9304359995889724  0.17199843864626269  0.168739192582045  1.0000
  O   O8        1.0  0.5695652285126583  0.8280030458703818  0.6687392194909876  1.0000
  O   O9        1.0  0.20545934857889137  0.4965318182318725  0.2691419407451577  1.0000
  O   O10       1.0  0.7054606036975812  0.49653282135593435  0.23085770758063967  1.0000
  O   O11       1.0  0.20545818302749547  0.003467524558544699  0.7691422991576928  1.0000
  O   O12       1.0  0.2945402251814357  0.9965319850199349  0.2691419420922969  1.0000
  O   O13       1.0  0.7945374111543085  0.5034655231148049  0.7308565321502343  1.0000
  O   O14       1.0  0.2945405114303554  0.5034698055835136  0.7691417887742347  1.0000
  O   O15       1.0  0.7945414803023283  0.9965351023808959  0.2308566854673657  1.0000
  O   O16       1.0  0.7054608899471899  0.003466413445195798  0.7308575542623289  1.0000
  O   O17       1.0  0.27659086325112975  0.5360975844439649  0.0242743817492652  1.0000
  O   O18       1.0  0.7765923495281156  0.5360987109897406  0.47572573838141347  1.0000
  O   O19       1.0  0.2765924506278735  0.96390197168467  0.5242747940232562  1.0000
  O   O20       1.0  0.22340717822197573  0.03609847159054879  0.0242738574296766  1.0000
  O   O21       1.0  0.7234073482761758  0.4639008140216702  0.9757261380668041  1.0000
  O   O22       1.0  0.2234087656016114  0.46390074459383596  0.5242732462430055  1.0000
  O   O23       1.0  0.7234086644965814  0.03609854101799929  0.475726237522295  1.0000
  O   O24       1.0  0.7765910333060899  0.9639030982307013  0.9757261506563141  1.0000
  O   O25       1.0  0.09039957239710357  0.6933135709357214  0.9669266360334916  1.0000
  O   O26       1.0  0.5904003616521364  0.6933144743696784  0.5330733701543622  1.0000
  O   O27       1.0  0.09039934827202248  0.8066872984508888  0.46692676714327064  1.0000
  O   O28       1.0  0.40959952580055864  0.19331231081770278  0.9669265068213379  1.0000
  O   O29       1.0  0.9096000909292384  0.30668694176695505  0.0330738837822508  1.0000
  O   O30       1.0  0.4096036570760119  0.3066870954508047  0.4669256144692753  1.0000
  O   O31       1.0  0.9096046704526441  0.1933121571328158  0.5330737526710508  1.0000
  O   O32       1.0  0.5904001375285047  0.806687144766137  0.033072989533806704  1.0000
