data_image0
_chemical_formula_structural       Zn2H16C30N2O12F2
_chemical_formula_sum              "Zn2 H16 C30 N2 O12 F2"
_cell_length_a       9.557835977485642
_cell_length_b       10.86900761499413
_cell_length_c       16.12937672166193
_cell_angle_alpha    89.6635439312115
_cell_angle_beta     89.40934557474317
_cell_angle_gamma    88.92735900953184

_space_group_name_H-M_alt    "P 1"
_space_group_IT_number       1

loop_
  _space_group_symop_operation_xyz
  'x, y, z'

loop_
  _atom_site_type_symbol
  _atom_site_label
  _atom_site_symmetry_multiplicity
  _atom_site_fract_x
  _atom_site_fract_y
  _atom_site_fract_z
  _atom_site_occupancy
  Zn  Zn1       1.0  0.647083330119699  0.5038229430979443  0.4914858437314251  1.0000
  Zn  Zn2       1.0  0.35289882376970644  0.49618040140282477  0.5085086654960945  1.0000
  H   H1        1.0  0.664794536925136  0.6582171291810753  0.9541561795082598  1.0000
  H   H2        1.0  0.33526621341135154  0.34177753979659553  0.0458387451403368  1.0000
  H   H3        1.0  0.2717856606400275  0.5381363814788926  0.9346558325997519  1.0000
  H   H4        1.0  0.7282740977733513  0.46185461189357824  0.06533910183546959  1.0000
  H   H5        1.0  0.3888059008833338  0.09655624778046251  0.6214985116599931  1.0000
  H   H6        1.0  0.6111531301690434  0.9034490165928447  0.37850411894503805  1.0000
  H   H7        1.0  0.7530260246786115  0.04361081780582051  0.4997009694111724  1.0000
  H   H8        1.0  0.24692252304095064  0.9563954161923649  0.5003023088368221  1.0000
  H   H9        1.0  0.8762022182447282  0.5340930507977149  0.6306071380630341  1.0000
  H   H10       1.0  0.1237810139854503  0.4659038172551248  0.3693942004481484  1.0000
  H   H11       1.0  0.10423801525018925  0.6804486570220901  0.5608374997329973  1.0000
  H   H12       1.0  0.8957462769933215  0.31954728561323975  0.43916383755787075  1.0000
  H   H13       1.0  0.38030357889957866  0.7783130772871375  0.006648888176385999  1.0000
  H   H14       1.0  0.6197384358365596  0.2216733928456094  0.9933485847776565  1.0000
  H   H15       1.0  0.9973510162109706  0.7230628583702271  0.3702219150204371  1.0000
  H   H16       1.0  0.0026394417922759005  0.2769394862909423  0.6297812527373026  1.0000
  C   C1        1.0  0.47238360064220336  0.7389759225565414  0.5027336723283256  1.0000
  C   C2        1.0  0.5275837570507065  0.2610311323939527  0.49727079144272296  1.0000
  C   C3        1.0  0.4368405119086703  0.05189639398119541  0.5674929825224451  1.0000
  C   C4        1.0  0.5631142906141662  0.9481125774809271  0.4325084129230631  1.0000
  C   C5        1.0  0.5205302356316182  0.1242749633198201  0.4986167207616247  1.0000
  C   C6        1.0  0.479433932070883  0.8757367164204408  0.5013858831826568  1.0000
  C   C7        1.0  0.641158060057613  0.024520665581413  0.49958575149134526  1.0000
  C   C8        1.0  0.35879361689740114  0.9754874013150853  0.5004156544681704  1.0000
  C   C9        1.0  0.0506535961792025  0.6020745164412631  0.5346237754777616  1.0000
  C   C10       1.0  0.9493317403653379  0.39792234660438913  0.46537631712545374  1.0000
  C   C11       1.0  0.9387184001811664  0.5197701993973496  0.5743132905658256  1.0000
  C   C12       1.0  0.0612669578375744  0.48022482052983406  0.4256874254843197  1.0000
  C   C13       1.0  0.9706996572185815  0.5950260789607712  0.450762892891582  1.0000
  C   C14       1.0  0.029288801226144308  0.4049707603178375  0.5492390509720904  1.0000
  C   C15       1.0  0.48003717433497434  0.5043307391586466  0.33768227714676147  1.0000
  C   C16       1.0  0.5199574530162464  0.495676210057752  0.6623152901267274  1.0000
  C   C17       1.0  0.5920419952405211  0.5877872023579086  0.9750788603870075  1.0000
  C   C18       1.0  0.4080229548160546  0.41220374598406556  0.024920399523111297  1.0000
  C   C19       1.0  0.45000038794307773  0.6118473258257069  0.022978946520183296  1.0000
  C   C20       1.0  0.5500509511185997  0.38814461319881116  0.9770197297928431  1.0000
  C   C21       1.0  0.47221144610892923  0.5049508491016469  0.24820314971184126  1.0000
  C   C22       1.0  0.5278073677495527  0.4950439904635857  0.7518005725656707  1.0000
  C   C23       1.0  0.627529323225872  0.47906023370483536  0.0354770130992463  1.0000
  C   C24       1.0  0.3725251822577604  0.5209298492716884  0.9645216578395548  1.0000
  C   C25       1.0  0.4859466550589175  0.5023975513672096  0.0851437262412063  1.0000
  C   C26       1.0  0.5141120705772195  0.4975925270136869  0.9148512128408653  1.0000
  C   C27       1.0  0.4741186922308104  0.504808536471117  0.17263691302672868  1.0000
  C   C28       1.0  0.5259210757277515  0.49518991758414904  0.8273580634404709  1.0000
  C   C29       1.0  0.5578320282264714  0.9539024854197179  0.5679733604109671  1.0000
  C   C30       1.0  0.44212379921745554  0.04610832394789811  0.4320274086540364  1.0000
  N   N1        1.0  0.860600081517646  0.511906765680841  0.4911847943836419  1.0000
  N   N2        1.0  0.1393831350002301  0.4880919481998448  0.5088153006602167  1.0000
  O   O1        1.0  0.5914067061737427  0.6844873091916028  0.4988638032506357  1.0000
  O   O2        1.0  0.4085676569204324  0.31550430401026835  0.5010873502898716  1.0000
  O   O3        1.0  0.35359748488006915  0.6885744127857193  0.5075905473419124  1.0000
  O   O4        1.0  0.6463860808655114  0.31144435343492927  0.49245228848428  1.0000
  O   O5        1.0  0.6030547738919482  0.4985621800203718  0.3673905026813315  1.0000
  O   O6        1.0  0.39694294717072864  0.5013720273892304  0.6326152543379067  1.0000
  O   O7        1.0  0.3652560821698857  0.5096216206551033  0.37848784190385487  1.0000
  O   O8        1.0  0.6347490834180718  0.49045801614636264  0.6214983973853023  1.0000
  O   O9        1.0  0.39921249867430225  0.7231492135807684  0.0532539471054676  1.0000
  O   O10       1.0  0.6008462851016462  0.27683811231463545  0.9467391370551821  1.0000
  O   O11       1.0  0.9199958260588232  0.688041962657266  0.4018328668634864  1.0000
  O   O12       1.0  0.07999262243549052  0.31195672515855943  0.5981672135124609  1.0000
  F   F1        1.0  0.6154006108274075  0.904994239606751  0.6388584446411159  1.0000
  F   F2        1.0  0.3845552847067353  0.09501196873814881  0.361142332990191  1.0000
