data_image0
_chemical_formula_structural       Ag4H24C16N12
_chemical_formula_sum              "Ag4 H24 C16 N12"
_cell_length_a       7.092976675034105
_cell_length_b       8.117561457019889
_cell_length_c       9.586690618040388
_cell_angle_alpha    90.00018746767877
_cell_angle_beta     89.99972421946299
_cell_angle_gamma    90.00019695008055

_space_group_name_H-M_alt    "P 1"
_space_group_IT_number       1

loop_
  _space_group_symop_operation_xyz
  'x, y, z'

loop_
  _atom_site_type_symbol
  _atom_site_label
  _atom_site_symmetry_multiplicity
  _atom_site_fract_x
  _atom_site_fract_y
  _atom_site_fract_z
  _atom_site_occupancy
  Ag  Ag1       1.0  0.19897389505970148  0.717047929923723  0.502007028897765  1.0000
  Ag  Ag2       1.0  0.8010238372594358  0.2829508670830308  0.002005905758828401  1.0000
  Ag  Ag3       1.0  0.6989657833545734  0.7829565013763827  0.502002052394964  1.0000
  Ag  Ag4       1.0  0.30103053914329786  0.21704845510512877  0.0020067098213232  1.0000
  H   H1        1.0  0.43377000863387843  0.6021562799390099  0.2948651038241863  1.0000
  H   H2        1.0  0.5662356975441086  0.39784611651444385  0.7948661171164986  1.0000
  H   H3        1.0  0.9337707498010701  0.8978530716867824  0.2948740049608106  1.0000
  H   H4        1.0  0.0662250874136561  0.10214809287918312  0.7948707764626662  1.0000
  H   H5        1.0  0.4519796130167819  0.42469147824023423  0.18781954433153913  1.0000
  H   H6        1.0  0.5480239661588796  0.5753117350061104  0.6878190265241458  1.0000
  H   H7        1.0  0.9519877076521579  0.07531646761034243  0.1878233825780242  1.0000
  H   H8        1.0  0.04800882227240779  0.9246842818420975  0.6878214469638665  1.0000
  H   H9        1.0  0.35426551957569064  0.656859271395561  0.040016166991755114  1.0000
  H   H10       1.0  0.6457460652352722  0.3431421368266356  0.5400188308394293  1.0000
  H   H11       1.0  0.854256204291218  0.8431451267683983  0.04002804645935501  1.0000
  H   H12       1.0  0.14574128200701608  0.15685504956723414  0.5400246843135079  1.0000
  H   H13       1.0  0.5893737896969994  0.6054248906743709  0.9942469489364288  1.0000
  H   H14       1.0  0.41063767552154923  0.3945721194567895  0.4942464885143212  1.0000
  H   H15       1.0  0.08936700165259738  0.8945699908245857  0.9942503293389965  1.0000
  H   H16       1.0  0.9106303650958338  0.10542701929279022  0.49424832370115024  1.0000
  H   H17       1.0  0.5441392780961606  0.7811433384480608  0.09973733762726773  1.0000
  H   H18       1.0  0.4558719202630569  0.21885583756271393  0.5997392950290887  1.0000
  H   H19       1.0  0.044127658154025105  0.7188565442967274  0.09974857784170153  1.0000
  H   H20       1.0  0.9558680318492491  0.2811426317221404  0.5997457877605541  1.0000
  H   H21       1.0  0.1268534900387976  0.3671466626681267  0.24477817998142373  1.0000
  H   H22       1.0  0.8731525402401628  0.6328469162762789  0.7447766570130627  1.0000
  H   H23       1.0  0.6268575523981497  0.1328628656860644  0.24478217710142763  1.0000
  H   H24       1.0  0.37314142865504607  0.8671430322290092  0.7447789185996784  1.0000
  C   C1        1.0  0.712394906747015  0.5204535684955899  0.25579365804804166  1.0000
  C   C2        1.0  0.2876082325642527  0.47954498075078794  0.7557938081958683  1.0000
  C   C3        1.0  0.21239968875143234  0.9795474897855387  0.2557962299061317  1.0000
  C   C4        1.0  0.7875921717791031  0.020452291350906603  0.7557974950366673  1.0000
  C   C5        1.0  0.5147347879500543  0.5464929827747157  0.20911474858841225  1.0000
  C   C6        1.0  0.48527006326790456  0.45350784925728505  0.7091141191920585  1.0000
  C   C7        1.0  0.0147366610046902  0.9535146158250216  0.20912037791215715  1.0000
  C   C8        1.0  0.9852597311075755  0.04648621621286961  0.7091189210117721  1.0000
  C   C9        1.0  0.4998446095062191  0.6541949990415148  0.0782908418594275  1.0000
  C   C10       1.0  0.5001639079441134  0.34580655759469897  0.57829299115339  1.0000
  C   C11       1.0  0.9998381230547507  0.8458051134527198  0.07829751310715242  1.0000
  C   C12       1.0  0.0001577057509508  0.15419274748904857  0.5782957079387643  1.0000
  C   C13       1.0  0.997795351394032  0.4342865709783439  0.2669293008103822  1.0000
  C   C14       1.0  0.0021978469669363997  0.5657169490110975  0.7669244519699492  1.0000
  C   C15       1.0  0.49779730497693453  0.06571690935443542  0.2669328164327638  1.0000
  C   C16       1.0  0.5021846145855661  0.9342755235525645  0.7669261519166142  1.0000
  N   N1        1.0  0.98086579227418  0.5452375456949741  0.3678829872603445  1.0000
  N   N2        1.0  0.019136621704227297  0.4547589744179917  0.8678861163830621  1.0000
  N   N3        1.0  0.4808676696432385  0.9547685530250267  0.36788444759657324  1.0000
  N   N4        1.0  0.5191276951153084  0.04523782225845  0.8678877854115542  1.0000
  N   N5        1.0  0.7975324437047251  0.6004890356894208  0.360773534646377  1.0000
  N   N6        1.0  0.20247142613379043  0.39950992064772345  0.8607748117591998  1.0000
  N   N7        1.0  0.2975341316745883  0.8995151820761079  0.3607748424474267  1.0000
  N   N8        1.0  0.7024612790907198  0.10048500614577453  0.8607745470878286  1.0000
  N   N9        1.0  0.8347046439000889  0.4138477500011177  0.19440714489957142  1.0000
  N   N10       1.0  0.16530312217549442  0.5861493293109279  0.6944059410082419  1.0000
  N   N11       1.0  0.33470666754568157  0.086156128138235  0.19441071694788553  1.0000
  N   N12       1.0  0.6652940492969605  0.9138471106572084  0.6944075845452106  1.0000
