data_image0
_chemical_formula_structural       Zn2H26C32Cl2O14
_chemical_formula_sum              "Zn2 H26 C32 Cl2 O14"
_cell_length_a       7.136028722386459
_cell_length_b       9.245433999108625
_cell_length_c       14.353066546531297
_cell_angle_alpha    80.89984035406647
_cell_angle_beta     75.60689815006462
_cell_angle_gamma    67.31028948255758

_space_group_name_H-M_alt    "P 1"
_space_group_IT_number       1

loop_
  _space_group_symop_operation_xyz
  'x, y, z'

loop_
  _atom_site_type_symbol
  _atom_site_label
  _atom_site_symmetry_multiplicity
  _atom_site_fract_x
  _atom_site_fract_y
  _atom_site_fract_z
  _atom_site_occupancy
  Zn  Zn1       1.0  0.05687566606899694  0.9514777828563158  0.5197796143726663  1.0000
  Zn  Zn2       1.0  0.5282039403538408  0.048602788993093816  0.48023229231561254  1.0000
  H   H1        1.0  0.6390369608664419  0.2768631412628508  0.7446439483347973  1.0000
  H   H2        1.0  0.6604492562705673  0.7229979752912072  0.2554006900332269  1.0000
  H   H3        1.0  0.6664610352850104  0.5172052993153003  0.5734350587525084  1.0000
  H   H4        1.0  0.7560062011758935  0.48287128667149654  0.42680317658735595  1.0000
  H   H5        1.0  0.8856820217962285  0.369300525828848  0.6150107585535664  1.0000
  H   H6        1.0  0.8693793455551316  0.6305509952756195  0.3852592004061535  1.0000
  H   H7        1.0  0.704842572915922  0.5191241730408293  0.6910805724360927  1.0000
  H   H8        1.0  0.9144735875438033  0.4805698750877666  0.3092583096283689  1.0000
  H   H9        1.0  0.44876656750227556  0.1386586183518332  0.7805252463363174  1.0000
  H   H10       1.0  0.36746448458998066  0.8613919030342674  0.219633197625889  1.0000
  H   H11       1.0  0.19103408315402284  0.06656156134400251  0.9074808443348629  1.0000
  H   H12       1.0  0.16468757399259454  0.9336502744696987  0.09261583586229699  1.0000
  H   H13       1.0  0.7522136413059928  0.5397377863637375  0.8929254750791884  1.0000
  H   H14       1.0  0.18471928137373078  0.4603619051607383  0.1069208207071313  1.0000
  H   H15       1.0  0.012867295719068729  0.6151602256415671  0.7620865697192656  1.0000
  H   H16       1.0  0.3894796999345901  0.3849298541955192  0.23791291591750516  1.0000
  H   H17       1.0  0.08177698958612471  0.3157973493606505  0.05162786495339588  1.0000
  H   H18       1.0  0.4490399426548706  0.6844325169142209  0.9483579483386889  1.0000
  H   H19       1.0  0.12733456051181238  0.2451530883002278  0.2215311720836368  1.0000
  H   H20       1.0  0.593978314370048  0.7549995353839382  0.7784489969297823  1.0000
  H   H21       1.0  0.6613983117956936  0.03626609357615251  0.27731313910996386  1.0000
  H   H22       1.0  0.9751322488913704  0.9635127853692822  0.722546153517328  1.0000
  H   H23       1.0  0.8232746794847046  0.792257334133879  0.6098872421670974  1.0000
  H   H24       1.0  0.22552832832342065  0.2077579619772649  0.39012215157653424  1.0000
  H   H25       1.0  0.05059546233146519  0.6687046720552134  0.5698045730110479  1.0000
  H   H26       1.0  0.2893199509961662  0.3312899195128054  0.43021414220162046  1.0000
  C   C1        1.0  0.6435379098647758  0.21151772404728322  0.6077725447292153  1.0000
  C   C2        1.0  0.46261659766771146  0.788564605196264  0.3922359184764871  1.0000
  C   C3        1.0  0.5943764771717288  0.338964820150828  0.67679544400292  1.0000
  C   C4        1.0  0.6097712548493064  0.6610012700243786  0.32324485271656295  1.0000
  C   C5        1.0  0.7212820804338945  0.4430623038356671  0.6359736813582799  1.0000
  C   C6        1.0  0.7996329242441439  0.5568306265698695  0.3642526534999675  1.0000
  C   C7        1.0  0.24717977649586245  0.3842809350323578  0.7641393934978282  1.0000
  C   C8        1.0  0.39514066057895303  0.6157798649529909  0.23589281009996196  1.0000
  C   C9        1.0  0.2980028987519816  0.2288021438351819  0.8041851904713154  1.0000
  C   C10       1.0  0.33055633073864504  0.7712777998126585  0.195876133143372  1.0000
  C   C11       1.0  0.15230591341391184  0.18708439272936062  0.8761699822150462  1.0000
  C   C12       1.0  0.21523412480937754  0.8130464671805839  0.1238440920864221  1.0000
  C   C13       1.0  0.9578902069900936  0.2995379320521253  0.9076033391062025  1.0000
  C   C14       1.0  0.16481202450275834  0.7005508054510514  0.0923212482168552  1.0000
  C   C15       1.0  0.9047251299625575  0.45345413726783335  0.8669872935083163  1.0000
  C   C16       1.0  0.22492486965928304  0.5466398065566979  0.1329303220005826  1.0000
  C   C17       1.0  0.04893005640025166  0.49563031598378193  0.7948953183404939  1.0000
  C   C18       1.0  0.3390046265571982  0.5044479089492881  0.2050956025063044  1.0000
  C   C19       1.0  0.8411222530143123  0.22231491008476215  0.07023286107081353  1.0000
  C   C20       1.0  0.13368434633951434  0.7775648380682654  0.9296467865383702  1.0000
  C   C21       1.0  0.9871218392473367  0.2581175356840789  0.10263246341902023  1.0000
  C   C22       1.0  0.34785150510338525  0.7418099944354071  0.8972937078358852  1.0000
  C   C23       1.0  0.011723347366626093  0.21857567832141464  0.1975201844459775  1.0000
  C   C24       1.0  0.4278447377520823  0.7813298646134399  0.8024132664918469  1.0000
  C   C25       1.0  0.8948856993995524  0.1389635024062201  0.2617571329628774  1.0000
  C   C26       1.0  0.2956823288503826  0.8608647087614119  0.7381277246701073  1.0000
  C   C27       1.0  0.7494585718146355  0.10204555409735153  0.22951961384788433  1.0000
  C   C28       1.0  0.08114681385056595  0.8977528083647786  0.7703468559231367  1.0000
  C   C29       1.0  0.7197693682841262  0.1460584549830273  0.13582556544746172  1.0000
  C   C30       1.0  0.0017085744492959189  0.8537780375649362  0.86405023682088  1.0000
  C   C31       1.0  0.9325605955866013  0.0849801242830992  0.3601188461254594  1.0000
  C   C32       1.0  0.3776636966987753  0.9149756985495757  0.6397834326379481  1.0000
  Cl  Cl1       1.0  0.5327780700586973  0.10703911911416243  0.09893939680477357  1.0000
  Cl  Cl2       1.0  0.7388169482928435  0.8929094584264805  0.9009091591165301  1.0000
  O   O1        1.0  0.8168130124219601  0.10094354155067012  0.6100012083410249  1.0000
  O   O2        1.0  0.527913891656617  0.898954254147725  0.3900463572915243  1.0000
  O   O3        1.0  0.515801212727688  0.22627478744022514  0.5559926566078346  1.0000
  O   O4        1.0  0.2977516137874546  0.7739816639449515  0.44396868144602314  1.0000
  O   O5        1.0  0.3804993549874212  0.43929233361816244  0.695959848456738  1.0000
  O   O6        1.0  0.5152835268715779  0.5607609745202282  0.3040560610093054  1.0000
  O   O7        1.0  0.8083531999181448  0.2576644756368154  0.9783873387568747  1.0000
  O   O8        1.0  0.04431504311913405  0.7423347736961363  0.0215156567863275  1.0000
  O   O9        1.0  0.06420478784200874  0.1167000675332091  0.39154376355485004  1.0000
  O   O10       1.0  0.5724177162666065  0.883322072030623  0.6083133254915084  1.0000
  O   O11       1.0  0.8411085442684652  0.9967325722476876  0.4149965737919742  1.0000
  O   O12       1.0  0.2527431563098333  0.0033250165595646  0.5849906675015077  1.0000
  O   O13       1.0  0.9756602669029274  0.7657312055139373  0.6022857656767258  1.0000
  O   O14       1.0  0.34380654798518157  0.2342548644427609  0.39774387420740714  1.0000
