data_image0
_chemical_formula_structural       Zn2H17C32N3O10
_chemical_formula_sum              "Zn2 H17 C32 N3 O10"
_cell_length_a       10.946542707750295
_cell_length_b       11.834420227078136
_cell_length_c       13.14457634505644
_cell_angle_alpha    86.82670905133469
_cell_angle_beta     89.9878687918794
_cell_angle_gamma    85.12011302041671

_space_group_name_H-M_alt    "P 1"
_space_group_IT_number       1

loop_
  _space_group_symop_operation_xyz
  'x, y, z'

loop_
  _atom_site_type_symbol
  _atom_site_label
  _atom_site_symmetry_multiplicity
  _atom_site_fract_x
  _atom_site_fract_y
  _atom_site_fract_z
  _atom_site_occupancy
  Zn  Zn1       1.0  0.489028875197164  0.6177115133433447  0.5031249841108902  1.0000
  Zn  Zn2       1.0  0.5164187154443313  0.37981591043130447  0.49789023499985774  1.0000
  H   H1        1.0  0.13787966494977164  0.3968435990151492  0.38795204107966436  1.0000
  H   H2        1.0  0.2080010806509734  0.5704885807408077  0.7001305596561664  1.0000
  H   H3        1.0  0.07533055127013452  0.6487132992689058  0.8362581957616868  1.0000
  H   H4        1.0  0.8472140030669029  0.6605154450868796  0.817453349036029  1.0000
  H   H5        1.0  0.752901342644421  0.5941708555971845  0.6641818659009288  1.0000
  H   H6        1.0  0.9096005721119842  0.4027285719048805  0.37139522221706056  1.0000
  H   H7        1.0  0.5462646215465555  0.36254216663612504  0.17744134422501648  1.0000
  H   H8        1.0  0.6043378635374383  0.27892323379091993  0.01142085801375  1.0000
  H   H9        1.0  0.38669373278228397  0.7235249119168118  0.9917009515199312  1.0000
  H   H10       1.0  0.6114665869951424  0.2990396059381554  0.821188512667149  1.0000
  H   H11       1.0  0.44807769066142117  0.6411447262796984  0.8249813938271161  1.0000
  H   H12       1.0  0.6316669839129434  0.8053538064620654  0.4272418043331427  1.0000
  H   H13       1.0  0.30654784587010653  0.786947583256371  0.5860660569408864  1.0000
  H   H14       1.0  0.7183962919917806  0.9999669699964358  0.3863714061730548  1.0000
  H   H15       1.0  0.28081967250653866  0.9983041119900807  0.6044691086678355  1.0000
  H   H16       1.0  0.6953241232589422  0.21079866176102513  0.4090361346137427  1.0000
  H   H17       1.0  0.3690493087681332  0.19258689960959435  0.5657535585929594  1.0000
  C   C1        1.0  0.5291047850533844  0.4826868394021844  0.6987822358965019  1.0000
  C   C2        1.0  0.2678409848322546  0.48880158337169655  0.5259805745179307  1.0000
  C   C3        1.0  0.468715850058871  0.5189722291454829  0.3042540602106953  1.0000
  C   C4        1.0  0.739029275917737  0.4999042966584639  0.4886045913525692  1.0000
  C   C5        1.0  0.10844911866343664  0.5761849749824891  0.6918245036416479  1.0000
  C   C6        1.0  0.03446271174556871  0.6198744421246972  0.7676139565607868  1.0000
  C   C7        1.0  0.9054341098061233  0.6262223721030439  0.7571442116048887  1.0000
  C   C8        1.0  0.8522610763073576  0.5883958396676976  0.6716822480454354  1.0000
  C   C9        1.0  0.9255537598113935  0.5413321562798785  0.592468131597677  1.0000
  C   C10       1.0  0.056772529086970336  0.5355941956626182  0.602972421692492  1.0000
  C   C11       1.0  0.13135299775765222  0.48542488435846565  0.5257629423688854  1.0000
  C   C12       1.0  0.07889617411972692  0.4363866963311338  0.44521719471741505  1.0000
  C   C13       1.0  0.9506364306919296  0.44045328288650876  0.4356041387223684  1.0000
  C   C14       1.0  0.874632248271148  0.49440706564453063  0.5054188591020363  1.0000
  C   C15       1.0  0.4600768673557314  0.5288343565797718  0.1900582304351914  1.0000
  C   C16       1.0  0.5291224672047578  0.4716655159459578  0.8130415019396651  1.0000
  C   C17       1.0  0.5695418440867287  0.3579287722319365  0.9706104358677549  1.0000
  C   C18       1.0  0.5739610562760192  0.36866797005284013  0.8657693131727627  1.0000
  C   C19       1.0  0.4813397786680938  0.5624312151859243  0.8668481884240223  1.0000
  C   C20       1.0  0.4741180454360787  0.5533042706202949  0.9742634748588016  1.0000
  C   C21       1.0  0.5186201355273427  0.44879842281040544  0.027597236834225197  1.0000
  C   C22       1.0  0.5104977632063951  0.44023975616973837  0.13523104742786532  1.0000
  C   C23       1.0  0.41473830484036994  0.6305591688149123  0.13511271535738698  1.0000
  C   C24       1.0  0.42246875840842096  0.6439868877093958  0.030874205692626302  1.0000
  C   C25       1.0  0.6403951651370577  0.03897606180263582  0.4270705617592511  1.0000
  C   C26       1.0  0.6283602257779536  0.15422941167835091  0.4383483431530806  1.0000
  C   C27       1.0  0.44491052619358856  0.1455578851795067  0.5282102020557389  1.0000
  C   C28       1.0  0.4494084481959818  0.026202368930633203  0.5218819866576467  1.0000
  C   C29       1.0  0.5504174251816565  0.9717213510733844  0.4697124817732075  1.0000
  C   C30       1.0  0.5557771891933428  0.8521561536919863  0.4648638745253137  1.0000
  C   C31       1.0  0.3728842065512269  0.8435069681924363  0.5555934186520517  1.0000
  C   C32       1.0  0.3594505112991158  0.9590591667295458  0.564736843569662  1.0000
  N   N1        1.0  0.47075084180815474  0.7916275077866077  0.506781436115773  1.0000
  N   N2        1.0  0.5313886457398099  0.20600689331136127  0.48841865734696915  1.0000
  N   N3        1.0  0.34770217827807687  0.7234980223740166  0.18798860750666077  1.0000
  O   O1        1.0  0.500178923435712  0.5816670574353823  0.6582347598408376  1.0000
  O   O2        1.0  0.5562920939054408  0.3930740023780431  0.6513246879562543  1.0000
  O   O3        1.0  0.3075264475317  0.5865870625290202  0.5147299571596946  1.0000
  O   O4        1.0  0.33276059615794656  0.3941432935063249  0.5335716242254662  1.0000
  O   O5        1.0  0.4835879187331429  0.6102014526833985  0.34765395479150374  1.0000
  O   O6        1.0  0.4659885649769749  0.4202564405987062  0.34689071381005476  1.0000
  O   O7        1.0  0.6776427614009892  0.5947546994322226  0.4995984033970444  1.0000
  O   O8        1.0  0.6945028054040068  0.40866170194129137  0.4644769372194375  1.0000
  O   O9        1.0  0.378759628632139  0.8209805887266628  0.1699315395378704  1.0000
  O   O10       1.0  0.2616468245970367  0.6978481025722801  0.24322978831989417  1.0000
