data_image0
_chemical_formula_structural       Ba4H12C24N4O12
_chemical_formula_sum              "Ba4 H12 C24 N4 O12"
_cell_length_a       4.309713323004
_cell_length_b       10.132991436773075
_cell_length_c       15.832489122096526
_cell_angle_alpha    92.84345830712155
_cell_angle_beta     89.99993915309358
_cell_angle_gamma    89.9998596476999

_space_group_name_H-M_alt    "P 1"
_space_group_IT_number       1

loop_
  _space_group_symop_operation_xyz
  'x, y, z'

loop_
  _atom_site_type_symbol
  _atom_site_label
  _atom_site_symmetry_multiplicity
  _atom_site_fract_x
  _atom_site_fract_y
  _atom_site_fract_z
  _atom_site_occupancy
  Ba  Ba1       1.0  0.970691434741234  0.4164198565733843  0.3620907357066656  1.0000
  Ba  Ba2       1.0  0.47069293352935665  0.5835798726348856  0.1379097040214248  1.0000
  Ba  Ba3       1.0  0.0293076178621732  0.583581005817038  0.6379089073138003  1.0000
  Ba  Ba4       1.0  0.5293061190757342  0.4164200013664542  0.8620905390409916  1.0000
  H   H1        1.0  0.7139558092915408  0.0762924122100301  0.5017303876068553  1.0000
  H   H2        1.0  0.21395163252424254  0.9237064208429903  0.998270830446458  1.0000
  H   H3        1.0  0.2860478839888643  0.9237094382698107  0.49826928697406464  1.0000
  H   H4        1.0  0.7860497404208006  0.07629345315711332  0.0017294126155818004  1.0000
  H   H5        1.0  0.977782640081884  0.962476028775797  0.6209646706306771  1.0000
  H   H6        1.0  0.4777817082543621  0.037522522719484606  0.879036461709383  1.0000
  H   H7        1.0  0.022216412525658303  0.037523845819905  0.3790343092254105  1.0000
  H   H8        1.0  0.5222196646935872  0.9624763631887204  0.12096374979144288  1.0000
  H   H9        1.0  0.9810032148688138  0.0797939683089766  0.7645564239608049  1.0000
  H   H10       1.0  0.4810023971668329  0.9202055675439597  0.7354453704973025  1.0000
  H   H11       1.0  0.0189958377362771  0.9202059056923632  0.2354438191016044  1.0000
  H   H12       1.0  0.5189966554411641  0.07979331836548201  0.26455484100389987  1.0000
  C   C1        1.0  0.6094838430915317  0.3085938730646306  0.6624277094840494  1.0000
  C   C2        1.0  0.10948162683310872  0.691406060760457  0.8375710476586278  1.0000
  C   C3        1.0  0.39051752985182026  0.6914069893245484  0.337571933536033  1.0000
  C   C4        1.0  0.8905174257761104  0.3085928254461693  0.1624285322394172  1.0000
  C   C5        1.0  0.5843757864658273  0.24553530666558035  0.5796410023326501  1.0000
  C   C6        1.0  0.0843728862361957  0.754465641155548  0.9203596893379995  1.0000
  C   C7        1.0  0.41562558647340353  0.7544665435183192  0.4203593038518108  1.0000
  C   C8        1.0  0.9156261663659893  0.24553522093769697  0.0796405852856239  1.0000
  C   C9        1.0  0.724185932286332  0.12230625038699831  0.5653931436620994  1.0000
  C   C10       1.0  0.2241799468743011  0.8776935601384822  0.93460747102597  1.0000
  C   C11       1.0  0.275817760994066  0.8776956000928494  0.43460653091882046  1.0000
  C   C12       1.0  0.7758167853908376  0.122306313864101  0.0653927720368159  1.0000
  C   C13       1.0  0.8703906070271117  0.05930725422170719  0.6309109652091892  1.0000
  C   C14       1.0  0.3703845127411185  0.9406914121822894  0.869089570418339  1.0000
  C   C15       1.0  0.12961076591624024  0.9406936081674714  0.36908867781089333  1.0000
  C   C16       1.0  0.6296145398651946  0.05930846211622762  0.130910041040913  1.0000
  C   C17       1.0  0.8740355189395004  0.12467957873504083  0.7103463451449556  1.0000
  C   C18       1.0  0.3740324292884054  0.8753210599613085  0.7896542524203412  1.0000
  C   C19       1.0  0.1259658540038586  0.8753212836541449  0.2896532978751338  1.0000
  C   C20       1.0  0.6259666233179076  0.12467881433721571  0.21034535903891083  1.0000
  C   C21       1.0  0.42314460138650395  0.3083244366652309  0.508663767484208  1.0000
  C   C22       1.0  0.9231433369633066  0.6916751615290266  0.9913367825649004  1.0000
  C   C23       1.0  0.5768567715556332  0.6916764254267705  0.49133650713903876  1.0000
  C   C24       1.0  0.0768557156388781  0.30832570056421105  0.008663492058723  1.0000
  N   N1        1.0  0.7506649881718914  0.2447519849255927  0.7259296602209772  1.0000
  N   N2        1.0  0.2506603300279124  0.7552477976379066  0.774070314261138  1.0000
  N   N3        1.0  0.24933406443319941  0.755247889075747  0.2740705828414391  1.0000
  N   N4        1.0  0.7493364022413546  0.24475108856995587  0.22592926563728352  1.0000
  O   O1        1.0  0.502428541993183  0.2746154421356053  0.4324049203017779  1.0000
  O   O2        1.0  0.0024271763467922  0.7253828109177647  0.0675949768316215  1.0000
  O   O3        1.0  0.4975728309530823  0.7253844321616827  0.5675946911570975  1.0000
  O   O4        1.0  0.9975718762582987  0.274617063083575  0.932405266230795  1.0000
  O   O5        1.0  0.20818571453219903  0.392349444302127  0.5249380992907788  1.0000
  O   O6        1.0  0.7081849970480151  0.6076493949068862  0.9750631206365696  1.0000
  O   O7        1.0  0.7918133380728919  0.6076504296992126  0.4750621437716305  1.0000
  O   O8        1.0  0.29181405555585377  0.39235047879726903  0.024937754028997002  1.0000
  O   O9        1.0  0.5169343779691928  0.42948257671599077  0.6819183536560232  1.0000
  O   O10       1.0  0.016925972374394905  0.5705184439730856  0.818080465116573  1.0000
  O   O11       1.0  0.48306467463345376  0.5705172966909872  0.3180831526127079  1.0000
  O   O12       1.0  0.9830707598907438  0.4294814300294903  0.18191977794621286  1.0000
