data_image0
_chemical_formula_structural       Fe2H136C132S12N12O8
_chemical_formula_sum              "Fe2 H136 C132 S12 N12 O8"
_cell_length_a       15.375676463364488
_cell_length_b       15.375816088158121
_cell_length_c       20.378845993887587
_cell_angle_alpha    90.5964262249621
_cell_angle_beta     90.5962477204125
_cell_angle_gamma    118.04424526493278

_space_group_name_H-M_alt    "P 1"
_space_group_IT_number       1

loop_
  _space_group_symop_operation_xyz
  'x, y, z'

loop_
  _atom_site_type_symbol
  _atom_site_label
  _atom_site_symmetry_multiplicity
  _atom_site_fract_x
  _atom_site_fract_y
  _atom_site_fract_z
  _atom_site_occupancy
  Fe  Fe1       1.0  0.9999960706216129  0.4999954614868115  0.4999994526402318  1.0000
  Fe  Fe2       1.0  0.5000011366798348  0.9999946923739745  0.999998456340748  1.0000
  H   H1        1.0  0.9383347886331991  0.13904340520610975  0.4446466890365883  1.0000
  H   H2        1.0  0.6809601108513377  0.9122493510435206  0.3458687113028063  1.0000
  H   H3        1.0  0.857947994833822  0.7495891993184643  0.3964457374607733  1.0000
  H   H4        1.0  0.9483349971343743  0.8379438862815717  0.4511814132804517  1.0000
  H   H5        1.0  0.9134747572781451  0.6416596227954515  0.4631419772946685  1.0000
  H   H6        1.0  0.15442023916024544  0.6183488087313265  0.39608033889645355  1.0000
  H   H7        1.0  0.1986627272894381  0.7585634973054098  0.3199862355351115  1.0000
  H   H8        1.0  0.0984372626028787  0.8505113661620172  0.3212512317040961  1.0000
  H   H9        1.0  0.6021635669885298  0.9383208716579928  0.43076301843421305  1.0000
  H   H10       1.0  0.6036076923626936  0.03824304576380643  0.47646786335199925  1.0000
  H   H11       1.0  0.6738193771828946  0.98053516961064  0.5041256323654792  1.0000
  H   H12       1.0  0.76288700402295  0.15767067834436682  0.3299668408027969  1.0000
  H   H13       1.0  0.6641513377219966  0.15414050775012095  0.376110599830497  1.0000
  H   H14       1.0  0.6487839807565409  0.047041551662530906  0.3318575072070757  1.0000
  H   H15       1.0  0.8238019299910562  0.1504088484188557  0.5113792716150555  1.0000
  H   H16       1.0  0.7493052841444766  0.20194597736553996  0.48108415226734275  1.0000
  H   H17       1.0  0.8603408475298622  0.22737563780314912  0.441648096744494  1.0000
  H   H18       1.0  0.34402237138196773  0.16725949186260894  0.22256180700388484  1.0000
  H   H19       1.0  0.2270349926652102  0.017263096281204975  0.403854118535321  1.0000
  H   H20       1.0  0.18980597386502043  0.3354313465048264  0.3149450960267544  1.0000
  H   H21       1.0  0.15384775719915922  0.27826568002956265  0.3931348889504704  1.0000
  H   H22       1.0  0.11451224068310491  0.4012155418676784  0.4384676663763257  1.0000
  H   H23       1.0  0.8708218723236315  0.42315158951264925  0.372037134495443  1.0000
  H   H24       1.0  0.8522606744748913  0.3179076279264025  0.2736337491765468  1.0000
  H   H25       1.0  0.9684200193665405  0.24514659228530894  0.2603048738991092  1.0000
  H   H26       1.0  0.504844655707636  0.06958395399835374  0.2666641724484151  1.0000
  H   H27       1.0  0.4821192348755546  0.1693767495010761  0.24796844115363828  1.0000
  H   H28       1.0  0.40168548778549246  0.04863937998875656  0.21658435386293462  1.0000
  H   H29       1.0  0.3022421601074258  0.9118813440278188  0.2960855962356774  1.0000
  H   H30       1.0  0.30403696238676053  0.9358219344935463  0.3818395205907308  1.0000
  H   H31       1.0  0.41067338869347475  0.9437433577814218  0.3441104373716541  1.0000
  H   H32       1.0  0.41049800978917966  0.12120946621819681  0.4241029364290796  1.0000
  H   H33       1.0  0.48315323748359873  0.21131139937740784  0.3665896967945912  1.0000
  H   H34       1.0  0.51244068053974  0.1160405382452225  0.3877537379480387  1.0000
  H   H35       1.0  0.8609562253785655  0.061660991397744225  0.055357523792167705  1.0000
  H   H36       1.0  0.08774958372191578  0.3190340666851056  0.1541347476454575  1.0000
  H   H37       1.0  0.2504128786877615  0.1420536019835481  0.10355788544501368  1.0000
  H   H38       1.0  0.1620564365247859  0.051667139515693294  0.0488212169137725  1.0000
  H   H39       1.0  0.35834406202366864  0.08652610774024079  0.0368580226583788  1.0000
  H   H40       1.0  0.3816587858687798  0.8455889576683121  0.10392160703498382  1.0000
  H   H41       1.0  0.2414447355931344  0.8013423770286324  0.1800162899935103  1.0000
  H   H42       1.0  0.14949150118851406  0.901564533882606  0.1787504775737006  1.0000
  H   H43       1.0  0.06168178577529911  0.39783338417907294  0.0692391406156219  1.0000
  H   H44       1.0  0.9617595447014298  0.39638692522171937  0.0235356594295055  1.0000
  H   H45       1.0  0.019466717807731005  0.32617737408041597  0.9958771654309331  1.0000
  H   H46       1.0  0.8423290707636752  0.2371110647801656  0.1700356576315869  1.0000
  H   H47       1.0  0.8458600547705687  0.33584500413591917  0.12389151445331952  1.0000
  H   H48       1.0  0.9529587757990615  0.35121315115437585  0.1681445020316588  1.0000
  H   H49       1.0  0.8495912143318236  0.17619805185814388  0.9886228614539262  1.0000
  H   H50       1.0  0.7980561991986833  0.25069534340552474  0.0189169793160815  1.0000
  H   H51       1.0  0.7726221260994067  0.13965915116038027  0.0583524054624789  1.0000
  H   H52       1.0  0.8327436937924945  0.6559825802567332  0.277442257873652  1.0000
  H   H53       1.0  0.9827418873575483  0.7729675033237272  0.0961508836826255  1.0000
  H   H54       1.0  0.6645668670479382  0.8101878919980763  0.1850582534846552  1.0000
  H   H55       1.0  0.7217311720374155  0.8461479875270969  0.10686696700541631  1.0000
  H   H56       1.0  0.5987792197841486  0.8854807227724777  0.06153581909850911  1.0000
  H   H57       1.0  0.5768363427402791  0.12916498953395467  0.1279629294775404  1.0000
  H   H58       1.0  0.6820792802506048  0.14772751080364802  0.2263686674151586  1.0000
  H   H59       1.0  0.7548425260653033  0.03157053743324664  0.2396983329014262  1.0000
  H   H60       1.0  0.9304189101146889  0.49515804564130406  0.23333760335498968  1.0000
  H   H61       1.0  0.8306257177678019  0.5178825110067321  0.2520334704830631  1.0000
  H   H62       1.0  0.9513618167496815  0.5983152890908839  0.2834179841712157  1.0000
  H   H63       1.0  0.08812340525375359  0.6977609983679116  0.20391694875923602  1.0000
  H   H64       1.0  0.0641809762558978  0.6959654833222615  0.1181635227985467  1.0000
  H   H65       1.0  0.05626070846655301  0.589329903318891  0.1558910311265933  1.0000
  H   H66       1.0  0.8787945510807234  0.5895068179400125  0.0759000183761458  1.0000
  H   H67       1.0  0.7886912766778027  0.5168505868224289  0.1334127709153492  1.0000
  H   H68       1.0  0.8839625488975996  0.4875632193279528  0.11224809446783011  1.0000
  H   H69       1.0  0.061664602379551105  0.8609562581571167  0.5553563879868051  1.0000
  H   H70       1.0  0.31903781098129264  0.08775157546526202  0.6541338735105953  1.0000
  H   H71       1.0  0.14205288075525152  0.2504150608481908  0.6035568933170268  1.0000
  H   H72       1.0  0.0516717576521941  0.1620585707487479  0.5488192844692392  1.0000
  H   H73       1.0  0.08652020049845531  0.35833925853431486  0.5368527196128738  1.0000
  H   H74       1.0  0.8455710237522781  0.3816437923269548  0.6039162479078755  1.0000
  H   H75       1.0  0.8013322215505595  0.24143082932692284  0.6800108815342583  1.0000
  H   H76       1.0  0.9015621121050189  0.14948633270308428  0.6787459423726858  1.0000
  H   H77       1.0  0.3978395028952022  0.061680510217108485  0.5692366631078158  1.0000
  H   H78       1.0  0.39639095694550963  0.9617549691751677  0.5235347054924091  1.0000
  H   H79       1.0  0.3261822138446249  0.0194635693658824  0.49587450974915004  1.0000
  H   H80       1.0  0.23711607217779831  0.8423313592462165  0.6700352991063951  1.0000
  H   H81       1.0  0.33584952773665583  0.8458617940978215  0.62388956302879  1.0000
  H   H82       1.0  0.3512198345025723  0.9529621317039911  0.6681436687262021  1.0000
  H   H83       1.0  0.17619893518244112  0.8495921543569552  0.4886228445660948  1.0000
  H   H84       1.0  0.25069484490200017  0.7980546813547919  0.5189184467227648  1.0000
  H   H85       1.0  0.13965928356589072  0.7726263217548562  0.5583535303603496  1.0000
  H   H86       1.0  0.6559747977336343  0.8327378270204375  0.7774373109937258  1.0000
  H   H87       1.0  0.7729643921731011  0.9827365609026087  0.596145523459974  1.0000
  H   H88       1.0  0.8101889964030279  0.6645681967198342  0.6850554942760637  1.0000
  H   H89       1.0  0.8461501479008862  0.7217313333729011  0.6068647228991182  1.0000
  H   H90       1.0  0.8854805131493323  0.5987784153758753  0.5615372832334771  1.0000
  H   H91       1.0  0.1291708707814934  0.5768417076015595  0.6279629031556837  1.0000
  H   H92       1.0  0.14773427965747746  0.6820867040025717  0.7263663122026216  1.0000
  H   H93       1.0  0.031575677209858106  0.7548487394146336  0.7396971630382794  1.0000
  H   H94       1.0  0.4951554709778137  0.9304180011457889  0.7333350010649227  1.0000
  H   H95       1.0  0.5178801546582292  0.8306242111687399  0.7520317011112851  1.0000
  H   H96       1.0  0.598315373120272  0.9513622679092535  0.7834143320657816  1.0000
  H   H97       1.0  0.6977572172466608  0.0881163574856103  0.7039130499960038  1.0000
  H   H98       1.0  0.6959624177560927  0.06417641920426574  0.6181596211349215  1.0000
  H   H99       1.0  0.5893267313897966  0.0562566425751072  0.6558882310963838  1.0000
  H   H100      1.0  0.5895006342266457  0.8787885434241361  0.5758966881055301  1.0000
  H   H101      1.0  0.5168461482367804  0.7886882586891844  0.6334104359189965  1.0000
  H   H102      1.0  0.48755796259403184  0.8839574705143393  0.6122453958682641  1.0000
  H   H103      1.0  0.1390446289250278  0.9383387017126523  0.9446406570912486  1.0000
  H   H104      1.0  0.9122505316658975  0.6809646301854215  0.8458634205529451  1.0000
  H   H105      1.0  0.7495865099639616  0.8579473578034964  0.8964417661016171  1.0000
  H   H106      1.0  0.83794662704193  0.9483335866439331  0.951176006261079  1.0000
  H   H107      1.0  0.6416627039179517  0.9134789580276248  0.9631446570671898  1.0000
  H   H108      1.0  0.6183450408305405  0.15441863350788762  0.8960795975523013  1.0000
  H   H109      1.0  0.7585583325264765  0.19865900308091972  0.819982410111912  1.0000
  H   H110      1.0  0.8505093557612612  0.09843516187611101  0.8212491754646152  1.0000
  H   H111      1.0  0.938320543285947  0.6021663501545476  0.9307605234657145  1.0000
  H   H112      1.0  0.03824646954780771  0.6036151833392512  0.9764630675376366  1.0000
  H   H113      1.0  0.9805378260941638  0.6738246976712005  0.004122531929780803  1.0000
  H   H114      1.0  0.15767546667863286  0.7628897017198992  0.8299625580228991  1.0000
  H   H115      1.0  0.15414300836841474  0.6641537734155066  0.8761086387043377  1.0000
  H   H116      1.0  0.047044282929611804  0.6487856219831797  0.8318531975344924  1.0000
  H   H117      1.0  0.15041111398993928  0.8238023311287679  0.011375335248182204  1.0000
  H   H118      1.0  0.2019453885857487  0.7493046911120373  0.9810792466034782  1.0000
  H   H119      1.0  0.22738020338957202  0.8603425317814339  0.9416443286360661  1.0000
  H   H120      1.0  0.16726159724890272  0.3440217947518462  0.7225599153149176  1.0000
  H   H121      1.0  0.017260453740817604  0.22703484063021756  0.9038512530928955  1.0000
  H   H122      1.0  0.33543547814898733  0.18981705363122356  0.8149419395203309  1.0000
  H   H123      1.0  0.2782755856804969  0.1538557712236823  0.8931332495773175  1.0000
  H   H124      1.0  0.401226077547669  0.11452820428520738  0.9384624617733336  1.0000
  H   H125      1.0  0.4231807492404798  0.870848809648102  0.8720379267596954  1.0000
  H   H126      1.0  0.3179304299139503  0.8522776321140244  0.7736340343964585  1.0000
  H   H127      1.0  0.2451671758755367  0.9684332984673318  0.7603019057673563  1.0000
  H   H128      1.0  0.06958342628821161  0.5048429948266389  0.7666640331508887  1.0000
  H   H129      1.0  0.1693766178956082  0.4821191781145017  0.7479666986435802  1.0000
  H   H130      1.0  0.04863904563504919  0.4016850615005437  0.7165836365159706  1.0000
  H   H131      1.0  0.9118818783034115  0.3022414209702831  0.7960842286657339  1.0000
  H   H132      1.0  0.9358220962740162  0.30403590120116064  0.8818376308983745  1.0000
  H   H133      1.0  0.9437423621566624  0.41067082990291937  0.8441101177946636  1.0000
  H   H134      1.0  0.12121221500348162  0.41049889736392237  0.9241016846884875  1.0000
  H   H135      1.0  0.21131401083535195  0.48315378465505887  0.8665874394000214  1.0000
  H   H136      1.0  0.1160427394976153  0.5124411530323059  0.8877526065658402  1.0000
  C   C1        1.0  0.8104770565983941  0.8940343847850797  0.344111000704153  1.0000
  C   C2        1.0  0.9096122446370745  0.9317769207693021  0.3646411934829672  1.0000
  C   C3        1.0  0.9553308467273  0.021970583994928634  0.3992215500304255  1.0000
  C   C4        1.0  0.9007354257373735  0.07003653258141189  0.41690453552234175  1.0000
  C   C5        1.0  0.8006672004015629  0.03061439721161467  0.40044772563481956  1.0000
  C   C6        1.0  0.7577961308091758  0.9437562904826182  0.3620796710034853  1.0000
  C   C7        1.0  0.9367366757792226  0.8041072944372089  0.40156476051947004  1.0000
  C   C8        1.0  0.9997843971308457  0.7545133871178819  0.3938672110216501  1.0000
  C   C9        1.0  0.9782560511747321  0.6721430010210909  0.43217660520213025  1.0000
  C   C10       1.0  0.11118262507231691  0.6576472977611659  0.3935337815897171  1.0000
  C   C11       1.0  0.1355425026877697  0.7363809096535904  0.3517933731505636  1.0000
  C   C12       1.0  0.08018175685339199  0.787032111934117  0.352189846398403  1.0000
  C   C13       1.0  0.7383165797084176  0.07924580786882976  0.4220960512756449  1.0000
  C   C14       1.0  0.6490866850443879  0.004431647413007153  0.4603981090538269  1.0000
  C   C15       1.0  0.7010951417625364  0.11105564970728919  0.3612046450383559  1.0000
  C   C16       1.0  0.7968063773731872  0.16980571110092052  0.4665915355063746  1.0000
  C   C17       1.0  0.1530982569929833  0.09187177191495267  0.361814008410569  1.0000
  C   C18       1.0  0.1504256941844488  0.15114986361929536  0.3104903364677014  1.0000
  C   C19       1.0  0.21847766430842339  0.17535315443360835  0.2597250772863759  1.0000
  C   C20       1.0  0.2917537073138661  0.14573857599558693  0.2623995893158479  1.0000
  C   C21       1.0  0.29866036458098927  0.0909411637667787  0.3146201885604967  1.0000
  C   C22       1.0  0.22635879096844752  0.06215873096108742  0.3629763145731033  1.0000
  C   C23       1.0  0.12652978327817274  0.2832796674695572  0.34377863857367424  1.0000
  C   C24       1.0  0.0505701382763704  0.3177918256509145  0.3486423394030211  1.0000
  C   C25       1.0  0.055878535460237806  0.37868821272922304  0.4013943390425965  1.0000
  C   C26       1.0  0.9210556687084476  0.3926261454339866  0.3639382951652266  1.0000
  C   C27       1.0  0.9108633098902104  0.3330456161805841  0.30949377904190806  1.0000
  C   C28       1.0  0.9754699693292183  0.29366604945667524  0.301675225611703  1.0000
  C   C29       1.0  0.38488063402301265  0.0678142872141976  0.3217387681673287  1.0000
  C   C30       1.0  0.44637339012397353  0.09053796233000361  0.2593758066595484  1.0000
  C   C31       1.0  0.34780311853059237  0.9584457107368394  0.3371353009936868  1.0000
  C   C32       1.0  0.4515133885964744  0.13288712443141287  0.3785046194174413  1.0000
  C   C33       1.0  0.23013600415774255  0.5927492832751468  0.522766490882411  1.0000
  C   C34       1.0  0.1059663870355294  0.18952283577530682  0.1558928284517904  1.0000
  C   C35       1.0  0.0682214883870955  0.09038590086095871  0.1353649861388391  1.0000
  C   C36       1.0  0.9780310746945206  0.04466973928563792  0.10078108118666051  1.0000
  C   C37       1.0  0.9299636810501185  0.09926465805908449  0.0830962407406872  1.0000
  C   C38       1.0  0.9693872011891499  0.19933095519851907  0.0995536094896536  1.0000
  C   C39       1.0  0.056241331849939506  0.242198912708588  0.137924221474556  1.0000
  C   C40       1.0  0.19589631665809293  0.063264731212108  0.09843688051687138  1.0000
  C   C41       1.0  0.24549250629696934  0.00021544488115670066  0.1061328291675565  1.0000
  C   C42       1.0  0.32786517851174324  0.021747614452877397  0.0678214444678247  1.0000
  C   C43       1.0  0.34236091339972324  0.8888259243145243  0.1064628645219443  1.0000
  C   C44       1.0  0.2636285583003684  0.864463539414686  0.1482072541309023  1.0000
  C   C45       1.0  0.2129727808856998  0.9198219838721399  0.1478113474066731  1.0000
  C   C46       1.0  0.9207546115727753  0.26168160107113186  0.07790540741373062  1.0000
  C   C47       1.0  0.9955716831519439  0.3509106234901934  0.039604853800391  1.0000
  C   C48       1.0  0.8889448973750121  0.2989024557195067  0.1387978738341644  1.0000
  C   C49       1.0  0.8301933283340759  0.2031932823664561  0.0334099620513797  1.0000
  C   C50       1.0  0.9081288305358444  0.8469024483944453  0.13818769042794804  1.0000
  C   C51       1.0  0.8488519050502888  0.8495746040927727  0.1895119323071057  1.0000
  C   C52       1.0  0.8246431037877501  0.781520637800611  0.2402785565771879  1.0000
  C   C53       1.0  0.8542617849494079  0.7082485750421128  0.2376029998522355  1.0000
  C   C54       1.0  0.9090565660082605  0.7013406240154652  0.1853822985260933  1.0000
  C   C55       1.0  0.9378452087636759  0.7736437392267207  0.1370272623496689  1.0000
  C   C56       1.0  0.7167127203645053  0.8734640263695043  0.1562227183508398  1.0000
  C   C57       1.0  0.6821999142110969  0.94942369963816  0.1513576722673875  1.0000
  C   C58       1.0  0.6213023044435106  0.9441144469054877  0.0986052328444487  1.0000
  C   C59       1.0  0.6073672715778712  0.07893890284699968  0.1360573528658549  1.0000
  C   C60       1.0  0.6669404328001249  0.08912778975285114  0.190505656648341  1.0000
  C   C61       1.0  0.7063270781054456  0.02452381463796629  0.19832366706400958  1.0000
  C   C62       1.0  0.932188906518853  0.6151216428821015  0.1782636382248413  1.0000
  C   C63       1.0  0.9094640146750095  0.5536269139791585  0.2406255488934548  1.0000
  C   C64       1.0  0.04155927218858581  0.6521996479137543  0.1628672440363843  1.0000
  C   C65       1.0  0.8671155846539733  0.548489217782702  0.1214977839854967  1.0000
  C   C66       1.0  0.40720617150554267  0.7698240491700757  0.9772239887467435  1.0000
  C   C67       1.0  0.18952307259066004  0.10596692347131415  0.6558906216250193  1.0000
  C   C68       1.0  0.090387885291463  0.0682237388337938  0.6353618962254401  1.0000
  C   C69       1.0  0.044670755455278814  0.9780307637191399  0.6007805740600745  1.0000
  C   C70       1.0  0.0992669087588212  0.9299638565849121  0.5830970962078723  1.0000
  C   C71       1.0  0.19933292585614742  0.9693856093243268  0.5995543778613168  1.0000
  C   C72       1.0  0.24220399647317237  0.05624436647216411  0.6379219465500228  1.0000
  C   C73       1.0  0.0632641915861356  0.1958956587123453  0.5984354071154883  1.0000
  C   C74       1.0  0.0002149890172660002  0.24548821955690414  0.606129991709139  1.0000
  C   C75       1.0  0.0217448108982481  0.32785994683182196  0.5678206181230223  1.0000
  C   C76       1.0  0.8888167525669247  0.34235170282439503  0.6064629113201008  1.0000
  C   C77       1.0  0.8644531834464646  0.26361506098913884  0.6482017985062782  1.0000
  C   C78       1.0  0.9198168836341906  0.21296589417712403  0.6478078152630006  1.0000
  C   C79       1.0  0.26168428560765733  0.9207558444430504  0.5779050882445773  1.0000
  C   C80       1.0  0.3509141764582823  0.9955687022956496  0.5396030209150595  1.0000
  C   C81       1.0  0.29890793648748837  0.8889476887209682  0.6387965229855723  1.0000
  C   C82       1.0  0.20319374521369582  0.8301936423678596  0.5334095817774979  1.0000
  C   C83       1.0  0.8469011296094565  0.9081278870344107  0.6381866150213185  1.0000
  C   C84       1.0  0.8495736877225256  0.8488484918440735  0.6895097866945576  1.0000
  C   C85       1.0  0.7815217184806117  0.8246452019125243  0.7402755365941828  1.0000
  C   C86       1.0  0.7082464096954908  0.8542594731044207  0.7376005369800893  1.0000
  C   C87       1.0  0.7013375412585389  0.9090552009823867  0.685380890668327  1.0000
  C   C88       1.0  0.7736398605316098  0.9378412343516305  0.637024305725113  1.0000
  C   C89       1.0  0.873468121679288  0.7167166963968371  0.6562219499368497  1.0000
  C   C90       1.0  0.9494277691847018  0.6822038913277311  0.6513606979233373  1.0000
  C   C91       1.0  0.9441156973709894  0.6213090369489791  0.5986091733336636  1.0000
  C   C92       1.0  0.0789400272710523  0.607370484455316  0.6360612977319917  1.0000
  C   C93       1.0  0.0891360626258262  0.666950132310781  0.6905053435810729  1.0000
  C   C94       1.0  0.024529409503834598  0.7063303547501717  0.6983263553784482  1.0000
  C   C95       1.0  0.6151187470019012  0.9321840673663859  0.6782608642766235  1.0000
  C   C96       1.0  0.5536259976456819  0.9094629965742628  0.7406233541687754  1.0000
  C   C97       1.0  0.6521962617548381  0.041553292497041955  0.6628628640710303  1.0000
  C   C98       1.0  0.5484852545372904  0.8671108843281415  0.6214945143988615  1.0000
  C   C99       1.0  0.7698287271672725  0.4072302513525726  0.47723127856465913  1.0000
  C   C100      1.0  0.8940344674106485  0.810477506871159  0.8441043757706908  1.0000
  C   C101      1.0  0.9317771594421346  0.9096134113845977  0.8646346479470992  1.0000
  C   C102      1.0  0.021969778727012095  0.9553299529419804  0.8992166089784491  1.0000
  C   C103      1.0  0.070037171346776  0.9007343837497004  0.9169019353670578  1.0000
  C   C104      1.0  0.030614381757231995  0.8006671262969717  0.9004430928211988  1.0000
  C   C105      1.0  0.9437587882333318  0.7578010876479339  0.8620744469934819  1.0000
  C   C106      1.0  0.8041060088749036  0.9367349995904205  0.9015608206912661  1.0000
  C   C107      1.0  0.7545127652230762  0.9997843648367208  0.893865875563236  1.0000
  C   C108      1.0  0.67214379874229  0.9782597852018923  0.9321793056639152  1.0000
  C   C109      1.0  0.6576384800900428  0.11117698849458436  0.8935363106333866  1.0000
  C   C110      1.0  0.7363730487202601  0.13553976132145346  0.8517943935682979  1.0000
  C   C111      1.0  0.7870288246559555  0.08018261417058171  0.852187365534064  1.0000
  C   C112      1.0  0.07924623891741331  0.738316789436034  0.92209276391835  1.0000
  C   C113      1.0  0.0044328598678973  0.6490914473786519  0.960394352842023  1.0000
  C   C114      1.0  0.11105816311778942  0.7010963191835984  0.8612008071685864  1.0000
  C   C115      1.0  0.16981121673504165  0.796810089340063  0.9665882727057777  1.0000
  C   C116      1.0  0.09187130055990879  0.15309951116356046  0.8618139366768957  1.0000
  C   C117      1.0  0.1511482206105157  0.15042670063252925  0.8104877271488675  1.0000
  C   C118      1.0  0.17535923847783152  0.21848300610823662  0.7597221175947624  1.0000
  C   C119      1.0  0.14574055526689736  0.2917537680290465  0.7623986462049785  1.0000
  C   C120      1.0  0.09094429768627071  0.2986616760669278  0.8146168828965941  1.0000
  C   C121      1.0  0.0621586119303856  0.22636059897250504  0.8629758812324795  1.0000
  C   C122      1.0  0.28329035626397575  0.12653995982927307  0.8437764915755537  1.0000
  C   C123      1.0  0.3178046289513219  0.0505790207667474  0.8486405577140985  1.0000
  C   C124      1.0  0.3787029945098582  0.055893832381684716  0.901395006124929  1.0000
  C   C125      1.0  0.3926446670594146  0.9210744356720965  0.8639434623329477  1.0000
  C   C126      1.0  0.3330722275926234  0.9108806832915947  0.8094951282544683  1.0000
  C   C127      1.0  0.2936767304089117  0.9754772644048728  0.8016779804848966  1.0000
  C   C128      1.0  0.06781564002923092  0.3848804315178356  0.8217375312907791  1.0000
  C   C129      1.0  0.0905375801659147  0.4463731276005872  0.7593746027725103  1.0000
  C   C130      1.0  0.9584460122506472  0.3478027723072188  0.8371344241068783  1.0000
  C   C131      1.0  0.13289117761682692  0.45151519491800945  0.878503909527801  1.0000
  C   C132      1.0  0.5927651641581022  0.23014817084169445  0.022774756910365603  1.0000
  S   S1        1.0  0.7450776805832647  0.7778402856931664  0.3038700018785292  1.0000
  S   S2        1.0  0.07700642993069103  0.06751978082902352  0.4313526830105303  1.0000
  S   S3        1.0  0.3428630904022966  0.664372038128825  0.5430313404814271  1.0000
  S   S4        1.0  0.2221585100934504  0.25492106404217907  0.1961337440276765  1.0000
  S   S5        1.0  0.9324819688878068  0.9229929590937118  0.0686500575390383  1.0000
  S   S6        1.0  0.33559752327299464  0.657092959334193  0.9569640711608541  1.0000
  S   S7        1.0  0.2549231856148708  0.2221613675014851  0.6961316283599926  1.0000
  S   S8        1.0  0.9229959028013822  0.932480606571758  0.5686479672830842  1.0000
  S   S9        1.0  0.6570942689517736  0.3355994994810842  0.4569726957804079  1.0000
  S   S10       1.0  0.7778408726955847  0.7450772923039537  0.8038668698528824  1.0000
  S   S11       1.0  0.06751741111246191  0.077004745068038  0.9313500608475493  1.0000
  S   S12       1.0  0.6643826701317226  0.3428892581200884  0.04303284951623001  1.0000
  N   N1        1.0  0.03317933118246691  0.6254163431700948  0.43353058552911256  1.0000
  N   N2        1.0  0.9921631257066678  0.41473269498795406  0.41002026157398325  1.0000
  N   N3        1.0  0.14566373511613054  0.5394358960515363  0.5081426427369848  1.0000
  N   N4        1.0  0.3745968762982628  0.966828477085322  0.06646712762555039  1.0000
  N   N5        1.0  0.5852590351902408  0.00783057713064755  0.0899772723165171  1.0000
  N   N6        1.0  0.46052361502882627  0.8543183622448823  0.9918505182959335  1.0000
  N   N7        1.0  0.9668163608144553  0.37458223091353193  0.5664636237938012  1.0000
  N   N8        1.0  0.007829627528863601  0.585262560444967  0.5899822439956495  1.0000
  N   N9        1.0  0.8543047438903245  0.46056555714857694  0.4918572771757326  1.0000
  N   N10       1.0  0.6254143086239381  0.0331767070555742  0.933537057384001  1.0000
  N   N11       1.0  0.4147543757010865  0.9921834494994146  0.9100225772643852  1.0000
  N   N12       1.0  0.5394433236526127  0.1456615541304487  0.0081462886669073  1.0000
  O   O1        1.0  0.9609777470378305  0.8797270181909981  0.35362617164113164  1.0000
  O   O2        1.0  0.0839648250750997  0.1877800458902925  0.3115515893993219  1.0000
  O   O3        1.0  0.12027687683255553  0.03902208358942969  0.1463779745810641  1.0000
  O   O4        1.0  0.8122184504747028  0.9160348802357277  0.18844930161738202  1.0000
  O   O5        1.0  0.0390216490981175  0.12027589726643131  0.6463744756691057  1.0000
  O   O6        1.0  0.9160330828137049  0.8122176196965539  0.6884485179442379  1.0000
  O   O7        1.0  0.8797217655617261  0.9609765738234161  0.8536196918560109  1.0000
  O   O8        1.0  0.1877838936975849  0.08396941497473158  0.8115513773302325  1.0000
