data_image0
_chemical_formula_structural       Zn2H8C32N6O8F4
_chemical_formula_sum              "Zn2 H8 C32 N6 O8 F4"
_cell_length_a       9.64930702907805
_cell_length_b       11.051813854399189
_cell_length_c       17.67202142507557
_cell_angle_alpha    90.84244926565668
_cell_angle_beta     90.15499532195356
_cell_angle_gamma    89.64027631555018

_space_group_name_H-M_alt    "P 1"
_space_group_IT_number       1

loop_
  _space_group_symop_operation_xyz
  'x, y, z'

loop_
  _atom_site_type_symbol
  _atom_site_label
  _atom_site_symmetry_multiplicity
  _atom_site_fract_x
  _atom_site_fract_y
  _atom_site_fract_z
  _atom_site_occupancy
  Zn  Zn1       1.0  0.35218386870559476  0.4916622789351023  0.5032914488441733  1.0000
  Zn  Zn2       1.0  0.6433364154097417  0.4872379340104017  0.4972954197721009  1.0000
  H   H1        1.0  0.2794668112463016  0.5190973208977993  0.11759409684566438  1.0000
  H   H2        1.0  0.7224462756477763  0.5238280981050423  0.8815040212095366  1.0000
  H   H3        1.0  0.29381874196937463  0.6445663000197753  0.8711363857628669  1.0000
  H   H4        1.0  0.7130151716173999  0.61920514173962  0.1343288346443856  1.0000
  H   H5        1.0  0.869150007624718  0.45730498446566503  0.382870520035965  1.0000
  H   H6        1.0  0.1260782120499897  0.5263864280527101  0.6179063027429308  1.0000
  H   H7        1.0  0.8600989588229665  0.52312542838402  0.615043373151309  1.0000
  H   H8        1.0  0.1349901001766227  0.46049387155745325  0.3856357764171889  1.0000
  C   C1        1.0  0.5022394533854495  0.7257719121599564  0.4954091827567879  1.0000
  C   C2        1.0  0.4956604742205144  0.2548427588403968  0.503680255494281  1.0000
  C   C3        1.0  0.5005022323000361  0.5878257701673563  0.0360397388009943  1.0000
  C   C4        1.0  0.5043180584304635  0.5924204472866207  0.9671396052916988  1.0000
  C   C5        1.0  0.5640383191813784  0.9253391294880725  0.5573989593006203  1.0000
  C   C6        1.0  0.43720160460782864  0.055259667198662  0.44005240283308206  1.0000
  C   C7        1.0  0.561216569045719  0.0535788303541409  0.5599591748351713  1.0000
  C   C8        1.0  0.4414955891661592  0.927003665699857  0.4372319653408212  1.0000
  C   C9        1.0  0.5026524804797107  0.5159368607913848  0.644675455743915  1.0000
  C   C10       1.0  0.49317303250978023  0.49440384377613356  0.35553970362044396  1.0000
  C   C11       1.0  0.49737205213425284  0.11839870092297389  0.5013883135974879  1.0000
  C   C12       1.0  0.5034637443714941  0.8622886391687743  0.496308083612135  1.0000
  C   C13       1.0  0.37412677958302964  0.5324856068947312  0.1501301354533453  1.0000
  C   C14       1.0  0.6282333791694654  0.5437370939863158  0.8499839211778308  1.0000
  C   C15       1.0  0.3877564729693148  0.6101037912208085  0.8443350787228994  1.0000
  C   C16       1.0  0.6172372226005153  0.5873835946918434  0.1593236758930345  1.0000
  C   C17       1.0  0.3753857044107818  0.5083991741292948  0.2267721007163175  1.0000
  C   C18       1.0  0.6251212391769343  0.5249124915689264  0.772375984111001  1.0000
  C   C19       1.0  0.3900476091710133  0.589039306158952  0.7669764694604382  1.0000
  C   C20       1.0  0.6130941056239152  0.561358542679514  0.23564340268857356  1.0000
  C   C21       1.0  0.49399796782599037  0.5198709924968766  0.2728365055668291  1.0000
  C   C22       1.0  0.5062311883298348  0.5435048499546652  0.7275930798044995  1.0000
  C   C23       1.0  0.9280707139389863  0.471900236926558  0.4349290075647544  1.0000
  C   C24       1.0  0.067292537092726  0.5109641564823519  0.5658847374904994  1.0000
  C   C25       1.0  0.9230855279507395  0.5089740942488631  0.5644471252764304  1.0000
  C   C26       1.0  0.0722692791651909  0.4737160416948141  0.4364024875874364  1.0000
  C   C27       1.0  0.4968140091314411  0.5712645846355714  0.11525437365865088  1.0000
  C   C28       1.0  0.5074147707356006  0.5844780984729353  0.8871686673941139  1.0000
  C   C29       1.0  0.6283085661780845  0.8600511982466087  0.617224063473941  1.0000
  C   C30       1.0  0.3732252421525146  0.11880431798137177  0.3793499885077125  1.0000
  C   C31       1.0  0.619955753213155  0.11503567271728339  0.6239021210211746  1.0000
  C   C32       1.0  0.38447537832221457  0.862795047751007  0.37389541614908944  1.0000
  N   N1        1.0  0.1400363137320682  0.493072655067813  0.501951019870127  1.0000
  N   N2        1.0  0.8553732037258969  0.4891587155071946  0.49891257541535333  1.0000
  N   N3        1.0  0.6813778493016472  0.8065307101151832  0.6659894525096064  1.0000
  N   N4        1.0  0.32135635219094644  0.1673128741370036  0.3281970578519021  1.0000
  N   N5        1.0  0.6658440301896817  0.1610370504975052  0.6782593103070411  1.0000
  N   N6        1.0  0.3403041236312632  0.8092827198790927  0.3218076094151456  1.0000
  O   O1        1.0  0.388132539310483  0.6794551463478342  0.5141380252051845  1.0000
  O   O2        1.0  0.6117400283601099  0.3041959288246686  0.5158667449139498  1.0000
  O   O3        1.0  0.3792235183051744  0.3048511586846132  0.4927589912592936  1.0000
  O   O4        1.0  0.6144075243541636  0.6739249171911582  0.47697424522007736  1.0000
  O   O5        1.0  0.3874199630542634  0.48209801267287816  0.616345998667981  1.0000
  O   O6        1.0  0.6059895009991223  0.4578425148734552  0.38544213759095663  1.0000
  O   O7        1.0  0.3800613343852177  0.5131772876517998  0.3906935687053305  1.0000
  O   O8        1.0  0.6148338981992012  0.5284592895177763  0.6081331330202531  1.0000
  F   F1        1.0  0.2555424707944879  0.4685016045683882  0.2572131979461928  1.0000
  F   F2        1.0  0.742908157731705  0.48214823869180623  0.7396541299100434  1.0000
  F   F3        1.0  0.2725067384062072  0.616328384563829  0.7279447210224816  1.0000
  F   F4        1.0  0.7316003019443116  0.58011620641809  0.2758117773498441  1.0000
