data_image0
_chemical_formula_structural       Cu4H100C108S4N16O24
_chemical_formula_sum              "Cu4 H100 C108 S4 N16 O24"
_cell_length_a       11.098398079004012
_cell_length_b       14.778249954009095
_cell_length_c       18.406461979005922
_cell_angle_alpha    89.99991296540696
_cell_angle_beta     89.99997082776291
_cell_angle_gamma    89.99990712274068

_space_group_name_H-M_alt    "P 1"
_space_group_IT_number       1

loop_
  _space_group_symop_operation_xyz
  'x, y, z'

loop_
  _atom_site_type_symbol
  _atom_site_label
  _atom_site_symmetry_multiplicity
  _atom_site_fract_x
  _atom_site_fract_y
  _atom_site_fract_z
  _atom_site_occupancy
  Cu  Cu1       1.0  0.8963930048595404  0.21342031939518344  0.22153986428184427  1.0000
  Cu  Cu2       1.0  0.8963894475584981  0.7865803507507394  0.7784624050878293  1.0000
  Cu  Cu3       1.0  0.1036062288843027  0.28657851798455874  0.7215388003642929  1.0000
  Cu  Cu4       1.0  0.1036113632003506  0.7134278553272181  0.27846045124931623  1.0000
  H   H1        1.0  0.4862304111858934  0.9282550344583028  0.05000734121402672  1.0000
  H   H2        1.0  0.32151918651184996  0.9544976694955308  0.14031585190365803  1.0000
  H   H3        1.0  0.5786751698992775  0.9301054206591957  0.3142444186665757  1.0000
  H   H4        1.0  0.7406589755654168  0.9015147400063058  0.22604984133559475  1.0000
  H   H5        1.0  0.3110447068251574  0.8837550403924866  0.30823138212652174  1.0000
  H   H6        1.0  0.2577621547418262  0.9822085846167427  0.2649644601457481  1.0000
  H   H7        1.0  0.3666931515980282  0.9905132232744834  0.3359204973447874  1.0000
  H   H8        1.0  0.9160654035097338  0.893895382273648  0.1683782253300734  1.0000
  H   H9        1.0  0.1216849239851072  0.9658360636422573  0.152988598814602  1.0000
  H   H10       1.0  0.07419265675449789  0.0041316399008196  0.0660686310409915  1.0000
  H   H11       1.0  0.0317306893301534  0.8382615872178432  0.0322609804795988  1.0000
  H   H12       1.0  0.18469868010523532  0.8599690539027947  0.05037903745686381  1.0000
  H   H13       1.0  0.8403840656357958  0.2408107717591079  0.0466768105619337  1.0000
  H   H14       1.0  0.8483964210116144  0.35965348036831557  0.9524716702048581  1.0000
  H   H15       1.0  0.9886870964618311  0.5415654414540826  0.11674764830497251  1.0000
  H   H16       1.0  0.9697826644717226  0.41594968416359984  0.20462664773479844  1.0000
  H   H17       1.0  0.7048085495428184  0.21316319024619187  0.3390719866154228  1.0000
  H   H18       1.0  0.4805978123776598  0.2135158699443878  0.341284287159624  1.0000
  H   H19       1.0  0.4901497961453672  0.16108632999927863  0.10975693313859129  1.0000
  H   H20       1.0  0.7107446834826591  0.16879143123621532  0.11696631939084061  1.0000
  H   H21       1.0  0.303165062002428  0.1564253253062873  0.3367810392528555  1.0000
  H   H22       1.0  0.0802436877942299  0.1716924984694472  0.3301333985949385  1.0000
  H   H23       1.0  0.09209407079580252  0.23542554906890698  0.11153567174331872  1.0000
  H   H24       1.0  0.31543532084266707  0.2280801614407011  0.10885723495027123  1.0000
  H   H25       1.0  0.8210797114019287  0.019323788795745096  0.0588031245833633  1.0000
  H   H26       1.0  0.48623275414377093  0.0717454590404998  0.9499928801943867  1.0000
  H   H27       1.0  0.3215225637648587  0.04550302479970011  0.8596849630649077  1.0000
  H   H28       1.0  0.5786768402312674  0.0698976668215892  0.6857563178119294  1.0000
  H   H29       1.0  0.7406605093672738  0.0984881500019554  0.7739508457025295  1.0000
  H   H30       1.0  0.31104537111386327  0.11624769668404158  0.6917694360382285  1.0000
  H   H31       1.0  0.2577647965573036  0.017792864072973195  0.7350380041447054  1.0000
  H   H32       1.0  0.36669587157812344  0.0094880926196765  0.6640808471230102  1.0000
  H   H33       1.0  0.9160659708785701  0.10610526388838791  0.8316229514596716  1.0000
  H   H34       1.0  0.12168653438009612  0.03416284425836841  0.8470133637234413  1.0000
  H   H35       1.0  0.0741930214543629  0.995868679237546  0.9339338892793733  1.0000
  H   H36       1.0  0.0317319222077188  0.1617401370276852  0.9677388363626707  1.0000
  H   H37       1.0  0.18469907413145853  0.14002977717973408  0.9496223625609587  1.0000
  H   H38       1.0  0.8403849240142096  0.759191320006252  0.9533233027513434  1.0000
  H   H39       1.0  0.8483956017597478  0.6403472482895721  0.04752898395144461  1.0000
  H   H40       1.0  0.9886859595221084  0.4584344395071227  0.8832529630325254  1.0000
  H   H41       1.0  0.9697795293494524  0.5840502198465459  0.7953723395105996  1.0000
  H   H42       1.0  0.7048095966652427  0.7868370367878087  0.6609276247917037  1.0000
  H   H43       1.0  0.48059796110675285  0.7864853070919865  0.6587164792553395  1.0000
  H   H44       1.0  0.4901478331663683  0.8389128053823143  0.8902449169374124  1.0000
  H   H45       1.0  0.7107436442682841  0.831205405210298  0.8830349200692353  1.0000
  H   H46       1.0  0.30316328178863483  0.8435767447081305  0.66321923803023  1.0000
  H   H47       1.0  0.08024103381251281  0.8283084899667018  0.66986640344129  1.0000
  H   H48       1.0  0.0920913685303759  0.7645747482504958  0.8884641266763753  1.0000
  H   H49       1.0  0.3154326004699257  0.7719198636054257  0.8911430385890853  1.0000
  H   H50       1.0  0.8210810037082227  0.980676973162339  0.9411975379101635  1.0000
  H   H51       1.0  0.5137705936084487  0.5717468375484175  0.5500075004528072  1.0000
  H   H52       1.0  0.6784808405567804  0.5454992948012033  0.640315992848862  1.0000
  H   H53       1.0  0.4213256104781281  0.5698939209439046  0.8142446083774858  1.0000
  H   H54       1.0  0.2593409786824168  0.5984874752938295  0.7260505889355429  1.0000
  H   H55       1.0  0.6889533755668893  0.6162443126004788  0.8082303470997874  1.0000
  H   H56       1.0  0.7422377664605193  0.5177894969706073  0.7649635288208502  1.0000
  H   H57       1.0  0.6333067093409215  0.5094840472702203  0.8359206959621943  1.0000
  H   H58       1.0  0.0839336986925474  0.6061035588923717  0.6683773873230408  1.0000
  H   H59       1.0  0.8783123892271476  0.5341615533280475  0.6529881492948277  1.0000
  H   H60       1.0  0.9258067090308374  0.4958695219105352  0.5660665178683217  1.0000
  H   H61       1.0  0.9682676274434528  0.661739641725383  0.5322630644914526  1.0000
  H   H62       1.0  0.8153005223142814  0.6400307873920001  0.5503779348836062  1.0000
  H   H63       1.0  0.15961621765186615  0.2591883967632072  0.5466757629238899  1.0000
  H   H64       1.0  0.1516035176313508  0.1403449196905484  0.45246870418767315  1.0000
  H   H65       1.0  0.011312049594806702  0.9584308908082378  0.6167442300064041  1.0000
  H   H66       1.0  0.030217484671148005  0.0840458018938293  0.7046258529980705  1.0000
  H   H67       1.0  0.2951968915923544  0.28683813123369356  0.8390735803442129  1.0000
  H   H68       1.0  0.519410329972608  0.2864847706753438  0.8412847263098799  1.0000
  H   H69       1.0  0.5098594438769838  0.3389120423889481  0.6097578546083471  1.0000
  H   H70       1.0  0.2892618473218889  0.3312089575118051  0.6169667742906029  1.0000
  H   H71       1.0  0.696825964585507  0.34357464718181774  0.8367813546863163  1.0000
  H   H72       1.0  0.9197518495911654  0.3283101932847003  0.8301342078765259  1.0000
  H   H73       1.0  0.9079016522491443  0.2645755266400869  0.6115360190131369  1.0000
  H   H74       1.0  0.6845586024176599  0.27191821266010413  0.6088587280146527  1.0000
  H   H75       1.0  0.1789232646779695  0.480676710100937  0.558802344460915  1.0000
  H   H76       1.0  0.5137680876337003  0.4282536223799339  0.449992169263119  1.0000
  H   H77       1.0  0.6784792557390917  0.45449961098896097  0.35968471317011114  1.0000
  H   H78       1.0  0.42132422595999947  0.4301066516823937  0.1857550895541564  1.0000
  H   H79       1.0  0.25934048192167586  0.4015139714751326  0.27394970172365873  1.0000
  H   H80       1.0  0.6889556899723673  0.3837545804219076  0.19176872585979512  1.0000
  H   H81       1.0  0.7422371288124625  0.48220865442404903  0.23503661445115404  1.0000
  H   H82       1.0  0.6333070150857125  0.49051491359057314  0.16407948055699254  1.0000
  H   H83       1.0  0.0839340703988967  0.39389607170429036  0.3316213270123641  1.0000
  H   H84       1.0  0.8783143948581795  0.46583778551921984  0.3470108658685831  1.0000
  H   H85       1.0  0.9258067562381243  0.5041317890489835  0.4339319395105648  1.0000
  H   H86       1.0  0.9682680034641039  0.33826161746774375  0.4677380963648475  1.0000
  H   H87       1.0  0.8153008669283043  0.35997065828313884  0.4496216427986539  1.0000
  H   H88       1.0  0.15961754030087857  0.7408104648980469  0.4533240148870306  1.0000
  H   H89       1.0  0.1516063061693345  0.8596553050792509  0.5475299894929009  1.0000
  H   H90       1.0  0.011311334812290902  0.041566121641388086  0.3832539632088086  1.0000
  H   H91       1.0  0.0302167618996805  0.91595051083727  0.295373421022191  1.0000
  H   H92       1.0  0.29519221495267095  0.7131659785051736  0.1609283292324903  1.0000
  H   H93       1.0  0.5194029513611298  0.7135150057084799  0.1587171148356958  1.0000
  H   H94       1.0  0.5098528826650083  0.6610850389573172  0.39024398945385036  1.0000
  H   H95       1.0  0.28925707768804904  0.6687910994428423  0.3830340505251471  1.0000
  H   H96       1.0  0.6968331217007845  0.6564235595690987  0.1632188024450087  1.0000
  H   H97       1.0  0.9197562650628728  0.6716911250515096  0.16986642449958825  1.0000
  H   H98       1.0  0.9079039426252749  0.7354251294742653  0.3884640736931503  1.0000
  H   H99       1.0  0.6845627084121588  0.7280786557064262  0.3911425194371034  1.0000
  H   H100      1.0  0.1789214709083922  0.5193228046963512  0.4411963408822859  1.0000
  C   C1        1.0  0.5046411520296133  0.9278489661142473  0.1081537657718243  1.0000
  C   C2        1.0  0.4135261630451978  0.9428405998108005  0.15894897502455763  1.0000
  C   C3        1.0  0.4377395365083603  0.9420082100140095  0.2337265147217238  1.0000
  C   C4        1.0  0.5573117522407074  0.9289666527107271  0.2563457345829151  1.0000
  C   C5        1.0  0.6491637853892769  0.9127597180453647  0.20661156637002165  1.0000
  C   C6        1.0  0.6218220350245148  0.9110816631999439  0.1323056021961477  1.0000
  C   C7        1.0  0.33833146372133177  0.9509003407308683  0.28840460444201454  1.0000
  C   C8        1.0  0.9319919757080444  0.9540358134687069  0.13493232356715626  1.0000
  C   C9        1.0  0.9158771031260073  0.0383549608549956  0.1823260222968202  1.0000
  C   C10       1.0  0.0623259433145904  0.9503471647757635  0.1067988606379728  1.0000
  C   C11       1.0  0.0946208069106405  0.8579289244791611  0.07567614650682943  1.0000
  C   C12       1.0  0.0973104444560562  0.7802241351104373  0.1311099862632403  1.0000
  C   C13       1.0  0.869984654550187  0.3089338269537977  0.06068814816794091  1.0000
  C   C14       1.0  0.8754115141630976  0.3759133877816936  0.0077610420535663  1.0000
  C   C15       1.0  0.9144783114647128  0.46298928538866596  0.0269335975503679  1.0000
  C   C16       1.0  0.9506798864861566  0.4771478403701507  0.099069119360621  1.0000
  C   C17       1.0  0.9420543730498637  0.40600879371005055  0.1484317194637228  1.0000
  C   C18       1.0  0.6526433943836808  0.2040864161437312  0.2895019088502267  1.0000
  C   C19       1.0  0.5274694760601263  0.20169987632548472  0.2901826685959321  1.0000
  C   C20       1.0  0.46349902449964026  0.1885691933861651  0.225206592562202  1.0000
  C   C21       1.0  0.5318909176333477  0.17539309116973817  0.16202497484105294  1.0000
  C   C22       1.0  0.6566206242925361  0.1793515320873738  0.16539279236704374  1.0000
  C   C23       1.0  0.3306618341718348  0.1908665712883604  0.22318558207873448  1.0000
  C   C24       1.0  0.2614130931107113  0.17429558035178164  0.2853480107764454  1.0000
  C   C25       1.0  0.1367923979637737  0.182393370161229  0.2825397719737879  1.0000
  C   C26       1.0  0.14313206466037806  0.2185060124958511  0.1601908694337695  1.0000
  C   C27       1.0  0.26793026204533993  0.21271702462746586  0.1591558913015163  1.0000
  C   C28       1.0  0.5046435434962007  0.07215218161082501  0.8918459067294151  1.0000
  C   C29       1.0  0.413527728933424  0.05716201233120441  0.841051811860851  1.0000
  C   C30       1.0  0.43774386720397024  0.0579950492781762  0.7662742647724912  1.0000
  C   C31       1.0  0.5573151730044188  0.07103916749640857  0.7436517486894092  1.0000
  C   C32       1.0  0.6491653269192598  0.08724463684590943  0.7933869754434256  1.0000
  C   C33       1.0  0.6218244108597732  0.08892204835169788  0.8676940345377062  1.0000
  C   C34       1.0  0.3383340579619159  0.04910100973826558  0.7115972919697671  1.0000
  C   C35       1.0  0.9319935453313094  0.04596481327681799  0.8650688483613608  1.0000
  C   C36       1.0  0.9158758382697485  0.9616456855382296  0.8176746112632217  1.0000
  C   C37       1.0  0.06232658006404532  0.04965181549033561  0.8932020334427335  1.0000
  C   C38       1.0  0.09462121802397412  0.142070693086886  0.9243247377165176  1.0000
  C   C39       1.0  0.09731343825398402  0.21977750918957636  0.8688865508378643  1.0000
  C   C40       1.0  0.8699829685743271  0.6910655220469409  0.9393119561127322  1.0000
  C   C41       1.0  0.8754126306990458  0.624085954601  0.9922396038577689  1.0000
  C   C42       1.0  0.9144760278459146  0.5370120393810538  0.9730664931488848  1.0000
  C   C43       1.0  0.9506794967150541  0.5228507335835104  0.9009325901529978  1.0000
  C   C44       1.0  0.9420520698046888  0.593990467431695  0.8515683628200537  1.0000
  C   C45       1.0  0.6526434788077682  0.7959152278229594  0.7104998916278192  1.0000
  C   C46       1.0  0.5274668528258033  0.7983019202419824  0.7098180835129569  1.0000
  C   C47       1.0  0.46349992190250333  0.8114320044952023  0.7747936357840433  1.0000
  C   C48       1.0  0.5318926340074343  0.8246066699951343  0.8379752326314432  1.0000
  C   C49       1.0  0.6566178469049293  0.8206474003525415  0.8346084636117085  1.0000
  C   C50       1.0  0.33066183377993497  0.8091341118642672  0.7768141435249234  1.0000
  C   C51       1.0  0.261411307734015  0.8257051872217643  0.7146522792509131  1.0000
  C   C52       1.0  0.13679062765521624  0.817608226005575  0.7174610993771182  1.0000
  C   C53       1.0  0.14312846621691483  0.7814955759444759  0.8398089134075164  1.0000
  C   C54       1.0  0.2679266502451867  0.7872844116728148  0.8408438534490941  1.0000
  C   C55       1.0  0.4953589023523933  0.5721500890990467  0.6081539301369789  1.0000
  C   C56       1.0  0.5864729471684242  0.5571549758596602  0.6589496731365045  1.0000
  C   C57       1.0  0.5622595101961992  0.5579872240486097  0.7337266759224336  1.0000
  C   C58       1.0  0.44268907731329676  0.5710300918558104  0.7563464596747735  1.0000
  C   C59       1.0  0.35083708640225814  0.5872391507145026  0.706612299747647  1.0000
  C   C60       1.0  0.3781770978127029  0.5889186996170822  0.6323057818957665  1.0000
  C   C61       1.0  0.6616675365447975  0.5490956664584773  0.7884025729862432  1.0000
  C   C62       1.0  0.06800715489939789  0.5459638677048062  0.6349315637009809  1.0000
  C   C63       1.0  0.08412396598449592  0.4616439507842075  0.6823247510113222  1.0000
  C   C64       1.0  0.9376732111867556  0.5496525696746275  0.6067983741261501  1.0000
  C   C65       1.0  0.9053783740245791  0.6420695155680463  0.5756766438174737  1.0000
  C   C66       1.0  0.9026859863013215  0.7197775833103606  0.6311125628609489  1.0000
  C   C67       1.0  0.13001651787086393  0.1910626083527447  0.5606882791479393  1.0000
  C   C68       1.0  0.12458700011777073  0.12408314775855439  0.507758539866579  1.0000
  C   C69       1.0  0.0855210875597265  0.037010597193337005  0.5269317566732781  1.0000
  C   C70       1.0  0.04931855024508279  0.0228491989273678  0.5990667634993443  1.0000
  C   C71       1.0  0.05794582382083752  0.09398679876738919  0.6484287310010615  1.0000
  C   C72       1.0  0.3473629898820221  0.2959163525496607  0.789501845733902  1.0000
  C   C73       1.0  0.4725405117521861  0.298300861063673  0.7901852808041951  1.0000
  C   C74       1.0  0.5365047112833778  0.31142963704410676  0.7252086259605834  1.0000
  C   C75       1.0  0.46811467387006916  0.32460856559023205  0.6620253831946599  1.0000
  C   C76       1.0  0.3433858653807533  0.32065079496438653  0.6653932436132663  1.0000
  C   C77       1.0  0.6693337940506724  0.3091315863055685  0.7231859478712794  1.0000
  C   C78       1.0  0.7385806802526318  0.3257038128631963  0.7853499651033787  1.0000
  C   C79       1.0  0.8632004767519846  0.3176080583837262  0.7825406115551417  1.0000
  C   C80       1.0  0.8568636170602844  0.2814956477430074  0.6601917549522512  1.0000
  C   C81       1.0  0.7320636184943724  0.28728328423324717  0.6591557212831491  1.0000
  C   C82       1.0  0.4953573476643669  0.427848363263884  0.3918457451996177  1.0000
  C   C83       1.0  0.5864732053634327  0.44284201208431284  0.3410516042533588  1.0000
  C   C84       1.0  0.5622580316335759  0.44200911674618476  0.2662729789961062  1.0000
  C   C85       1.0  0.4426867450439787  0.42896707137810364  0.24365160187617363  1.0000
  C   C86       1.0  0.3508365488909321  0.41275947783373107  0.29338633312455203  1.0000
  C   C87       1.0  0.37817650081169774  0.4110805722719135  0.36769229934390785  1.0000
  C   C88       1.0  0.6616678873136053  0.45090258315833154  0.21159705158964937  1.0000
  C   C89       1.0  0.0680082696028634  0.45403578230727254  0.3650671554953889  1.0000
  C   C90       1.0  0.0841240381620878  0.538355002910059  0.317674506553935  1.0000
  C   C91       1.0  0.9376725078848696  0.4503473734783013  0.39320062291925956  1.0000
  C   C92       1.0  0.9053787445212793  0.35793046695449243  0.4243223630847481  1.0000
  C   C93       1.0  0.9026883734395525  0.28022037248185677  0.36888753143889375  1.0000
  C   C94       1.0  0.13001770558012282  0.8089349360514788  0.43931313756057483  1.0000
  C   C95       1.0  0.12458619644159803  0.8759144032680056  0.49224070534958025  1.0000
  C   C96       1.0  0.08552101351654781  0.9629890314689432  0.47306641389023707  1.0000
  C   C97       1.0  0.0493194079759505  0.9771484438581198  0.4009314181149365  1.0000
  C   C98       1.0  0.057945074748509705  0.9060094801619628  0.3515689046936289  1.0000
  C   C99       1.0  0.34735738968039  0.7040849869147578  0.2104995046350879  1.0000
  C   C100      1.0  0.47253401624189456  0.7016982957879562  0.20981657464717782  1.0000
  C   C101      1.0  0.5364999909494301  0.6885680884882036  0.2747932099683084  1.0000
  C   C102      1.0  0.4681081262161727  0.6753912733270298  0.33797647360714933  1.0000
  C   C103      1.0  0.34338381720949235  0.6793505493458197  0.33460865125653083  1.0000
  C   C104      1.0  0.6693371763258114  0.6908646239516829  0.2768153042278882  1.0000
  C   C105      1.0  0.7385859531054637  0.6742936663150303  0.2146512658592741  1.0000
  C   C106      1.0  0.8632057297661009  0.6823919755523774  0.21746058136963603  1.0000
  C   C107      1.0  0.8568677872929982  0.7185043939194603  0.3398088966193527  1.0000
  C   C108      1.0  0.7320687013560204  0.7127142028910001  0.3408444250937351  1.0000
  S   S1        1.0  0.7355285924457036  0.8829355613597443  0.06827048207821922  1.0000
  S   S2        1.0  0.735529051168257  0.11706598156438021  0.9317291199518535  1.0000
  S   S3        1.0  0.2644705947759363  0.6170662760631417  0.5682701188992497  1.0000
  S   S4        1.0  0.26447090508981574  0.38293313444308547  0.43172854033302605  1.0000
  N   N1        1.0  0.71665987626902  0.1950055227226741  0.22776543394888193  1.0000
  N   N2        1.0  0.0785614734187376  0.20498206529436666  0.2212042425805265  1.0000
  N   N3        1.0  0.9007106653139374  0.3233393720955817  0.1304652597938585  1.0000
  N   N4        1.0  0.8457966779716631  0.9551226556984814  0.0742101830851638  1.0000
  N   N5        1.0  0.7166580866278096  0.8049933365239922  0.7722352604171903  1.0000
  N   N6        1.0  0.0785587986753526  0.7950196018626697  0.7787955599687351  1.0000
  N   N7        1.0  0.9007072675867321  0.6766619694582798  0.8695353783951633  1.0000
  N   N8        1.0  0.8457963963020776  0.0448794294680894  0.9257910151511767  1.0000
  N   N9        1.0  0.2833447583699213  0.3049953328725722  0.7277664658830147  1.0000
  N   N10       1.0  0.9214359585450184  0.29501947940169515  0.7212040053370005  1.0000
  N   N11       1.0  0.09929044784445303  0.17665760774317357  0.6304643311297156  1.0000
  N   N12       1.0  0.1542043062683334  0.5448784938059318  0.5742088549462141  1.0000
  N   N13       1.0  0.2833427294288455  0.6950060846340806  0.2722343607374924  1.0000
  N   N14       1.0  0.9214375066526089  0.704981160213073  0.27879662652594567  1.0000
  N   N15       1.0  0.09928986170636733  0.8233386207812643  0.36953546509566604  1.0000
  N   N16       1.0  0.15420536706017882  0.4551210511247278  0.4257892946537609  1.0000
  O   O1        1.0  0.922031122547736  0.032128175048271104  0.2496186966822407  1.0000
  O   O2        1.0  0.9009091124913341  0.11273322934741968  0.1460153617909938  1.0000
  O   O3        1.0  0.09698436661852841  0.700477907347377  0.10893521387756522  1.0000
  O   O4        1.0  0.10244446290148801  0.8053177021153884  0.19888073468857212  1.0000
  O   O5        1.0  0.7837878945868797  0.7956998786865127  0.08890458564108171  1.0000
  O   O6        1.0  0.6839135295455138  0.8946986238517521  0.9963929008551846  1.0000
  O   O7        1.0  0.9220290003926976  0.9678717871741042  0.7503808484250953  1.0000
  O   O8        1.0  0.9009079771133841  0.8872681119626263  0.853985819624576  1.0000
  O   O9        1.0  0.09699347691034178  0.2995230606732235  0.8910645830473028  1.0000
  O   O10       1.0  0.10244486525516552  0.19468122924539694  0.801117430709958  1.0000
  O   O11       1.0  0.783784578678258  0.20430160540651338  0.9110960882348779  1.0000
  O   O12       1.0  0.6839120987963412  0.10530162865612172  0.0036072602173221  1.0000
  O   O13       1.0  0.07796988941117891  0.46786993248677794  0.7496174196883203  1.0000
  O   O14       1.0  0.09909378951972769  0.38726642772427056  0.6460130899901415  1.0000
  O   O15       1.0  0.9030066767891116  0.7995231764038094  0.6089333469076764  1.0000
  O   O16       1.0  0.8975546133907532  0.6946845646370151  0.6988806269913753  1.0000
  O   O17       1.0  0.2162112751112844  0.7043005663203418  0.5889046741846968  1.0000
  O   O18       1.0  0.316087096128456  0.6053030794919253  0.4963931870593542  1.0000
  O   O19       1.0  0.07797003216121819  0.5321290287103294  0.2503812964678005  1.0000
  O   O20       1.0  0.09909186847784208  0.6127331843912672  0.3539867062934051  1.0000
  O   O21       1.0  0.90300921697596  0.20047545566541908  0.39106892044368646  1.0000
  O   O22       1.0  0.8975597070898901  0.30531475074937486  0.3011194688734165  1.0000
  O   O23       1.0  0.21621179097904533  0.2956995796898029  0.4110923699143784  1.0000
  O   O24       1.0  0.3160900231350467  0.3946962680891701  0.5036038265558531  1.0000
