data_image0
_chemical_formula_structural       Cd3H18C22N12Cl4O2
_chemical_formula_sum              "Cd3 H18 C22 N12 Cl4 O2"
_cell_length_a       7.367424776266658
_cell_length_b       7.932265978601538
_cell_length_c       12.576066150911855
_cell_angle_alpha    90.8327864995127
_cell_angle_beta     90.13411506454531
_cell_angle_gamma    110.69658209719726

_space_group_name_H-M_alt    "P 1"
_space_group_IT_number       1

loop_
  _space_group_symop_operation_xyz
  'x, y, z'

loop_
  _atom_site_type_symbol
  _atom_site_label
  _atom_site_symmetry_multiplicity
  _atom_site_fract_x
  _atom_site_fract_y
  _atom_site_fract_z
  _atom_site_occupancy
  Cd  Cd1       1.0  0.36390857918448916  0.20908577161493716  0.24359603155670578  1.0000
  Cd  Cd2       1.0  0.636090652081421  0.7909153169565355  0.7564047116445279  1.0000
  Cd  Cd3       1.0  0.5000007056903968  0.4999998582608995  0.5000003725832656  1.0000
  H   H1        1.0  0.26319629732876854  0.9204273520811198  0.44830130749448227  1.0000
  H   H2        1.0  0.7368034628976262  0.07957507742737137  0.5516986495953304  1.0000
  H   H3        1.0  0.9685892221624856  0.6781406381757548  0.5262825474578746  1.0000
  H   H4        1.0  0.0314113693442764  0.32186042461449915  0.47371661087105826  1.0000
  H   H5        1.0  0.6107790136497186  0.7944148929402672  0.3054334153098992  1.0000
  H   H6        1.0  0.38922052373818167  0.20558348115935834  0.6945665200424002  1.0000
  H   H7        1.0  0.9622619248901997  0.27255415454639115  0.8454654675909907  1.0000
  H   H8        1.0  0.03774030636461851  0.72744421570696  0.1545368644131386  1.0000
  H   H9        1.0  0.20163478782836108  0.5123477765783162  0.7377277058816175  1.0000
  H   H10       1.0  0.7983620404841715  0.48765062863396474  0.262273013616813  1.0000
  H   H11       1.0  0.5259399973169395  0.7467363661947033  0.004945451952217199  1.0000
  H   H12       1.0  0.47405818743433054  0.2532620200529577  0.9950544778734026  1.0000
  H   H13       1.0  0.30187585521443344  0.5207629455630565  0.1238606700907496  1.0000
  H   H14       1.0  0.6981255561663532  0.47923677095874945  0.8761400750757814  1.0000
  H   H15       1.0  0.3090997063231881  0.9272412899318494  0.07969831310236938  1.0000
  H   H16       1.0  0.6909014065398296  0.0727611274286133  0.9203016495141226  1.0000
  H   H17       1.0  0.5086997403279555  0.9546166830064846  0.1425778937898414  1.0000
  H   H18       1.0  0.49130272517169266  0.045385722205942614  0.8574220743533304  1.0000
  C   C1        1.0  0.11749747353613318  0.890873868914532  0.4158357987777848  1.0000
  C   C2        1.0  0.8825017653340056  0.10912720602374996  0.5841633540244757  1.0000
  C   C3        1.0  0.9562506413536627  0.7589329948179395  0.459090948939334  1.0000
  C   C4        1.0  0.043751302789729614  0.24106805582428587  0.5409082149162856  1.0000
  C   C5        1.0  0.7576849639058312  0.8232565884018967  0.33595445218126935  1.0000
  C   C6        1.0  0.24231510244255358  0.17674312663474714  0.6640446970596015  1.0000
  C   C7        1.0  0.9209599011083681  0.9505276196915059  0.289059481548243  1.0000
  C   C8        1.0  0.07903933395965619  0.04947346206336789  0.7109404664535006  1.0000
  C   C9        1.0  0.9137056641223822  0.0440813615159072  0.19105031726932958  1.0000
  C   C10       1.0  0.08629116799226466  0.9559170368797821  0.8089496070296106  1.0000
  C   C11       1.0  0.007374322427310182  0.21902576031636298  0.0598183728387411  1.0000
  C   C12       1.0  0.9926230348457139  0.7809739858329294  0.9401815605482609  1.0000
  C   C13       1.0  0.12443481085158942  0.365861740261728  0.9929537129035351  1.0000
  C   C14       1.0  0.8755647227341968  0.6341366406544963  0.007047017648254399  1.0000
  C   C15       1.0  0.08909131921870986  0.3712728476744401  0.8834592079744538  1.0000
  C   C16       1.0  0.9109092570795952  0.6287282423821947  0.11654313115244008  1.0000
  C   C17       1.0  0.22045067879769684  0.5041847166121086  0.8232740497982788  1.0000
  C   C18       1.0  0.7795499013027297  0.4958163666279346  0.17672749412913188  1.0000
  C   C19       1.0  0.40166023501741693  0.6373902715603704  0.971995400203852  1.0000
  C   C20       1.0  0.5983392947662552  0.36260811617244565  0.0280061255474209  1.0000
  C   C21       1.0  0.2777584698275036  0.5095568120232699  0.0381055271040864  1.0000
  C   C22       1.0  0.7222437728336502  0.49044153778029903  0.9618944193015719  1.0000
  N   N1        1.0  0.09876790784498715  0.985584389726078  0.3322751261770449  1.0000
  N   N2        1.0  0.9012313310251515  0.014416685212204098  0.6677240266252084  1.0000
  N   N3        1.0  0.7774840194299557  0.7290326235794989  0.4198162580796208  1.0000
  N   N4        1.0  0.22251552176005163  0.27096574370353477  0.5801828820731885  1.0000
  N   N5        1.0  0.07083549895602198  0.17779828692346192  0.153789292697148  1.0000
  N   N6        1.0  0.9291618545148878  0.8222014660424292  0.8462114358893443  1.0000
  N   N7        1.0  0.761086183496694  0.0017098800156105998  0.1232209937719304  1.0000
  N   N8        1.0  0.2389116951325931  0.9982912207038976  0.8767797439026309  1.0000
  N   N9        1.0  0.8219530955079507  0.11171017663597377  0.0390578153044601  1.0000
  N   N10       1.0  0.1780442579629522  0.8882895763299243  0.9609429132820251  1.0000
  N   N11       1.0  0.3801036849178916  0.6301187917909346  0.8656957474416912  1.0000
  N   N12       1.0  0.6198963738262719  0.3698809368788999  0.1343049921981603  1.0000
  Cl  Cl1       1.0  0.5943903460693464  0.23488550895188345  0.4041200032113323  1.0000
  Cl  Cl2       1.0  0.4056115942719317  0.7651155485069339  0.5958799558437704  1.0000
  Cl  Cl3       1.0  0.296887128280062  0.5007280181408333  0.3321372503092306  1.0000
  Cl  Cl4       1.0  0.7031134594245856  0.4992730514660123  0.6678627032191997  1.0000
  O   O1        1.0  0.37173018638434047  0.9481808917751521  0.152430754583051  1.0000
  O   O2        1.0  0.6282690486836842  0.051820189979728995  0.8475691934186925  1.0000
