data_image0
_chemical_formula_structural       Na2La2H44C40O30
_chemical_formula_sum              "Na2 La2 H44 C40 O30"
_cell_length_a       8.55075252181295
_cell_length_b       12.10940914808892
_cell_length_c       12.7575
_cell_angle_alpha    75.46849946972681
_cell_angle_beta     78.11954274203981
_cell_angle_gamma    83.8286587645504

_space_group_name_H-M_alt    "P 1"
_space_group_IT_number       1

loop_
  _space_group_symop_operation_xyz
  'x, y, z'

loop_
  _atom_site_type_symbol
  _atom_site_label
  _atom_site_symmetry_multiplicity
  _atom_site_fract_x
  _atom_site_fract_y
  _atom_site_fract_z
  _atom_site_occupancy
  Na  Na1       1.0  0.3088521085355964  0.5398303928553148  0.9497411711914197  1.0000
  Na  Na2       1.0  0.6911476434982405  0.4601688979277511  0.05025699391855911  1.0000
  La  La1       1.0  0.3252230115487079  0.2854942115486097  0.20784787931916074  1.0000
  La  La2       1.0  0.6747739974140075  0.7145093521404178  0.7921488627819073  1.0000
  H   H1        1.0  0.8021086123382162  0.3413453653187446  0.302973709108926  1.0000
  H   H2        1.0  0.1978961317829118  0.6586513617207501  0.6970275131729126  1.0000
  H   H3        1.0  0.8629911333834245  0.1918389496103146  0.3299731824154293  1.0000
  H   H4        1.0  0.13700868922968107  0.8081594865915633  0.6700228249296744  1.0000
  H   H5        1.0  0.4454661252311992  0.39288515697779747  0.4668315245754614  1.0000
  H   H6        1.0  0.5545353159449462  0.6071081517369307  0.5331733191497463  1.0000
  H   H7        1.0  0.3498846932172981  0.5302889938522809  0.41900309475345676  1.0000
  H   H8        1.0  0.6501211754119255  0.46970858776840874  0.5809993365361733  1.0000
  H   H9        1.0  0.22189597923598112  0.4201950081143905  0.5869908670335208  1.0000
  H   H10       1.0  0.7781034199014627  0.5798085555746367  0.41300868066920055  1.0000
  H   H11       1.0  0.9780946353251354  0.3677698703409575  0.7254761855155962  1.0000
  H   H12       1.0  0.0219101087959928  0.6322268566985371  0.2745289560294212  1.0000
  H   H13       1.0  0.7561906546361713  0.2845823734172797  0.6797740349499861  1.0000
  H   H14       1.0  0.2438133884525371  0.7154083715538704  0.3202349796086068  1.0000
  H   H15       1.0  0.7790930768278913  0.251607503562269  0.49090823846906767  1.0000
  H   H16       1.0  0.22091096626081708  0.748383241408888  0.5090992083842565  1.0000
  H   H17       1.0  0.3740137610422138  0.22250388650471817  0.8767141220096875  1.0000
  H   H18       1.0  0.6259757950791922  0.7775030955090685  0.12328675360910064  1.0000
  H   H19       1.0  0.543459344586303  0.1337419564689313  0.9166993177614984  1.0000
  H   H20       1.0  0.4565304232729376  0.8662624618012913  0.08329351685738833  1.0000
  H   H21       1.0  0.2144300081132827  0.9262369698203939  0.3659957903697801  1.0000
  H   H22       1.0  0.7855787399852545  0.0737691576122117  0.6340010728656367  1.0000
  H   H23       1.0  0.038154581250474  0.015842226127929796  0.3921050122151328  1.0000
  H   H24       1.0  0.9618507933237976  0.9841613375610976  0.6078944948179911  1.0000
  H   H25       1.0  0.02086471094502678  0.9035546758357356  0.2730120513562539  1.0000
  H   H26       1.0  0.9791373606842555  0.09644546952852548  0.7269871578570674  1.0000
  H   H27       1.0  0.009919242345276302  0.8076997219105377  0.12428803951730327  1.0000
  H   H28       1.0  0.9900830410218401  0.1922978597101448  0.8757141026330261  1.0000
  H   H29       1.0  0.1638366507634927  0.8785060465318324  0.9362844405300521  1.0000
  H   H30       1.0  0.8361557190083176  0.1214958079948119  0.06371726803804022  1.0000
  H   H31       1.0  0.33098851398796114  0.04291023078733499  0.8950395422342011  1.0000
  H   H32       1.0  0.6689987931172681  0.9570950420640755  0.10495813151636207  1.0000
  H   H33       1.0  0.08976860301130073  0.5139297461034928  0.1396513801578507  1.0000
  H   H34       1.0  0.9102370538800811  0.4860703992607681  0.8603465504895028  1.0000
  H   H35       1.0  0.2575468120839163  0.5603805067671885  0.1494837288346176  1.0000
  H   H36       1.0  0.7424552595453733  0.4396196385970653  0.8505162642313451  1.0000
  H   H37       1.0  0.5871656182845156  0.12270674954315548  0.29398884579616447  1.0000
  H   H38       1.0  0.41283146125747555  0.8772959595646765  0.7060049546873941  1.0000
  H   H39       1.0  0.6829420434347782  0.2063335011992606  0.18605067755872545  1.0000
  H   H40       1.0  0.3170599576152355  0.7936674987461956  0.8139444185983892  1.0000
  H   H41       1.0  0.20522263746103417  0.4351365056664847  0.8226618555463716  1.0000
  H   H42       1.0  0.7947822478186526  0.5648585122106269  0.17733740276362642  1.0000
  H   H43       1.0  0.11343249119870794  0.3752329278862803  0.946502222344435  1.0000
  H   H44       1.0  0.8865670490972947  0.624768926640364  0.0534984967969905  1.0000
  C   C1        1.0  0.012491532651374402  0.3190630153317144  0.43285752077216705  1.0000
  C   C2        1.0  0.9875110330328596  0.6809311479642091  0.5671469642555708  1.0000
  C   C3        1.0  0.90159667048583  0.27852253818839046  0.2873685600149898  1.0000
  C   C4        1.0  0.09840568346056952  0.721474188851104  0.7126314243704642  1.0000
  C   C5        1.0  0.9448000058917785  0.2883510764717768  0.16318154196572004  1.0000
  C   C6        1.0  0.055199534404216884  0.7116507780548673  0.8368176094704297  1.0000
  C   C7        1.0  0.13822738080180133  0.36711013366112155  0.4592690403199597  1.0000
  C   C8        1.0  0.8617713173032231  0.6328874479595611  0.540732028838434  1.0000
  C   C9        1.0  0.3954456009759824  0.448886717037638  0.3974541697431562  1.0000
  C   C10       1.0  0.6045568235496931  0.5511091554206686  0.6025499276985116  1.0000
  C   C11       1.0  0.5273400714749034  0.4701598066375183  0.29548699987236654  1.0000
  C   C12       1.0  0.47266952357496445  0.5298360658207883  0.704513756584717  1.0000
  C   C13       1.0  0.1257316668694202  0.3839086361423369  0.5647220083304063  1.0000
  C   C14       1.0  0.8742703341805863  0.6160923638031193  0.43527779094252134  1.0000
  C   C15       1.0  0.9873365287497223  0.3540341868500647  0.6432614528186562  1.0000
  C   C16       1.0  0.012669339879494083  0.6459633947706251  0.3567441138815184  1.0000
  C   C17       1.0  0.8624754779420769  0.3077235775017683  0.6171190961923045  1.0000
  C   C18       1.0  0.1375282828295212  0.6922705857941479  0.3828883593415283  1.0000
  C   C19       1.0  0.8751043114350948  0.28993547000080605  0.5112477451352646  1.0000
  C   C20       1.0  0.12489818366985617  0.7100595478763054  0.48875889765734115  1.0000
  C   C21       1.0  0.27140222022385535  0.06761617303344988  0.061378248348575  1.0000
  C   C22       1.0  0.7285875476353781  0.9323882452367726  0.9386200732387664  1.0000
  C   C23       1.0  0.4528336795344573  0.1998540666053472  0.938449476356098  1.0000
  C   C24       1.0  0.5471596735868759  0.8001503516648754  0.06154835051790285  1.0000
  C   C25       1.0  0.5357156811722704  0.3057725686415864  0.9340141439159239  1.0000
  C   C26       1.0  0.4642826640363609  0.6942292858850576  0.06597890160358592  1.0000
  C   C27       1.0  0.1856121845084502  0.0261672760835694  0.16888430510304184  1.0000
  C   C28       1.0  0.8143765294219777  0.9738354330242628  0.8311145689748044  1.0000
  C   C29       1.0  0.16876175329831264  0.0151662524054572  0.3623280131470992  1.0000
  C   C30       1.0  0.8312411605219553  0.9848381658647581  0.6376716299018881  1.0000
  C   C31       1.0  0.2491330127244211  0.0642439956518075  0.4359984759008526  1.0000
  C   C32       1.0  0.7508632246265918  0.9357544405500703  0.5640129193576584  1.0000
  C   C33       1.0  0.08983043765162786  0.9340914255514221  0.19073288695020812  1.0000
  C   C34       1.0  0.9101641811363523  0.0659121381376053  0.8092665365176543  1.0000
  C   C35       1.0  0.0832390425434753  0.8806587365532081  0.10665238304457601  1.0000
  C   C36       1.0  0.916755858561622  0.1193414088110529  0.8933493833006878  1.0000
  C   C37       1.0  0.16944033214600301  0.9201668796172057  0.0013115495015298656  1.0000
  C   C38       1.0  0.8305520376258074  0.0798349749094385  0.9986909429191968  1.0000
  C   C39       1.0  0.26337811840735276  0.0139929124295364  0.9780260292583164  1.0000
  C   C40       1.0  0.7366043377691371  0.9860132150030692  0.02197132646435316  1.0000
  O   O1        1.0  0.0370404670407254  0.3029353590858221  0.32657553853460547  1.0000
  O   O2        1.0  0.9629598496273319  0.697057095047711  0.6734296638880793  1.0000
  O   O3        1.0  0.08882333806525369  0.300739085423686  0.11371544322120997  1.0000
  O   O4        1.0  0.9111759199136387  0.6992661874277246  0.8862829330428071  1.0000
  O   O5        1.0  0.8293218999127846  0.284420002990899  0.11650356486668295  1.0000
  O   O6        1.0  0.17068122564531046  0.7155818515357453  0.8834958757087676  1.0000
  O   O7        1.0  0.26796624097946165  0.39510792265687655  0.3752326799527951  1.0000
  O   O8        1.0  0.7320335110543683  0.6048913681261964  0.6247701882729899  1.0000
  O   O9        1.0  0.5208480625740036  0.4189242458826427  0.21995670514022692  1.0000
  O   O10       1.0  0.4791481747770093  0.5810741903192351  0.7800397969182101  1.0000
  O   O11       1.0  0.6358875467335707  0.5332056794588523  0.2938542552622465  1.0000
  O   O12       1.0  0.36412148844243575  0.46678250176872627  0.7061499779418555  1.0000
  O   O13       1.0  0.36211336181989395  0.15985881226220036  0.04685087004050814  1.0000
  O   O14       1.0  0.6378813981266447  0.8401430422644438  0.9531450217502454  1.0000
  O   O15       1.0  0.48828035356304167  0.3576618840079533  0.012833833724357565  1.0000
  O   O16       1.0  0.5117192573122367  0.6423391159374958  0.9871662953574615  1.0000
  O   O17       1.0  0.642244936336091  0.3366332046288463  0.8510005926509479  1.0000
  O   O18       1.0  0.3577448315231494  0.6633712136413763  0.14900556746274418  1.0000
  O   O19       1.0  0.20512149773362864  0.0802195364456111  0.24870593984027067  1.0000
  O   O20       1.0  0.7948755818083628  0.919783172662221  0.7512909960538252  1.0000
  O   O21       1.0  0.32614470866889184  0.1550415380857402  0.3891039848129054  1.0000
  O   O22       1.0  0.673872616779036  0.8449620256032802  0.6108915216178586  1.0000
  O   O23       1.0  0.2324898002970315  0.0116932344432215  0.5347637519637445  1.0000
  O   O24       1.0  0.7675123371511747  0.9883205842201049  0.4652220015723429  1.0000
  O   O25       1.0  0.2055222869559756  0.493817177761663  0.13797811794082554  1.0000
  O   O26       1.0  0.7944843532849433  0.5061855313461692  0.8620182825703537  1.0000
  O   O27       1.0  0.5843708716133307  0.1615380643034854  0.21744208475222135  1.0000
  O   O28       1.0  0.41563007550786324  0.8384612264795805  0.7825519961901292  1.0000
  O   O29       1.0  0.11696075850127836  0.4438318692899442  0.8854540601086284  1.0000
  O   O30       1.0  0.8830414542865626  0.5561665669119334  0.11454318513285237  1.0000
