data_image0
_chemical_formula_structural       Zn8H36C72O26
_chemical_formula_sum              "Zn8 H36 C72 O26"
_cell_length_a       15.113141221092095
_cell_length_b       20.144226609635908
_cell_length_c       22.51591150649865
_cell_angle_alpha    90.56947794564596
_cell_angle_beta     89.56391767685638
_cell_angle_gamma    89.47317475395178

_space_group_name_H-M_alt    "P 1"
_space_group_IT_number       1

loop_
  _space_group_symop_operation_xyz
  'x, y, z'

loop_
  _atom_site_type_symbol
  _atom_site_label
  _atom_site_symmetry_multiplicity
  _atom_site_fract_x
  _atom_site_fract_y
  _atom_site_fract_z
  _atom_site_occupancy
  Zn  Zn1       1.0  0.4344331003294072  0.4163184191989373  0.9972982364264315  1.0000
  Zn  Zn2       1.0  0.435031736387309  0.9188332138015274  0.5061717888008844  1.0000
  Zn  Zn3       1.0  0.4163020105071809  0.5756219494155984  0.9996644474263408  1.0000
  Zn  Zn4       1.0  0.419641136151732  0.07806445680527221  0.5000656777709908  1.0000
  Zn  Zn5       1.0  0.5783821758672545  0.5073002297338861  0.9320928480056313  1.0000
  Zn  Zn6       1.0  0.5714112505260616  0.49982425068413516  0.07249134868146002  1.0000
  Zn  Zn7       1.0  0.5679570950324829  0.0066874293485667995  0.4252037499200796  1.0000
  Zn  Zn8       1.0  0.5833069057661858  0.0030931652697532013  0.5671033755178174  1.0000
  H   H1        1.0  0.6048988508079491  0.6579838054910214  0.8078496493896453  1.0000
  H   H2        1.0  0.5511883929829648  0.6505692834447104  0.3303024480289381  1.0000
  H   H3        1.0  0.5422820800438471  0.14972286206404561  0.1689431992505206  1.0000
  H   H4        1.0  0.6854519917562103  0.23356404937388936  0.7663641705662061  1.0000
  H   H5        1.0  0.4468783693362468  0.3522242686447613  0.3282991544801917  1.0000
  H   H6        1.0  0.32124803744999036  0.2646032632955979  0.7373432646273202  1.0000
  H   H7        1.0  0.3145157574439068  0.7668034859265164  0.7655538086084807  1.0000
  H   H8        1.0  0.44994097662230814  0.8492999637304949  0.17348921269181974  1.0000
  H   H9        1.0  0.5381405492007332  0.2369070205675285  0.0910635164747475  1.0000
  H   H10       1.0  0.6711658871526325  0.321674626316657  0.8446785548245758  1.0000
  H   H11       1.0  0.6666941495732601  0.8183618187368112  0.6565844119264598  1.0000
  H   H12       1.0  0.5377358265864985  0.6172611339345836  0.2235760409277888  1.0000
  H   H13       1.0  0.5431211698774592  0.7384584575047839  0.4089447320644767  1.0000
  H   H14       1.0  0.4778316009596254  0.386098804563467  0.22367894021228815  1.0000
  H   H15       1.0  0.3892587496841741  0.32873863593074054  0.8204590463587424  1.0000
  H   H16       1.0  0.38465730213459887  0.8299469459930787  0.6827448827218349  1.0000
  H   H17       1.0  0.4816299642455563  0.8852027809569665  0.27758019944025863  1.0000
  H   H18       1.0  0.14472223000076667  0.5702844081008465  0.9719841772514504  1.0000
  H   H19       1.0  0.146791033927812  0.0767683264864729  0.45080281426314184  1.0000
  H   H20       1.0  0.16807852149026561  0.384381667059955  0.0628184829317604  1.0000
  H   H21       1.0  0.16837344349613662  0.8943340132262068  0.5472088171198095  1.0000
  H   H22       1.0  0.004102169493812399  0.37907191074110363  0.07402086474137802  1.0000
  H   H23       1.0  0.5245779794914398  0.11787763737925162  0.2749827333753602  1.0000
  H   H24       1.0  0.004019935830562796  0.8897215046051629  0.5577811826656004  1.0000
  H   H25       1.0  0.3283782893723952  0.6856217259731919  0.8478559095586535  1.0000
  H   H26       1.0  0.44628411046611666  0.7595318638044903  0.0964226497016014  1.0000
  H   H27       1.0  0.44185094078290627  0.26374067458885264  0.4049160618733368  1.0000
  H   H28       1.0  0.3376425586938723  0.183243843870045  0.6536538430322453  1.0000
  H   H29       1.0  0.9964038957836365  0.614146236359794  0.945574247966832  1.0000
  H   H30       1.0  0.9973357514697272  0.11977265402434512  0.4223306757349975  1.0000
  H   H31       1.0  0.615287545761916  0.16179783006695914  0.6894761289746045  1.0000
  H   H32       1.0  0.8320349419427873  0.604773734162123  0.9497821407078962  1.0000
  H   H33       1.0  0.8331757156964558  0.10946684238926711  0.4252502707345657  1.0000
  H   H34       1.0  0.8541752206065142  0.4300491416095369  0.05724477591559921  1.0000
  H   H35       1.0  0.8557318342314845  0.9394367740386331  0.5385629859920871  1.0000
  H   H36       1.0  0.6775269651744152  0.7292182482224588  0.7323321838985208  1.0000
  C   C1        1.0  0.4946402181591906  0.630086309102346  0.10938441728661273  1.0000
  C   C2        1.0  0.5153958881921596  0.7168768872690309  0.25895196644851387  1.0000
  C   C3        1.0  0.5071546832718496  0.21757720710520095  0.24089923803183674  1.0000
  C   C4        1.0  0.5454623288431435  0.23336592992450983  0.7459451995248401  1.0000
  C   C5        1.0  0.5420618964230073  0.68261639815087  0.798500597493984  1.0000
  C   C6        1.0  0.5175958618452157  0.66799626958354  0.21344069009296623  1.0000
  C   C7        1.0  0.506971990522274  0.169177984867865  0.2858381408998909  1.0000
  C   C8        1.0  0.5515975041674891  0.18498021541045523  0.700137282717485  1.0000
  C   C9        1.0  0.38537272803711176  0.6983422917734147  0.8204875428208285  1.0000
  C   C10       1.0  0.466569738477844  0.7490729365149776  0.14173421703192451  1.0000
  C   C11       1.0  0.4606920284552772  0.2522205752125047  0.3591463924978201  1.0000
  C   C12       1.0  0.4764616262803614  0.6181994733000665  0.8810707097511571  1.0000
  C   C13       1.0  0.3941770993746588  0.1973299770215036  0.6805759566176945  1.0000
  C   C14       1.0  0.37812433627930625  0.7433990812655509  0.7752049036743858  1.0000
  C   C15       1.0  0.468241091496516  0.7983583830668338  0.18448902117626184  1.0000
  C   C16       1.0  0.46326526523991174  0.30083557966733565  0.31664106936106157  1.0000
  C   C17       1.0  0.38558984491415776  0.24239991358131627  0.7265796680151554  1.0000
  C   C18       1.0  0.1654045557849599  0.4787714545834589  0.0175542835228413  1.0000
  C   C19       1.0  0.16628621390833598  0.986642980196443  0.4987916929689363  1.0000
  C   C20       1.0  0.8343507515657366  0.5170475158785451  0.004703704105267502  1.0000
  C   C21       1.0  0.8355941398054085  0.02368595266229081  0.4827590796175586  1.0000
  C   C22       1.0  0.9650668365924986  0.5735312374564359  0.9692859880767133  1.0000
  C   C23       1.0  0.48642405118639703  0.11866682778341442  0.6176624344614724  1.0000
  C   C24       1.0  0.9661637969344027  0.0796176845259566  0.4467257776615555  1.0000
  C   C25       1.0  0.8744732273769671  0.5688343079794862  0.9719149467739427  1.0000
  C   C26       1.0  0.8754141176988242  0.07436516892080648  0.44862736156159144  1.0000
  C   C27       1.0  0.8859941422900023  0.46962867565528665  0.032435600146314414  1.0000
  C   C28       1.0  0.8874179217060532  0.9778907137709468  0.5123423295636798  1.0000
  C   C29       1.0  0.5202845254451204  0.3800392623592117  0.8854981437783851  1.0000
  C   C30       1.0  0.5090442413605133  0.36915837612540514  0.10755080555139074  1.0000
  C   C31       1.0  0.5126507175826376  0.8705858405549878  0.39350020213232284  1.0000
  C   C32       1.0  0.517895131666016  0.8792786721780601  0.617600641621806  1.0000
  C   C33       1.0  0.9795035212469825  0.47104010897620463  0.027411229314296303  1.0000
  C   C34       1.0  0.4844273829071072  0.13265083290387747  0.389618406530154  1.0000
  C   C35       1.0  0.9807022163100924  0.9794752548008036  0.507804574398911  1.0000
  C   C36       1.0  0.019883456895165404  0.5250892052163324  0.9964996196397707  1.0000
  C   C37       1.0  0.0212233187793061  0.0325198999027663  0.47561491785751303  1.0000
  C   C38       1.0  0.11312563310513468  0.5284476700668892  0.9937061590002545  1.0000
  C   C39       1.0  0.11466242305080948  0.0357145132791175  0.4733493923643124  1.0000
  C   C40       1.0  0.12556573136818372  0.42358479352580514  0.045581676855427106  1.0000
  C   C41       1.0  0.12600010774624346  0.9326895511121197  0.5284414243313409  1.0000
  C   C42       1.0  0.03488132332512351  0.42067202053948455  0.051344853092494716  1.0000
  C   C43       1.0  0.0354139853291997  0.9301391693239864  0.5338448999230467  1.0000
  C   C44       1.0  0.26368620369787277  0.48380563242312774  0.012701370010233904  1.0000
  C   C45       1.0  0.48657654409704076  0.2852395511270558  0.25677618335910785  1.0000
  C   C46       1.0  0.26472951384781146  0.9902718650542611  0.4955437219598907  1.0000
  C   C47       1.0  0.7358421921531361  0.5130839467416523  0.006189752136847901  1.0000
  C   C48       1.0  0.7373039623729484  0.0184271901534956  0.4870922006923594  1.0000
  C   C49       1.0  0.4679523692151336  0.6668680418963078  0.8318342759626063  1.0000
  C   C50       1.0  0.49325784903185627  0.6833861933424784  0.15597004802084774  1.0000
  C   C51       1.0  0.4839591427133527  0.18570971673568692  0.34384595125615663  1.0000
  C   C52       1.0  0.47782704377294744  0.167549057056128  0.6676242976764402  1.0000
  C   C53       1.0  0.5083730198734459  0.31658393113359307  0.1536724595959598  1.0000
  C   C54       1.0  0.528674572831271  0.3292997925882588  0.8371021704388756  1.0000
  C   C55       1.0  0.524202596433284  0.8283766379985877  0.6650976070072191  1.0000
  C   C56       1.0  0.46030574019213333  0.26173825977613774  0.7603761990354841  1.0000
  C   C57       1.0  0.5130328930711201  0.8171508982121978  0.3470249323328788  1.0000
  C   C58       1.0  0.5266532553745833  0.2012717972662088  0.18059271563701176  1.0000
  C   C59       1.0  0.6209733740306193  0.2552379453269823  0.7776191593496267  1.0000
  C   C60       1.0  0.6138150253415092  0.7521279823964309  0.7220355399626115  1.0000
  C   C61       1.0  0.5344597864812358  0.7017249742921126  0.3190804968535944  1.0000
  C   C62       1.0  0.5251549400979768  0.24928755853146364  0.137562363423541  1.0000
  C   C63       1.0  0.6133575859296414  0.3034000829845453  0.8211705725149303  1.0000
  C   C64       1.0  0.607973837617621  0.8008842488127003  0.6798194699060859  1.0000
  C   C65       1.0  0.5308540056232544  0.7502321294985708  0.3625550268464084  1.0000
  C   C66       1.0  0.49034457368019707  0.3340873499193435  0.21218431712188857  1.0000
  C   C67       1.0  0.4533903709663889  0.7613961118761665  0.7408945580632962  1.0000
  C   C68       1.0  0.4537422905973898  0.3082665307644916  0.8076512979936584  1.0000
  C   C69       1.0  0.44851800860578095  0.8083525013676934  0.6946599352557641  1.0000
  C   C70       1.0  0.4952131899936135  0.8335651916978009  0.28875364106678353  1.0000
  C   C71       1.0  0.4926647836419067  0.7840003823680207  0.24386874012926546  1.0000
  C   C72       1.0  0.5375308486861101  0.7313129633369401  0.7538271054612837  1.0000
  O   O1        1.0  0.4989220285392975  0.5003061213442522  0.0007558868908148003  1.0000
  O   O2        1.0  0.44935082468118287  0.8778129405201938  0.5848384957076008  1.0000
  O   O3        1.0  0.29476803581290056  0.5418649782149743  0.005227862573470101  1.0000
  O   O4        1.0  0.2983948693987557  0.047102540571707215  0.4856673829278436  1.0000
  O   O5        1.0  0.6963386821895908  0.5336156267348431  0.9597540307007862  1.0000
  O   O6        1.0  0.6986818341495606  0.4898510787977983  0.05267852467125781  1.0000
  O   O7        1.0  0.6931595235686815  0.0283271638082709  0.43970086502618255  1.0000
  O   O8        1.0  0.7061641569850465  0.0037139191041504005  0.5380168886567915  1.0000
  O   O9        1.0  0.4190851019593326  0.622184153262907  0.9229341045227174  1.0000
  O   O10       1.0  0.4448606152079293  0.6384432150345135  0.06429509970961791  1.0000
  O   O11       1.0  0.44789772329271227  0.14558941516244775  0.43998025125419116  1.0000
  O   O12       1.0  0.5014757767513487  0.0016707723158831005  0.4999801193345449  1.0000
  O   O13       1.0  0.42375367332911656  0.11837985955098426  0.5798940100292712  1.0000
  O   O14       1.0  0.5343982472721863  0.4266749710467366  0.12414798410302554  1.0000
  O   O15       1.0  0.5852687342597633  0.41961206673061463  0.8922989609125626  1.0000
  O   O16       1.0  0.5817006761376078  0.9201854773588707  0.6134395857168188  1.0000
  O   O17       1.0  0.5462293098712367  0.9258685057390678  0.37832686802654086  1.0000
  O   O18       1.0  0.30827644757979306  0.42969109339027517  0.0162238575952713  1.0000
  O   O19       1.0  0.3071443138155985  0.9358723382662005  0.5031807766536573  1.0000
  O   O20       1.0  0.5456808763087154  0.5805208485233068  0.11890127201570523  1.0000
  O   O21       1.0  0.5411898401974258  0.5770107460778674  0.8774208641179799  1.0000
  O   O22       1.0  0.5556203478940844  0.0815615270176266  0.6165958667835484  1.0000
  O   O23       1.0  0.5215067162564111  0.0776787366721194  0.3747613660861902  1.0000
  O   O24       1.0  0.44873981678695424  0.3800470267804172  0.9161767148319628  1.0000
  O   O25       1.0  0.48379481276479913  0.35285763656705166  0.055332471636596416  1.0000
  O   O26       1.0  0.47874329707846647  0.8565458424344498  0.443988831140132  1.0000
