data_image0
_chemical_formula_structural       Cd2H20C24S4N8O10
_chemical_formula_sum              "Cd2 H20 C24 S4 N8 O10"
_cell_length_a       6.832557637622172
_cell_length_b       8.916116488049708
_cell_length_c       13.215088607096977
_cell_angle_alpha    71.64368355848433
_cell_angle_beta     85.76774430317634
_cell_angle_gamma    85.0242170759565

_space_group_name_H-M_alt    "P 1"
_space_group_IT_number       1

loop_
  _space_group_symop_operation_xyz
  'x, y, z'

loop_
  _atom_site_type_symbol
  _atom_site_label
  _atom_site_symmetry_multiplicity
  _atom_site_fract_x
  _atom_site_fract_y
  _atom_site_fract_z
  _atom_site_occupancy
  Cd  Cd1       1.0  0.24411350301096493  0.6218030206634141  0.07390142728203837  1.0000
  Cd  Cd2       1.0  0.7558906380278502  0.3781981468490089  0.9260991749831148  1.0000
  H   H1        1.0  0.1527113875294646  0.959592963698647  0.09059223137268185  1.0000
  H   H2        1.0  0.8472884270482696  0.04040706189361741  0.9094095327311463  1.0000
  H   H3        1.0  0.9788564411263038  0.8609751026056787  0.08315848065939947  1.0000
  H   H4        1.0  0.02114484217111109  0.13902490791124225  0.9168432308526491  1.0000
  H   H5        1.0  0.22924078647980653  0.26731998613598057  0.24660045564822752  1.0000
  H   H6        1.0  0.7707616470279248  0.7326847607750439  0.7533964296865321  1.0000
  H   H7        1.0  0.2214811909032051  0.13231082648023576  0.4460066743225326  1.0000
  H   H8        1.0  0.7785128307540035  0.8676880953443916  0.5539902455542317  1.0000
  H   H9        1.0  0.22590625091547878  0.29960369861500175  0.5666079196975957  1.0000
  H   H10       1.0  0.7740866210964795  0.7003904925848091  0.4333923116920886  1.0000
  H   H11       1.0  0.2382160017820141  0.7097058486833421  0.28440403726215635  1.0000
  H   H12       1.0  0.7617764689147605  0.2902942494010149  0.7155987471327805  1.0000
  H   H13       1.0  0.18507243468143733  0.6262614926419237  0.8330754132754733  1.0000
  H   H14       1.0  0.8149302365075711  0.37373967840726874  0.16692827091022616  1.0000
  H   H15       1.0  0.388363122373974  0.958737627733477  0.9520238933518427  1.0000
  H   H16       1.0  0.6116376821705245  0.04126949989137071  0.047973308444603895  1.0000
  H   H17       1.0  0.4738994062220526  0.1365452970621419  0.7709726882431696  1.0000
  H   H18       1.0  0.5261016391115589  0.8634582864319642  0.22902298175013405  1.0000
  H   H19       1.0  0.43128760476321293  0.043715629871577705  0.6120055897739788  1.0000
  H   H20       1.0  0.568710982731531  0.9562808753192447  0.3879924231219077  1.0000
  C   C1        1.0  0.22964053435263312  0.3340661429407988  0.30304585729209066  1.0000
  C   C2        1.0  0.7703561839548314  0.6659362928638616  0.696952489204264  1.0000
  C   C3        1.0  0.22587194840780717  0.26080684868728105  0.413334880780063  1.0000
  C   C4        1.0  0.7741219124407974  0.7391944330065175  0.586663817630992  1.0000
  C   C5        1.0  0.22988794077452468  0.35409275926411965  0.4800818261297763  1.0000
  C   C6        1.0  0.7701076281702227  0.6459049488003643  0.5199190745473032  1.0000
  C   C7        1.0  0.23847778787301618  0.5185994138748529  0.43494744401881036  1.0000
  C   C8        1.0  0.7615163920500266  0.48139712211877855  0.5650545133133775  1.0000
  C   C9        1.0  0.23807436653171982  0.5822776498709389  0.3231531124988861  1.0000
  C   C10       1.0  0.761920962188981  0.4177236080935743  0.6768478053169602  1.0000
  C   C11       1.0  0.251755196594587  0.6266494062627858  0.4970241832940587  1.0000
  C   C12       1.0  0.7482387436694609  0.3733506854001619  0.5029762765125197  1.0000
  C   C13       1.0  0.2794007354962885  0.7685652085648516  0.6214973078406131  1.0000
  C   C14       1.0  0.7205979302837802  0.23143009505653114  0.3785054957795637  1.0000
  C   C15       1.0  0.303610358019526  0.8284180409346791  0.7102214086093142  1.0000
  C   C16       1.0  0.6963910061059836  0.17158079397461992  0.2897782776373035  1.0000
  C   C17       1.0  0.25217731742344535  0.7393191813791734  0.8150360364322181  1.0000
  C   C18       1.0  0.7478238858934673  0.26068201339930414  0.18496542834868984  1.0000
  C   C19       1.0  0.3635515299891098  0.9254352980940583  0.8819786636883292  1.0000
  C   C20       1.0  0.6364509029535624  0.07456944304767894  0.11801973631081347  1.0000
  C   C21       1.0  0.41246724836788934  0.024133972001109807  0.7798605178623246  1.0000
  C   C22       1.0  0.5875338763811655  0.9758684214621528  0.22013691352649536  1.0000
  C   C23       1.0  0.38512041832588306  0.9745474501003248  0.6926183455118675  1.0000
  C   C24       1.0  0.6148793973819692  0.02545258703052871  0.3073803892632014  1.0000
  S   S1        1.0  0.7416617664661801  0.6848290151868356  0.031500722158078504  1.0000
  S   S2        1.0  0.25834702039067275  0.31516855143022593  0.9685012198573375  1.0000
  S   S3        1.0  0.2623035816112988  0.5697929032371364  0.6348097957196757  1.0000
  S   S4        1.0  0.7376921467294083  0.4302024305349407  0.3651931130840609  1.0000
  N   N1        1.0  0.2346111729864973  0.4921375245910725  0.25945457554494306  1.0000
  N   N2        1.0  0.7653870134755962  0.5078648903689499  0.740545233024008  1.0000
  N   N3        1.0  0.26148706752038453  0.781185453805627  0.4509088261032304  1.0000
  N   N4        1.0  0.7385130669793653  0.21880983474041224  0.5490939249251596  1.0000
  N   N5        1.0  0.2767773107107346  0.8607380843479719  0.5209776651234889  1.0000
  N   N6        1.0  0.7232228237890225  0.13925720419806714  0.479025085904901  1.0000
  N   N7        1.0  0.283867005863101  0.7863639802545566  0.8989924030767824  1.0000
  N   N8        1.0  0.7161369752146954  0.21363955578097926  0.10100770572609719  1.0000
  O   O1        1.0  0.906740773305458  0.5840061475521524  0.09268389784865151  1.0000
  O   O2        1.0  0.09326785330785012  0.4159937847033819  0.9073183080366717  1.0000
  O   O3        1.0  0.703502827513269  0.6319691033628346  0.9386041906786602  1.0000
  O   O4        1.0  0.29651004586314395  0.36803315795906144  0.06139584930465961  1.0000
  O   O5        1.0  0.5623708015827374  0.670383885470649  0.10495794534494965  1.0000
  O   O6        1.0  0.43763390016719933  0.3296090008648137  0.8950421120416081  1.0000
  O   O7        1.0  0.7964446877819357  0.8521452446442055  0.992971730544184  1.0000
  O   O8        1.0  0.20355961124018052  0.14785353415258132  0.007034666508580789  1.0000
  O   O9        1.0  0.10137857484756553  0.8534408147843423  0.12086302094397891  1.0000
  O   O10       1.0  0.8986213197106708  0.14655802654636574  0.8791389898909897  1.0000
