data_image0
_chemical_formula_structural       Zn12H48C120O48F12
_chemical_formula_sum              "Zn12 H48 C120 O48 F12"
_cell_length_a       19.015125636975334
_cell_length_b       18.996197305934437
_cell_length_c       30.861156610031635
_cell_angle_alpha    89.79982789007109
_cell_angle_beta     89.76936990532948
_cell_angle_gamma    59.99433032835953

_space_group_name_H-M_alt    "P 1"
_space_group_IT_number       1

loop_
  _space_group_symop_operation_xyz
  'x, y, z'

loop_
  _atom_site_type_symbol
  _atom_site_label
  _atom_site_symmetry_multiplicity
  _atom_site_fract_x
  _atom_site_fract_y
  _atom_site_fract_z
  _atom_site_occupancy
  Zn  Zn1       1.0  0.4320405510754597  0.5680656794963994  0.5000257045703761  1.0000
  Zn  Zn2       1.0  0.5668763513181149  0.4330584424159483  0.4999772193137559  1.0000
  Zn  Zn3       1.0  0.5680145367232612  5.0063023742634145e-05  0.4995507597478124  1.0000
  Zn  Zn4       1.0  0.4331844192762447  0.9999711858552228  0.4996736806775956  1.0000
  Zn  Zn5       1.0  6.95787675014e-05  0.4320225984891479  0.4994904610327707  1.0000
  Zn  Zn6       1.0  0.9999529937457581  0.5670446793140158  0.4993898168436033  1.0000
  Zn  Zn7       1.0  0.567019688591344  0.43106399793443717  0.9999949646883337  1.0000
  Zn  Zn8       1.0  0.4321841505472079  0.5660684182111453  4.4630033258399444e-05  1.0000
  Zn  Zn9       1.0  0.43147186335728094  0.999040550855433  0.9999310099638306  1.0000
  Zn  Zn10      1.0  0.5662584472068559  0.9990883828035849  0.9993831568955045  1.0000
  Zn  Zn11      1.0  0.9989234859192563  0.5675505090876882  0.9992491426197175  1.0000
  Zn  Zn12      1.0  0.9990467771001333  0.4324820642655494  0.9997159469531454  1.0000
  H   H1        1.0  0.5157216647426921  0.7418424210602692  0.4999192931447354  1.0000
  H   H2        1.0  0.7417951022377237  0.742595491396038  0.4996780481038456  1.0000
  H   H3        1.0  0.742579693838792  0.5155003505052419  0.49985239474148097  1.0000
  H   H4        1.0  0.25804491105065364  0.48452190233624026  0.4995760372403666  1.0000
  H   H5        1.0  0.2576208961967622  0.2580391849374806  0.4991779363957675  1.0000
  H   H6        1.0  0.48429725748258795  0.2575758618166191  0.4997430733049625  1.0000
  H   H7        1.0  0.38545424732102873  0.6143023996432361  0.6390888849215556  1.0000
  H   H8        1.0  0.6137504363381795  0.3849876944958055  0.8609304082561665  1.0000
  H   H9        1.0  0.38770051754720214  0.6117331674533586  0.8617328030813167  1.0000
  H   H10       1.0  0.3875129740330364  0.6121725578830705  0.7827854902717561  1.0000
  H   H11       1.0  0.6114738149626292  0.3875310464176208  0.6382704240372873  1.0000
  H   H12       1.0  0.6117827595933746  0.3871777941848651  0.7172201497176188  1.0000
  H   H13       1.0  0.3861789550837146  0.6148444276507661  0.36101814164869245  1.0000
  H   H14       1.0  0.614006813343778  0.38537613759778816  0.13898736662781627  1.0000
  H   H15       1.0  0.38820672246580296  0.6123585188735703  0.13837905371794082  1.0000
  H   H16       1.0  0.38806849928941034  0.6127459256872569  0.21732957303110817  1.0000
  H   H17       1.0  0.6119972643452768  0.38785556502475055  0.36163063466214845  1.0000
  H   H18       1.0  0.6121609739758399  0.3875043645367954  0.28267640494026836  1.0000
  H   H19       1.0  0.6141875278975492  0.9991844431735112  0.6386101469486719  1.0000
  H   H20       1.0  0.38490188455383395  0.9986669964593061  0.8607782092842841  1.0000
  H   H21       1.0  0.6115607293364604  0.9979165604711823  0.8612186303878532  1.0000
  H   H22       1.0  0.6120818834933887  0.998027723385611  0.7822702301889848  1.0000
  H   H23       1.0  0.38757724708303  0.9999010796450634  0.6380313148869945  1.0000
  H   H24       1.0  0.3871193896418604  0.999407653527882  0.7169885050277216  1.0000
  H   H25       1.0  0.6149166990764101  3.119772096484122e-05  0.36033682460812594  1.0000
  H   H26       1.0  0.38529602583377454  0.0018014507500652074  0.1390532340889123  1.0000
  H   H27       1.0  0.6120019481179072  0.0009201899804551441  0.13748871624729728  1.0000
  H   H28       1.0  0.6119392908696354  0.0021647197844602475  0.21646564704607127  1.0000
  H   H29       1.0  0.3880964689641146  0.0011459130890401174  0.36149024322018863  1.0000
  H   H30       1.0  0.3874156825226436  0.0021547661543408303  0.28256204540721797  1.0000
  H   H31       1.0  0.9992255751739522  0.38543248060155827  0.6385496498688424  1.0000
  H   H32       1.0  0.9985642044871028  0.6137251361617898  0.8603040559558295  1.0000
  H   H33       1.0  0.9978676578339504  0.3875832860472104  0.8612399345547245  1.0000
  H   H34       1.0  0.9979511184651317  0.3874964908039615  0.7822918023814011  1.0000
  H   H35       1.0  0.9999312347094998  0.6115866296987774  0.6376746384896987  1.0000
  H   H36       1.0  0.9993552819735497  0.6118655872730798  0.7166190699149766  1.0000
  H   H37       1.0  6.196745814439998e-05  0.3862749787676164  0.3606633789212522  1.0000
  H   H38       1.0  0.0016756081874050005  0.6138716882349157  0.1381099888686137  1.0000
  H   H39       1.0  0.0010141420985406  0.38771738010968443  0.13820137799248763  1.0000
  H   H40       1.0  0.0023250422643883  0.38704237391637253  0.2171281872606201  1.0000
  H   H41       1.0  0.0012081035381968004  0.6122026795641061  0.36092282554722027  1.0000
  H   H42       1.0  0.002302557264698599  0.6119717512086567  0.2819481177647702  1.0000
  H   H43       1.0  0.7412647594133334  0.5143200429115711  0.9990642569190129  1.0000
  H   H44       1.0  0.7417141512258212  0.7407688389878118  0.9986344666311879  1.0000
  H   H45       1.0  0.5150051838046606  0.7412381709860937  0.9991740248534242  1.0000
  H   H46       1.0  0.4829970821474062  0.2575393386430277  0.0012006855138580002  1.0000
  H   H47       1.0  0.25684046281268996  0.2568800445298222  0.0016668132603214999  1.0000
  H   H48       1.0  0.2561736134512671  0.48390355234778315  0.0010283103397767997  1.0000
  C   C1        1.0  0.49875939244970624  0.5017576785726092  0.415685540104434  1.0000
  C   C2        1.0  0.5794360632479753  0.5781795046225182  0.4999616128733776  1.0000
  C   C3        1.0  0.4981208921032874  0.5013355212855971  0.5843110947035582  1.0000
  C   C4        1.0  0.42157334017640846  0.4208459486015953  0.4998834611870109  1.0000
  C   C5        1.0  0.501966308991648  0.00014459497844394596  0.415276666062887  1.0000
  C   C6        1.0  0.5782987620311532  0.8424134761228144  0.49977607601055507  1.0000
  C   C7        1.0  0.50138992837163  0.9998834221967665  0.5839616654205386  1.0000
  C   C8        1.0  0.4206846284579838  0.15761332861806915  0.4994896808926796  1.0000
  C   C9        1.0  0.00015447305893450002  0.49899732402238317  0.4151403744796198  1.0000
  C   C10       1.0  0.8424114401152638  0.5792977270566054  0.49969938799657837  1.0000
  C   C11       1.0  0.9999083025672917  0.49818682544047005  0.5837462635053753  1.0000
  C   C12       1.0  0.15762070603336303  0.4217420397521252  0.4993164529875003  1.0000
  C   C13       1.0  0.5011204767148812  0.49816951530497267  0.08432432296892498  1.0000
  C   C14       1.0  0.5777613274661135  0.577981504891106  0.9993436229346881  1.0000
  C   C15       1.0  0.500717789473548  0.4976391520479594  0.9157040077577889  1.0000
  C   C16       1.0  0.4193050929522927  0.42123310410826786  0.0008935054721561993  1.0000
  C   C17       1.0  0.499177199664537  0.999158160945377  0.08395528898802239  1.0000
  C   C18       1.0  0.5784610717519314  0.8413106457620498  0.9991398342071561  1.0000
  C   C19       1.0  0.497407492718196  0.9993453895731149  0.91536280564668  1.0000
  C   C20       1.0  0.42030394841860647  0.1568582705793844  0.0006840684123403999  1.0000
  C   C21       1.0  0.9991188125183543  0.5020859266412714  0.08382022650017969  1.0000
  C   C22       1.0  0.8415717403214417  0.5770948017599479  0.9990714084443153  1.0000
  C   C23       1.0  0.9992186491952141  0.5005229324856798  0.915135143679926  1.0000
  C   C24       1.0  0.15642374911703166  0.42005086594421204  0.0005318701956866996  1.0000
  C   C25       1.0  0.6239802073978709  0.7516416366654111  0.4998118130835109  1.0000
  C   C26       1.0  0.5818118487262964  0.708862401535434  0.4998857075662855  1.0000
  C   C27       1.0  0.6244970733888523  0.6238556578224105  0.4999017088580188  1.0000
  C   C28       1.0  0.7094229029081305  0.5816520207239859  0.4998562143433816  1.0000
  C   C29       1.0  0.7516902591667006  0.6243596200387526  0.4997857897583273  1.0000
  C   C30       1.0  0.7089115297500328  0.7093615502060685  0.4997567538223322  1.0000
  C   C31       1.0  0.24833970775453915  0.3761043055840857  0.49937715398897337  1.0000
  C   C32       1.0  0.2910262238095953  0.4183716809592823  0.4995425297343843  1.0000
  C   C33       1.0  0.3759601523297392  0.37572288726590136  0.4996885368879447  1.0000
  C   C34       1.0  0.41820941496475683  0.2907231390093656  0.4996450473432716  1.0000
  C   C35       1.0  0.3755915359738466  0.24838510127067787  0.4994738203089284  1.0000
  C   C36       1.0  0.29067944368419774  0.29109193320871884  0.499332164276673  1.0000
  C   C37       1.0  0.4987260468891889  0.5006314867529582  0.632652461643154  1.0000
  C   C38       1.0  0.500370597412875  0.49856104612675983  0.8673614935361158  1.0000
  C   C39       1.0  0.43575120049519706  0.563812139310471  0.6558471046054349  1.0000
  C   C40       1.0  0.4368817596404853  0.5626676660360489  0.7007050852677991  1.0000
  C   C41       1.0  0.5634443801729746  0.435465136358708  0.8441696482316914  1.0000
  C   C42       1.0  0.5623939431898322  0.43667112533083224  0.7993087326744615  1.0000
  C   C43       1.0  0.43731509802965  0.5619673733745075  0.8441745584235747  1.0000
  C   C44       1.0  0.43768840688731103  0.5617598692910375  0.7992087999661095  1.0000
  C   C45       1.0  0.5618507426852518  0.43727634756933037  0.6558323004891092  1.0000
  C   C46       1.0  0.5615624113856085  0.43755083484693796  0.700796071508158  1.0000
  C   C47       1.0  0.4990707832250578  0.500244828703522  0.7259558122708468  1.0000
  C   C48       1.0  0.500195816022334  0.4990811437632559  0.7740519009820731  1.0000
  C   C49       1.0  0.4993806540944661  0.5010895816824997  0.3673453788973403  1.0000
  C   C50       1.0  0.5007881209725794  0.49911263772592224  0.13266183401440657  1.0000
  C   C51       1.0  0.43640841866084656  0.5643105505730545  0.3442124323455076  1.0000
  C   C52       1.0  0.437446973052566  0.5631448657641939  0.2993543559178988  1.0000
  C   C53       1.0  0.5638004157997898  0.435927428890274  0.15579492213934998  1.0000
  C   C54       1.0  0.5627551825915448  0.43709224326600077  0.20065139748483324  1.0000
  C   C55       1.0  0.43780649196536814  0.5625762233707903  0.1558976642095899  1.0000
  C   C56       1.0  0.4382044716413064  0.5623215338333837  0.20086117697282188  1.0000
  C   C57       1.0  0.5624199523341388  0.43765768435562064  0.3441112743170933  1.0000
  C   C58       1.0  0.5620395714388736  0.4379372613597709  0.2991509012712043  1.0000
  C   C59       1.0  0.4995644687848396  0.5006827602745431  0.2740505403941995  1.0000
  C   C60       1.0  0.5006552977557419  0.4995492244332383  0.22596068777563258  1.0000
  C   C61       1.0  0.5006427697322665  0.9995427031751726  0.6323050450964799  1.0000
  C   C62       1.0  0.4983815606888342  0.9985771220699959  0.8670245545122696  1.0000
  C   C63       1.0  0.5637525531634395  0.9991859315267675  0.6554320692006641  1.0000
  C   C64       1.0  0.5625652131112701  0.9988715194556546  0.7002915564180083  1.0000
  C   C65       1.0  0.43536846076621327  0.9985881046869303  0.8439460093500982  1.0000
  C   C66       1.0  0.4366354526800507  0.998609982145162  0.7990746562056471  1.0000
  C   C67       1.0  0.5618534284239587  0.9981513511330176  0.8437329052754947  1.0000
  C   C68       1.0  0.5616941603457094  0.9981681721842506  0.7987699579207187  1.0000
  C   C69       1.0  0.4372918611877878  0.999609994158554  0.6555479296744551  1.0000
  C   C70       1.0  0.4375119521826464  0.9993263816599618  0.7005197401142739  1.0000
  C   C71       1.0  0.5001691408448536  0.998897427211162  0.7256169044222248  1.0000
  C   C72       1.0  0.4990181739593994  0.9985533711125208  0.7737179797618979  1.0000
  C   C73       1.0  0.5012234231358619  0.0006000995935551877  0.36693426201290447  1.0000
  C   C74       1.0  0.49922687079128286  0.0007330551534039655  0.13227289771192827  1.0000
  C   C75       1.0  0.5643381300805644  0.0005414693949389641  0.3436410912431355  1.0000
  C   C76       1.0  0.562991629930899  0.001140679963881843  0.29877775068572987  1.0000
  C   C77       1.0  0.435751761257329  0.0017211070446378914  0.15564755097432234  1.0000
  C   C78       1.0  0.43660590401580635  0.0025173953819575107  0.20049381670825986  1.0000
  C   C79       1.0  0.562265864944763  0.0012191991809019104  0.15523167329067888  1.0000
  C   C80       1.0  0.561748467035443  0.0019136121704406712  0.20020319744407536  1.0000
  C   C81       1.0  0.4377723351440608  0.0011671115922382486  0.343856574195584  1.0000
  C   C82       1.0  0.4378380931509938  0.0017851883241278626  0.2988952743357912  1.0000
  C   C83       1.0  0.5003950372247559  0.001861482417467579  0.2736373325497325  1.0000
  C   C84       1.0  0.49909425114574196  0.0021950116203583673  0.22555423723118645  1.0000
  C   C85       1.0  0.9996301218063907  0.49877962011992566  0.6320824717673902  1.0000
  C   C86       1.0  0.9984426500777844  0.5002627482679002  0.8668018716778505  1.0000
  C   C87       1.0  0.9992517975683414  0.43576318188851776  0.6552939257401674  1.0000
  C   C88       1.0  0.9988835735604412  0.4368977866486576  0.7001548877232294  1.0000
  C   C89       1.0  0.9984632882771011  0.5634260129753055  0.8435637897921564  1.0000
  C   C90       1.0  0.9984896144179274  0.5624466614489164  0.79870627557942  1.0000
  C   C91       1.0  0.9980699793974281  0.4372582512203848  0.8436595449540647  1.0000
  C   C92       1.0  0.9980866259041294  0.4376924303942643  0.7986835512872332  1.0000
  C   C93       1.0  0.9996554309073673  0.5619431594866031  0.6552421852138864  1.0000
  C   C94       1.0  0.9992926432800502  0.5616437188008591  0.7002152026017682  1.0000
  C   C95       1.0  0.9988543392161374  0.4991298909514368  0.7253928886647713  1.0000
  C   C96       1.0  0.9984575233632786  0.5002247101579794  0.7734859071107038  1.0000
  C   C97       1.0  0.0006222639237520998  0.49951992252155  0.3668112398863457  1.0000
  C   C98       1.0  0.0007175669710975001  0.5008283998625984  0.1321525820350615  1.0000
  C   C99       1.0  0.0005963428831065999  0.4364256782949878  0.34378584689184777  1.0000
  C   C100      1.0  0.0012048522817166998  0.43724445156363595  0.2989338501422266  1.0000
  C   C101      1.0  0.0016276555160104002  0.5635655744605329  0.1550919292868045  1.0000
  C   C102      1.0  0.0024583606166856996  0.5621962996136888  0.19995604067187855  1.0000
  C   C103      1.0  0.0012793540988341  0.43736063272856995  0.15556223269171449  1.0000
  C   C104      1.0  0.0020032464820616  0.4374582635914661  0.20052023588509366  1.0000
  C   C105      1.0  0.0012179523422943999  0.5624939224590617  0.34347975489529864  1.0000
  C   C106      1.0  0.0018713272428386002  0.5618746699867784  0.29850739034537804  1.0000
  C   C107      1.0  0.0019262779637401  0.4991996629560234  0.2735227309417994  1.0000
  C   C108      1.0  0.0022379360527225002  0.5000541576966525  0.2254349854525657  1.0000
  C   C109      1.0  0.7509030967979626  0.6227689062808892  0.9988731076587597  1.0000
  C   C110      1.0  0.7082603514260838  0.5804754759684128  0.998973383818516  1.0000
  C   C111      1.0  0.6233404264503479  0.6231188879820023  0.9990470463674583  1.0000
  C   C112      1.0  0.5810893382329781  0.7081074314168417  0.9990396925448479  1.0000
  C   C113      1.0  0.6236403525651256  0.750517290821719  0.9989238388732744  1.0000
  C   C114      1.0  0.708566973512191  0.7077978668509955  0.9987741809704999  1.0000
  C   C115      1.0  0.37473554386649977  0.2476737304480493  0.0013941896263461  1.0000
  C   C116      1.0  0.416906934288889  0.2904777769340683  0.0013539314121544994  1.0000
  C   C117      1.0  0.3742587329683574  0.37551705998181717  0.0013293377970385  1.0000
  C   C118      1.0  0.28933773161282517  0.4177472118668745  0.0012613496798365995  1.0000
  C   C119      1.0  0.24709345339181976  0.37502069477130123  0.001320416070214499  1.0000
  C   C120      1.0  0.2898078532121461  0.2900257200500532  0.0015501773513975  1.0000
  O   O1        1.0  0.43875712035384856  0.5618694560518946  0.43447741795200306  1.0000
  O   O2        1.0  0.558481868182497  0.44190940156446606  0.4347287334043769  1.0000
  O   O3        1.0  0.6217886978607935  0.5005711655340761  0.4999499969945589  1.0000
  O   O4        1.0  0.5018643385275608  0.6202905515300329  0.5000237618306044  1.0000
  O   O5        1.0  0.5579207899347481  0.441573926469907  0.5652231149124133  1.0000
  O   O6        1.0  0.4381014585458658  0.5614392852726197  0.5655632873629768  1.0000
  O   O7        1.0  0.3795163930387133  0.49849114693255786  0.499950293717248  1.0000
  O   O8        1.0  0.49911242053524774  0.37843119663730834  0.49996723886707867  1.0000
  O   O9        1.0  0.5620068873343271  0.9999562232910721  0.4339859037042544  1.0000
  O   O10       1.0  0.442194057646205  5.315375207715667e-05  0.4344071807363576  1.0000
  O   O11       1.0  0.5007649630349604  0.877568841916819  0.49978784435440093  1.0000
  O   O12       1.0  0.6203181496571445  0.8779899536137633  0.4997458280852385  1.0000
  O   O13       1.0  0.44168898171827925  0.999982264310596  0.5649296848429656  1.0000
  O   O14       1.0  0.5614206200939548  4.155994886196771e-05  0.5651469012984548  1.0000
  O   O15       1.0  0.4982537756537653  0.12210651928728566  0.49944717365669067  1.0000
  O   O16       1.0  0.3783512063014172  0.12238400720166706  0.4995740746308356  1.0000
  O   O17       1.0  0.9999393558653721  0.43896169220570136  0.43397382059067274  1.0000
  O   O18       1.0  7.476690130659999e-05  0.5587792141341907  0.4341531533157834  1.0000
  O   O19       1.0  0.8775415901588063  0.6217393521297437  0.4996008860129209  1.0000
  O   O20       1.0  0.877971058767443  0.501651846783517  0.4997383385013237  1.0000
  O   O21       1.0  0.9999467066668404  0.5580392552346181  0.5646359015998783  1.0000
  O   O22       1.0  7.505421677220005e-05  0.4380944651547478  0.5650159427287987  1.0000
  O   O23       1.0  0.12215647625723848  0.3796001855366739  0.4993062697215152  1.0000
  O   O24       1.0  0.1223841214142638  0.49935792657279165  0.4993188645153878  1.0000
  O   O25       1.0  0.5610104653707211  0.4379475613747487  0.06553427481895109  1.0000
  O   O26       1.0  0.44120317451915975  0.5578267810567537  0.06528756367045929  1.0000
  O   O27       1.0  0.5002307918470379  0.6203983545681737  0.9995316814436777  1.0000
  O   O28       1.0  0.6198547248120151  0.5003502141630135  0.99942928492662  1.0000
  O   O29       1.0  0.4408584116873798  0.5573431175661625  0.9347942127524149  1.0000
  O   O30       1.0  0.5605703087367219  0.437388318869452  0.9344548392655411  1.0000
  O   O31       1.0  0.49687191762039623  0.3791534246426949  0.0006482211714952998  1.0000
  O   O32       1.0  0.376946344090193  0.49885551152861746  0.0006821717332527996  1.0000
  O   O33       1.0  0.43939951802806126  0.9985137563754872  0.06543745553226898  1.0000
  O   O34       1.0  0.5591676799662294  0.9985239469963076  0.06464826136589609  1.0000
  O   O35       1.0  0.6207762667394335  0.8765517089138652  0.9990107446782304  1.0000
  O   O36       1.0  0.5008889374678632  0.8768263835372704  0.9994969642217554  1.0000
  O   O37       1.0  0.5570177539072675  0.9997319734106466  0.9342312735181934  1.0000
  O   O38       1.0  0.4372889666737906  0.9996740487388319  0.9343575036553415  1.0000
  O   O39       1.0  0.37823716085775766  0.12132284838632044  0.0005669119833556  1.0000
  O   O40       1.0  0.4978243131683585  0.12164054036070827  6.523763580899998e-05  1.0000
  O   O41       1.0  0.9984132496225867  0.5624558682672782  0.06483504907998851  1.0000
  O   O42       1.0  0.9985093182837802  0.44252831322023656  0.06497202868545318  1.0000
  O   O43       1.0  0.8767737744710472  0.4994767927385408  0.9994151564042397  1.0000
  O   O44       1.0  0.8770286627475699  0.6192244870208156  0.9989248061166335  1.0000
  O   O45       1.0  0.9995950025671264  0.44057516230226673  0.9343768586972699  1.0000
  O   O46       1.0  0.9996124139111658  0.5604479498095856  0.9337429689499146  1.0000
  O   O47       1.0  0.120886859851538  0.49767847569060564  0.9999548066735287  1.0000
  O   O48       1.0  0.12130630235273543  0.3775970310618106  0.0003167038737998994  1.0000
  F   F1        1.0  0.37171100102752774  0.6280883544216636  0.7195790831969829  1.0000
  F   F2        1.0  0.6276527128778895  0.37132643246558666  0.7804398481482338  1.0000
  F   F3        1.0  0.3722638740596054  0.6285882637132117  0.28054244944564033  1.0000
  F   F4        1.0  0.6279225061799566  0.3716198874316985  0.21946178878811654  1.0000
  F   F5        1.0  0.6279074400622308  0.9985509358374997  0.7190807883897817  1.0000
  F   F6        1.0  0.37133454487710094  0.9988483020229068  0.780281289049256  1.0000
  F   F7        1.0  0.6283761217270368  0.0008970603652826554  0.27976643400024404  1.0000
  F   F8        1.0  0.37082337774908325  0.0036392398707860794  0.2195430821939865  1.0000
  F   F9        1.0  0.9985800807283667  0.3716699537195749  0.7190624234371937  1.0000
  F   F10       1.0  0.9987050459621616  0.6277322383477183  0.7798059659047639  1.0000
  F   F11       1.0  0.0009491495256171002  0.3720266370310127  0.28024867662234243  1.0000
  F   F12       1.0  0.0035029167924066004  0.6270441980262617  0.2185965937068062  1.0000
