data_image0
_chemical_formula_structural       Cu4H16C20N16
_chemical_formula_sum              "Cu4 H16 C20 N16"
_cell_length_a       7.98209283912852
_cell_length_b       8.751277174774371
_cell_length_c       8.965460715611043
_cell_angle_alpha    111.79139464916638
_cell_angle_beta     90.00009819224398
_cell_angle_gamma    90.00056942003569

_space_group_name_H-M_alt    "P 1"
_space_group_IT_number       1

loop_
  _space_group_symop_operation_xyz
  'x, y, z'

loop_
  _atom_site_type_symbol
  _atom_site_label
  _atom_site_symmetry_multiplicity
  _atom_site_fract_x
  _atom_site_fract_y
  _atom_site_fract_z
  _atom_site_occupancy
  Cu  Cu1       1.0  0.8648799841460574  0.43267089326704433  0.3821252847397148  1.0000
  Cu  Cu2       1.0  0.3648797474128855  0.06733886092143142  0.11787944247787151  1.0000
  Cu  Cu3       1.0  0.13512125036980646  0.5673294623452493  0.6178752299331336  1.0000
  Cu  Cu4       1.0  0.6351202343046225  0.9326627261586111  0.8821204038038533  1.0000
  H   H1        1.0  0.5120167195500186  0.5048417945580186  0.3318327494150638  1.0000
  H   H2        1.0  0.012016239204321297  0.9951566600206264  0.16817154763155182  1.0000
  H   H3        1.0  0.48798451495733985  0.4951573312712442  0.6681662034758632  1.0000
  H   H4        1.0  0.9879824896944954  0.0048424657947663  0.8318274052528382  1.0000
  H   H5        1.0  0.3386438108643476  0.752504247705133  0.39661567653377017  1.0000
  H   H6        1.0  0.8386438900889602  0.747489209712093  0.10338496624835612  1.0000
  H   H7        1.0  0.6613561708354182  0.2474936449508718  0.6033861749115347  1.0000
  H   H8        1.0  0.16135609161282358  0.2525099169560505  0.8966128715544102  1.0000
  H   H9        1.0  0.7934443969129248  0.04053625104686632  0.5455584442294211  1.0000
  H   H10       1.0  0.2934479549892616  0.45947123003810475  0.9544477596711973  1.0000
  H   H11       1.0  0.2065543319858847  0.9594628747685195  0.45444050865496904  1.0000
  H   H12       1.0  0.706552026723628  0.540529124721445  0.045553870083274745  1.0000
  H   H13       1.0  0.9473327833526424  0.7789993868655642  0.47598546697840066  1.0000
  H   H14       1.0  0.4473339979836482  0.721012501631215  0.024023111270942518  1.0000
  H   H15       1.0  0.052665945552085695  0.2210009704245124  0.5240128175181269  1.0000
  H   H16       1.0  0.5526659837364464  0.2789890837571889  0.9759789651805665  1.0000
  C   C1        1.0  0.5693394966721498  0.6265482400668034  0.3800534180063125  1.0000
  C   C2        1.0  0.06933883373417869  0.8734520796649149  0.11995162457383664  1.0000
  C   C3        1.0  0.43065923222074787  0.37344965427390525  0.61994620326594  1.0000
  C   C4        1.0  0.9306611479820291  0.12654950826095052  0.8800471066229891  1.0000
  C   C5        1.0  0.4730472632091534  0.767581959951791  0.41598983549895524  1.0000
  C   C6        1.0  0.9730471333657604  0.7324154456334997  0.08401351643806987  1.0000
  C   C7        1.0  0.5269539712948798  0.23241593271114175  0.584012015949611  1.0000
  C   C8        1.0  0.0269528483432353  0.267584911663505  0.9159847680617264  1.0000
  C   C9        1.0  0.5490144766419789  0.9235797416076965  0.4785973448033334  1.0000
  C   C10       1.0  0.0490141135670399  0.5764178927292533  0.02140558333957898  1.0000
  C   C11       1.0  0.45098299944924497  0.07641815103443149  0.5214045066354345  1.0000
  C   C12       1.0  0.950984615325865  0.42358000161145537  0.9785940379326735  1.0000
  C   C13       1.0  0.723889701756896  0.9256305408339501  0.4993386002120774  1.0000
  C   C14       1.0  0.2238880152315161  0.5743739526100244  0.0006659112958829919  1.0000
  C   C15       1.0  0.2761090271445141  0.07436858328980381  0.5006625828420965  1.0000
  C   C16       1.0  0.7761132192843476  0.42562640300227633  0.9993346033769658  1.0000
  C   C17       1.0  0.8120411806116934  0.7795073804656739  0.4592916686320551  1.0000
  C   C18       1.0  0.31204117584371727  0.7205005491780767  0.04071531091342712  1.0000
  C   C19       1.0  0.18795880109989577  0.22049297513969182  0.5407088460375321  1.0000
  C   C20       1.0  0.6879588058678718  0.279499806427289  0.959285203756153  1.0000
  N   N1        1.0  0.7372027854366934  0.6303113753132338  0.40066444349104574  1.0000
  N   N2        1.0  0.237205791969501  0.8696981880391874  0.09934192422147704  1.0000
  N   N3        1.0  0.2627971962736027  0.369688981137955  0.5993349560936424  1.0000
  N   N4        1.0  0.7627941897480001  0.1303033990408622  0.9006579220602404  1.0000
  N   N5        1.0  0.1084457637120835  0.48323526098773334  0.34264575465181935  1.0000
  N   N6        1.0  0.6084522306692506  0.016780268236843202  0.15736187769606866  1.0000
  N   N7        1.0  0.8915542180007989  0.5167650937718093  0.6573558751026598  1.0000
  N   N8        1.0  0.39154900385381813  0.9832213180043183  0.8426390836738095  1.0000
  N   N9        1.0  0.20832120306047838  0.3856987823138027  0.2632261607922644  1.0000
  N   N10       1.0  0.7083176401396828  0.1142969367946023  0.23676770784449272  1.0000
  N   N11       1.0  0.7916800314468802  0.6143003435154526  0.7367727920986555  1.0000
  N   N12       1.0  0.29168108877355087  0.8857046502785124  0.7632321384339633  1.0000
  N   N13       1.0  0.18652888799987724  0.7958599076584606  0.6847048770219006  1.0000
  N   N14       1.0  0.6865477824729214  0.7041365452740181  0.815287904518492  1.0000
  N   N15       1.0  0.8134710937091186  0.20414044963854397  0.31529340747789564  1.0000
  N   N16       1.0  0.3134521992517919  0.29586627243489266  0.18471238846026244  1.0000
