data_image0
_chemical_formula_structural       Hg4H24C24Br8N8O12
_chemical_formula_sum              "Hg4 H24 C24 Br8 N8 O12"
_cell_length_a       6.8172672780298775
_cell_length_b       11.637295535359303
_cell_length_c       13.696623612282933
_cell_angle_alpha    89.9997544493041
_cell_angle_beta     95.07957365732047
_cell_angle_gamma    90.00082156776467

_space_group_name_H-M_alt    "P 1"
_space_group_IT_number       1

loop_
  _space_group_symop_operation_xyz
  'x, y, z'

loop_
  _atom_site_type_symbol
  _atom_site_label
  _atom_site_symmetry_multiplicity
  _atom_site_fract_x
  _atom_site_fract_y
  _atom_site_fract_z
  _atom_site_occupancy
  Hg  Hg1       1.0  0.9893705661440182  0.1549762680470863  0.9217500755407995  1.0000
  Hg  Hg2       1.0  0.5106286466965174  0.6549753463638127  0.07825054265106958  1.0000
  Hg  Hg3       1.0  0.010630673927600804  0.8450175295801403  0.0782455760004268  1.0000
  Hg  Hg4       1.0  0.48936083204103653  0.34503220011538355  0.9217453948289175  1.0000
  H   H1        1.0  0.1083567677033983  0.48059246322228677  0.8182737893294031  1.0000
  H   H2        1.0  0.3916296602308337  0.9805743821308683  0.18172881613674005  1.0000
  H   H3        1.0  0.8916356934671654  0.5194107867347172  0.1817237211310568  1.0000
  H   H4        1.0  0.6083760348890125  0.019421993429311595  0.8182684639872235  1.0000
  H   H5        1.0  0.7620395356625594  0.3543498160738636  0.5076823200774426  1.0000
  H   H6        1.0  0.7379794041825393  0.8543482241712252  0.4923159902107485  1.0000
  H   H7        1.0  0.23795728691218446  0.645650855985714  0.49231316461063557  1.0000
  H   H8        1.0  0.26204836018553834  0.14565158870053807  0.5076813932424996  1.0000
  H   H9        1.0  0.9562187623255625  0.21752905278735565  0.6217044924635499  1.0000
  H   H10       1.0  0.5437999509500743  0.7175203557194364  0.37830608379618974  1.0000
  H   H11       1.0  0.04377660640419381  0.7824690413466298  0.3782916674877796  1.0000
  H   H12       1.0  0.45621771160575975  0.2824803164038413  0.6216989499589972  1.0000
  H   H13       1.0  0.025222724861834  0.6685172866522677  0.7950095065404594  1.0000
  H   H14       1.0  0.4747586562539682  0.16849766891286316  0.20499133763232885  1.0000
  H   H15       1.0  0.9747623549310804  0.3314842446652051  0.20498699498084955  1.0000
  H   H16       1.0  0.5252369557257596  0.831496128672768  0.7950143236721201  1.0000
  H   H17       1.0  0.9657792261526909  0.7217913411207205  0.6732629812318718  1.0000
  H   H18       1.0  0.5341981771327013  0.22176863567113259  0.32673871478190347  1.0000
  H   H19       1.0  0.03420158584738431  0.27821534600601444  0.3267392004212794  1.0000
  H   H20       1.0  0.4658032500853082  0.778224302636481  0.6732642454883757  1.0000
  H   H21       1.0  0.7760270325032225  0.6875170210410674  0.7478904853454222  1.0000
  H   H22       1.0  0.7239406850263139  0.18750985043801197  0.25211172325655434  1.0000
  H   H23       1.0  0.2239566495700913  0.31248021373443186  0.2521088840603126  1.0000
  H   H24       1.0  0.2760503784682342  0.8124925402017386  0.7478886550825408  1.0000
  C   C1        1.0  0.0261701284585953  0.45917922197564565  0.7492701790899048  1.0000
  C   C2        1.0  0.47383935410893946  0.9591598033313957  0.2507348500585067  1.0000
  C   C3        1.0  0.9738281479175444  0.54082059078479  0.25072463034071996  1.0000
  C   C4        1.0  0.526172380859734  0.0408374315470397  0.7492684995015182  1.0000
  C   C5        1.0  0.9194045470570273  0.5404104909031489  0.6923267526933896  1.0000
  C   C6        1.0  0.5805963078670544  0.04040111481478449  0.30767953428377126  1.0000
  C   C7        1.0  0.08057618994933341  0.45958588455476246  0.30767250548608155  1.0000
  C   C8        1.0  0.4194359863358628  0.9595952608412973  0.6923224012533991  1.0000
  C   C9        1.0  0.824375184231208  0.5004757528125552  0.6030535680481391  1.0000
  C   C10       1.0  0.6756304728592184  0.0004676398032615  0.3969501523784443  1.0000
  C   C11       1.0  0.17560985816294317  0.4995283564261542  0.39694147172330924  1.0000
  C   C12       1.0  0.3244032751341948  0.9995270172474946  0.6030511079027149  1.0000
  C   C13       1.0  0.8368934264891478  0.3848776901439876  0.5761344278811861  1.0000
  C   C14       1.0  0.6631336877827254  0.8848680392486087  0.4238655194274514  1.0000
  C   C15       1.0  0.16312099158076881  0.6151247006017259  0.42385880067921977  1.0000
  C   C16       1.0  0.3368882800409949  0.11513091428746239  0.5761352959356286  1.0000
  C   C17       1.0  0.9429073519710446  0.3087984590564473  0.6365620552848766  1.0000
  C   C18       1.0  0.5571048414849714  0.80878562800401  0.36344787993310484  1.0000
  C   C19       1.0  0.05708663779842741  0.6911987757589485  0.3634377034178441  1.0000
  C   C20       1.0  0.44292012752018917  0.19121160692706948  0.6365552392788628  1.0000
  C   C21       1.0  0.9225730045328719  0.661483236082219  0.7290793098725955  1.0000
  C   C22       1.0  0.5774101753263282  0.16146280635738458  0.2709206746863656  1.0000
  C   C23       1.0  0.077413566471094  0.33851571732107294  0.2709179781396712  1.0000
  C   C24       1.0  0.4225912145147248  0.8385344284838325  0.7290808238311541  1.0000
  Br  Br1       1.0  0.4460961422705695  0.15004329094857383  0.9916607706721191  1.0000
  Br  Br2       1.0  0.053863874036032725  0.650022358016578  0.0083283940318921  1.0000
  Br  Br3       1.0  0.5538508765895643  0.8499745670220592  0.008343055334591995  1.0000
  Br  Br4       1.0  0.946091586471454  0.34995683123822374  0.9916604173950886  1.0000
  Br  Br5       1.0  0.0030218760624051997  0.9577861857132605  0.853274417974589  1.0000
  Br  Br6       1.0  0.49698896898565453  0.4577789992478145  0.14672774796733273  1.0000
  Br  Br7       1.0  0.9969754330449944  0.042208471168144995  0.14674006941540088  1.0000
  Br  Br8       1.0  0.503003511085936  0.5422388589129525  0.8532704933412842  1.0000
  N   N1        1.0  0.04151648844350581  0.34708370330543653  0.7219153293046857  1.0000
  N   N2        1.0  0.4584961527264896  0.847058901783477  0.2780946850459145  1.0000
  N   N3        1.0  0.9584804277207868  0.6529178280536171  0.2780838097457518  1.0000
  N   N4        1.0  0.5415186208550794  0.15293661448728096  0.7219124301085171  1.0000
  N   N5        1.0  0.7125787067749558  0.5760213466159383  0.5350569684235822  1.0000
  N   N6        1.0  0.7874258844396494  0.07602158581166658  0.4649449246027898  1.0000
  N   N7        1.0  0.2874167555552419  0.4239784661237066  0.46494284588865736  1.0000
  N   N8        1.0  0.21259157224315572  0.9239790863263763  0.5350520695520229  1.0000
  O   O1        1.0  0.15073923891564084  0.276363989643542  0.7760919768288304  1.0000
  O   O2        1.0  0.34927460929436904  0.7763325212861859  0.22392057953992145  1.0000
  O   O3        1.0  0.8492576398716952  0.723641838249108  0.22390570046885463  1.0000
  O   O4        1.0  0.6507373127661964  0.2236595577417333  0.7760900787563967  1.0000
  O   O5        1.0  0.6774361991177216  0.5432036134461029  0.44841063437304735  1.0000
  O   O6        1.0  0.8225808122671128  0.043201216284330705  0.5515918697018802  1.0000
  O   O7        1.0  0.3225621521976337  0.45680221445224584  0.5515870985384907  1.0000
  O   O8        1.0  0.17744253457139084  0.9568028931012477  0.44840534690256817  1.0000
  O   O9        1.0  0.6559480318591115  0.6702689069596203  0.5655519949670449  1.0000
  O   O10       1.0  0.8440442812483584  0.17027486681975287  0.4344512171343807  1.0000
  O   O11       1.0  0.34404886554585096  0.3297291871760493  0.43444641321642047  1.0000
  O   O12       1.0  0.15595278471806748  0.829732679671835  0.5655537688880158  1.0000
