data_image0
_chemical_formula_structural       Zn4H32C24N8Cl8
_chemical_formula_sum              "Zn4 H32 C24 N8 Cl8"
_cell_length_a       5.933625822018694
_cell_length_b       10.271251999869465
_cell_length_c       13.797531812158827
_cell_angle_alpha    89.99852791521492
_cell_angle_beta     89.99987175146903
_cell_angle_gamma    90.0002680647495

_space_group_name_H-M_alt    "P 1"
_space_group_IT_number       1

loop_
  _space_group_symop_operation_xyz
  'x, y, z'

loop_
  _atom_site_type_symbol
  _atom_site_label
  _atom_site_symmetry_multiplicity
  _atom_site_fract_x
  _atom_site_fract_y
  _atom_site_fract_z
  _atom_site_occupancy
  Zn  Zn1       1.0  0.6031066502155725  0.2500013947735766  0.5078808988179446  1.0000
  Zn  Zn2       1.0  0.8968966301858787  0.7499952575771831  0.0078771440982734  1.0000
  Zn  Zn3       1.0  0.3969145056852952  0.7500076376102954  0.4921212604568481  1.0000
  Zn  Zn4       1.0  0.10309419005084663  0.2499933294044397  0.9921221163175248  1.0000
  H   H1        1.0  0.9125399110768343  0.3710392288410987  0.6421702715360027  1.0000
  H   H2        1.0  0.5874323939755898  0.6289634717137107  0.1421611691581646  1.0000
  H   H3        1.0  0.08745700498509022  0.8710347437632964  0.35782378797061654  1.0000
  H   H4        1.0  0.4125489599731084  0.12896796404823624  0.8578280717866207  1.0000
  H   H5        1.0  0.08746776241741831  0.6289844074809  0.35782681423580703  1.0000
  H   H6        1.0  0.41253146132461194  0.3710280361077523  0.8578322931054673  1.0000
  H   H7        1.0  0.9125607802817656  0.12896065866730316  0.6421595274855036  1.0000
  H   H8        1.0  0.5874654546760355  0.8710332797614344  0.1421646655907338  1.0000
  H   H9        1.0  0.8150050373107548  0.35620179098336285  0.2932029767431388  1.0000
  H   H10       1.0  0.6850069955997217  0.6438034556624077  0.7932027810442434  1.0000
  H   H11       1.0  0.18501366025743243  0.8561873875151496  0.7067971631445077  1.0000
  H   H12       1.0  0.31499470951420966  0.14380109092615365  0.206794150187477  1.0000
  H   H13       1.0  0.18502117446747948  0.6437984789734089  0.7068057055181072  1.0000
  H   H14       1.0  0.3149787686881922  0.3561861047404166  0.20680590133994772  1.0000
  H   H15       1.0  0.8150024396804411  0.14381288257972363  0.29320282191431346  1.0000
  H   H16       1.0  0.6849910548559707  0.8561991792434328  0.7931993119814038  1.0000
  H   H17       1.0  0.7896452706724235  0.5267986444335834  0.2729934057781591  1.0000
  H   H18       1.0  0.710376970385305  0.4732092508259171  0.7729978773003197  1.0000
  H   H19       1.0  0.21037565287742416  0.0267721155029434  0.7269992278169469  1.0000
  H   H20       1.0  0.2896410471629309  0.9732098201345353  0.2269978630435787  1.0000
  H   H21       1.0  0.21036577336073495  0.47320844076774204  0.7270080287531188  1.0000
  H   H22       1.0  0.28962733232322085  0.5267803096633373  0.22700718123765282  1.0000
  H   H23       1.0  0.7896235939173696  0.9732145244202931  0.2729935097071774  1.0000
  H   H24       1.0  0.7103598850129418  0.026788503035533  0.772986177160874  1.0000
  H   H25       1.0  0.5764698586324927  0.4401534724985938  0.3381567201282678  1.0000
  H   H26       1.0  0.9235267922600131  0.5598404778047483  0.8381571472098203  1.0000
  H   H27       1.0  0.4235495601707272  0.9401392877962497  0.6618425480373845  1.0000
  H   H28       1.0  0.07645565314345501  0.059844909530788505  0.16183920636706256  1.0000
  H   H29       1.0  0.4235310735162159  0.559847771155596  0.6618439896965215  1.0000
  H   H30       1.0  0.07644548953273761  0.4401422675561548  0.1618450123404287  1.0000
  H   H31       1.0  0.5764699103641391  0.059855140768611606  0.3381567123079137  1.0000
  H   H32       1.0  0.9235183140845535  0.9401573079570584  0.8381455585817508  1.0000
  C   C1        1.0  0.8801644005801352  0.47510635849930344  0.41702323349131387  1.0000
  C   C2        1.0  0.6198453571004096  0.5249023788512233  0.91702681650451  1.0000
  C   C3        1.0  0.11984520670077364  0.9751087441640967  0.5829818927379337  1.0000
  C   C4        1.0  0.38017049431617533  0.02489960965316131  0.082971651066579  1.0000
  C   C5        1.0  0.11985001413165723  0.524916304101737  0.5829818247266375  1.0000
  C   C6        1.0  0.3801437778307746  0.47509010240478505  0.0829775172462988  1.0000
  C   C7        1.0  0.8801405577356295  0.024924627550973404  0.4170434588777923  1.0000
  C   C8        1.0  0.6198456056549659  0.9751035813660995  0.9170196367567627  1.0000
  C   C9        1.0  0.9529489945036577  0.4289875613474835  0.5782242045502528  1.0000
  C   C10       1.0  0.5470286711265899  0.5710105437545184  0.078213347323242  1.0000
  C   C11       1.0  0.04704504873356541  0.928977833132699  0.4217774502273741  1.0000
  C   C12       1.0  0.4529521850008181  0.07102752281929271  0.9217755460439037  1.0000
  C   C13       1.0  0.0470367698410072  0.5710224442429849  0.4217975234511044  1.0000
  C   C14       1.0  0.4529537225400518  0.42897317527326356  0.921785188375928  1.0000
  C   C15       1.0  0.9529777924025498  0.07100491256910861  0.5782087644156917  1.0000
  C   C16       1.0  0.5470487472343423  0.9289854041928013  0.0782099435563097  1.0000
  C   C17       1.0  0.7580250211307274  0.4486611676477211  0.3251766867181942  1.0000
  C   C18       1.0  0.7419818034897574  0.5513400483159077  0.8251796393775663  1.0000
  C   C19       1.0  0.2419961560441665  0.948645097769806  0.6748311168835955  1.0000
  C   C20       1.0  0.25801742197457145  0.05134546391977322  0.1748241235047061  1.0000
  C   C21       1.0  0.24198265227616395  0.551344943945601  0.6748254725914079  1.0000
  C   C22       1.0  0.25800901670951504  0.4486446441501855  0.1748283182829695  1.0000
  C   C23       1.0  0.7580199438409849  0.051349330576940105  0.32518046450771726  1.0000
  C   C24       1.0  0.7419784542444035  0.9486499383698048  0.825165714868632  1.0000
  N   N1        1.0  0.834827377097888  0.4046061972872509  0.4974136678685284  1.0000
  N   N2        1.0  0.6651769416365029  0.5953968289677437  0.99740934001386  1.0000
  N   N3        1.0  0.16517488324835483  0.9046056468520906  0.5025964229118643  1.0000
  N   N4        1.0  0.33483108890911956  0.09540355013603372  0.0025812639910541  1.0000
  N   N5        1.0  0.1651651285331113  0.5954047822048169  0.5025906657046377  1.0000
  N   N6        1.0  0.3348256757980224  0.40459954670770065  0.002592819390955  1.0000
  N   N7        1.0  0.8348277341927287  0.09539949091725221  0.497418782221196  1.0000
  N   N8        1.0  0.665174899243759  0.9046084032284369  0.9974078494523226  1.0000
  Cl  Cl1       1.0  0.3138537363632353  0.2500037708185516  0.4059200600176709  1.0000
  Cl  Cl2       1.0  0.18614357292994305  0.7500021356065363  0.9059156692766308  1.0000
  Cl  Cl3       1.0  0.686158992933102  0.7499935784357207  0.5940835489072286  1.0000
  Cl  Cl4       1.0  0.8138489326636886  0.2499981344458178  0.094085040561815  1.0000
  Cl  Cl5       1.0  0.508053096343673  0.24999562558969762  0.6650496384977984  1.0000
  Cl  Cl6       1.0  0.9919359527585457  0.7500004391392283  0.16504795873796496  1.0000
  Cl  Cl7       1.0  0.49194615047812834  0.7500017236977714  0.3349510713648982  1.0000
  Cl  Cl8       1.0  0.008048126284911904  0.2500008044684137  0.834954200630243  1.0000
