data_image0
_chemical_formula_structural       Zn4H24C82N10O28F12
_chemical_formula_sum              "Zn4 H24 C82 N10 O28 F12"
_cell_length_a       13.246310821120634
_cell_length_b       13.877512917639462
_cell_length_c       28.531875814316468
_cell_angle_alpha    89.83951160372867
_cell_angle_beta     89.77879021806227
_cell_angle_gamma    89.84068292195228

_space_group_name_H-M_alt    "P 1"
_space_group_IT_number       1

loop_
  _space_group_symop_operation_xyz
  'x, y, z'

loop_
  _atom_site_type_symbol
  _atom_site_label
  _atom_site_symmetry_multiplicity
  _atom_site_fract_x
  _atom_site_fract_y
  _atom_site_fract_z
  _atom_site_occupancy
  Zn  Zn1       1.0  0.5094723709194113  0.4029149750872704  0.4966114300870999  1.0000
  Zn  Zn2       1.0  0.48760071029142443  0.6055049052991919  0.5015063097439381  1.0000
  Zn  Zn3       1.0  0.5096291881440678  0.5977172977995336  0.037268375782353806  1.0000
  Zn  Zn4       1.0  0.48898571259945806  0.3952557259852867  0.0324388178649926  1.0000
  H   H1        1.0  0.39949031833998555  0.25814616511969757  0.5472995553258571  1.0000
  H   H2        1.0  0.6220987414781334  0.24457818743037052  0.44487910075507403  1.0000
  H   H3        1.0  0.599759105672227  0.7497718991310904  0.45055982244163323  1.0000
  H   H4        1.0  0.3766395888293133  0.7636458614612848  0.5526876607495481  1.0000
  H   H5        1.0  0.5069001595546183  0.6245586476350624  0.18961498346932615  1.0000
  H   H6        1.0  0.4975451020313812  0.3170306623045959  0.17719274944467864  1.0000
  H   H7        1.0  0.5071202435644651  0.3748274729677873  0.34425508187568  1.0000
  H   H8        1.0  0.497638893732109  0.6823863667711618  0.3566910306412369  1.0000
  H   H9        1.0  0.4987602079358099  0.6537877400024569  0.6475243765448866  1.0000
  H   H10       1.0  0.49991078810378303  0.34421939823040754  0.6480997062633167  1.0000
  H   H11       1.0  0.49731478139037216  0.34570385445424984  0.8863808786326146  1.0000
  H   H12       1.0  0.5040353284901612  0.6551976619776739  0.8857942475214458  1.0000
  H   H13       1.0  0.8343203483827042  0.37354215118913453  0.499843051478166  1.0000
  H   H14       1.0  0.8025708169652859  0.680881781842949  0.4987830740535132  1.0000
  H   H15       1.0  0.16334700413331404  0.6260621481656797  0.5017847309137835  1.0000
  H   H16       1.0  0.1955039731431327  0.31886629184810994  0.4979283589743559  1.0000
  H   H17       1.0  0.3997911892053736  0.743286725830046  0.9868570286934786  1.0000
  H   H18       1.0  0.6223206358283805  0.7552765556929727  0.0885417846668943  1.0000
  H   H19       1.0  0.6009092300796867  0.25023795860708725  0.0829783057988038  1.0000
  H   H20       1.0  0.3787918676227591  0.2380143153226157  0.9811625657004015  1.0000
  H   H21       1.0  0.834403147263835  0.6281243826848593  0.03445510140698361  1.0000
  H   H22       1.0  0.8044436861995051  0.320795548107739  0.03562460831191319  1.0000
  H   H23       1.0  0.16503337834394224  0.375690275162313  0.03311910363721181  1.0000
  H   H24       1.0  0.19515980614377076  0.6829149534228235  0.03683372622683831  1.0000
  C   C1        1.0  0.49809984445310107  0.5003687535993394  0.5906459607136371  1.0000
  C   C2        1.0  0.30209345510402846  0.48637856382180883  0.49927791206756217  1.0000
  C   C3        1.0  0.500138150344732  0.5173921343639732  0.4076083457091856  1.0000
  C   C4        1.0  0.6958274363520688  0.5144245675302345  0.4980112061480497  1.0000
  C   C5        1.0  0.49935794443410236  0.4992126351061756  0.9432494656031523  1.0000
  C   C6        1.0  0.3028654670874574  0.5154313358383716  0.0351668286317732  1.0000
  C   C7        1.0  0.5002081214132801  0.48200714088896757  0.1262762111024003  1.0000
  C   C8        1.0  0.6967010066193849  0.487260011473289  0.0357636197282218  1.0000
  C   C9        1.0  0.44600284102677534  0.21125016992054668  0.525563257835806  1.0000
  C   C10       1.0  0.43836017541179473  0.11075102220438279  0.5278998549155816  1.0000
  C   C11       1.0  0.3702416444722303  0.0615521592520878  0.5586307286747855  1.0000
  C   C12       1.0  0.5717281084967425  0.20380951901939426  0.4677149536249915  1.0000
  C   C13       1.0  0.5701307210155946  0.1027284935140287  0.46737615931440507  1.0000
  C   C14       1.0  0.633400013451741  0.04519651060984838  0.4378112805079867  1.0000
  C   C15       1.0  0.553131458374814  0.796816771307391  0.4721830392139311  1.0000
  C   C16       1.0  0.5605929019449647  0.8973440560162869  0.46964907145556384  1.0000
  C   C17       1.0  0.6287349013830265  0.9465184224247025  0.43891571560482134  1.0000
  C   C18       1.0  0.42714605483370605  0.8044308492743893  0.5299135975513352  1.0000
  C   C19       1.0  0.4287164562236754  0.90544817970418  0.5301329558408199  1.0000
  C   C20       1.0  0.36559749293545  0.9629395733786056  0.5597536695423173  1.0000
  C   C21       1.0  0.5017805634467222  0.054894316470139884  0.4981540619171413  1.0000
  C   C22       1.0  0.496958776951857  0.9532422603923435  0.49929077317574416  1.0000
  C   C23       1.0  0.5056983316054513  0.5543704146629409  0.20653210470067765  1.0000
  C   C24       1.0  0.5013006144404316  0.38061866405698913  0.19929267814237056  1.0000
  C   C25       1.0  0.5054339064475429  0.3713017009386731  0.24721137757619976  1.0000
  C   C26       1.0  0.5078453193760808  0.45258717391714504  0.2778530267363664  1.0000
  C   C27       1.0  0.5058662889269385  0.44501124558919253  0.3273314011319854  1.0000
  C   C28       1.0  0.5014485987640641  0.618785169376238  0.3345746976957217  1.0000
  C   C29       1.0  0.5055418796663956  0.6280758081075675  0.2866415961519166  1.0000
  C   C30       1.0  0.5078299787133886  0.5467690910804562  0.2559987325069102  1.0000
  C   C31       1.0  0.5024212217769275  0.4730906810879035  0.17874422250840644  1.0000
  C   C32       1.0  0.5025995664048182  0.5263190934648634  0.35513038536427644  1.0000
  C   C33       1.0  0.4991400499796228  0.5867707251384572  0.6673640231132298  1.0000
  C   C34       1.0  0.5001722495171067  0.5881007410408472  0.7164151724184862  1.0000
  C   C35       1.0  0.501281806676353  0.6757913449344813  0.7426127443991177  1.0000
  C   C36       1.0  0.49950559455285776  0.4114985308556173  0.667599891978881  1.0000
  C   C37       1.0  0.49939576454441703  0.4107661730602317  0.7167332989501745  1.0000
  C   C38       1.0  0.498651583604655  0.3233701750940483  0.7433955463075251  1.0000
  C   C39       1.0  0.49864487406728136  0.41271615392361133  0.8665417429865201  1.0000
  C   C40       1.0  0.4991369101251165  0.4113764411723864  0.8174854742758484  1.0000
  C   C41       1.0  0.49835423115312943  0.3236894019588378  0.7912778645806996  1.0000
  C   C42       1.0  0.5021892098763773  0.587957987509199  0.8662850187947343  1.0000
  C   C43       1.0  0.5016369517332607  0.5886948118842097  0.8171538211945589  1.0000
  C   C44       1.0  0.5021735433906542  0.6760843730662955  0.7904912398924397  1.0000
  C   C45       1.0  0.4989601578506822  0.49908890833930997  0.6432628252281347  1.0000
  C   C46       1.0  0.4999514830848285  0.49954591381448665  0.7420792578388955  1.0000
  C   C47       1.0  0.5001904189589936  0.5004063454228174  0.890632131922537  1.0000
  C   C48       1.0  0.5002417369010247  0.49991884125799396  0.7918145887325423  1.0000
  C   C49       1.0  0.8697801705028141  0.44400365407520337  0.49986361827723874  1.0000
  C   C50       1.0  0.8513178173075885  0.6177061909608669  0.4994310395201609  1.0000
  C   C51       1.0  0.9544136728881228  0.6277980650814429  0.501307870749983  1.0000
  C   C52       1.0  0.021613982040655302  0.5470066796967856  0.501939327519132  1.0000
  C   C53       1.0  0.1279756567840664  0.5555884602974218  0.5011422535693271  1.0000
  C   C54       1.0  0.1467943800028806  0.3820310950060204  0.4992665360967692  1.0000
  C   C55       1.0  0.0435897524261719  0.3717358227187617  0.5006404034089584  1.0000
  C   C56       1.0  0.9761653089125416  0.4523966823313259  0.5014463971521437  1.0000
  C   C57       1.0  0.808643120031711  0.5248427986335145  0.4988954378321894  1.0000
  C   C58       1.0  0.18935263674752892  0.4749607141134291  0.4998282441568591  1.0000
  C   C59       1.0  0.44653829903450054  0.789851038758833  0.0083751067084421  1.0000
  C   C60       1.0  0.4394785081101277  0.8904138270881461  0.005906171460573302  1.0000
  C   C61       1.0  0.3717738849393726  0.9401115876404872  0.9752777028558981  1.0000
  C   C62       1.0  0.5721060680228832  0.7964127991576858  0.0658525604582181  1.0000
  C   C63       1.0  0.5709494324493888  0.8975113699276774  0.06609628331973032  1.0000
  C   C64       1.0  0.6342420759816108  0.9545798825602888  0.0954858862693655  1.0000
  C   C65       1.0  0.5546060510277258  0.20352998588124652  0.0613316533289847  1.0000
  C   C66       1.0  0.5620063731991466  0.10294776097386922  0.0637737152963993  1.0000
  C   C67       1.0  0.6298154554910981  0.053288160862621205  0.09437774014351423  1.0000
  C   C68       1.0  0.42909750484603393  0.19684444489712405  0.0038057915929244003  1.0000
  C   C69       1.0  0.43059896635908507  0.0958158447369328  0.0035200716623933004  1.0000
  C   C70       1.0  0.367503730800351  0.03875316549766689  0.9740725823422879  1.0000
  C   C71       1.0  0.5029989458689386  0.9458431956683311  0.0354241344441633  1.0000
  C   C72       1.0  0.4985206282432841  0.04753288269819931  0.0342318511362194  1.0000
  C   C73       1.0  0.8702746115995267  0.5576671936919483  0.03452158207169731  1.0000
  C   C74       1.0  0.8528240550191697  0.38396620200097686  0.034998514695523404  1.0000
  C   C75       1.0  0.9560534733173894  0.37386823744212444  0.03355013645991531  1.0000
  C   C76       1.0  0.022791940229637896  0.45466433180376237  0.0329364298001664  1.0000
  C   C77       1.0  0.1291942654289144  0.4461413808105732  0.0337370680117317  1.0000
  C   C78       1.0  0.1468840447412703  0.6197188487603568  0.035522514796028304  1.0000
  C   C79       1.0  0.0436389129657968  0.6299580147840729  0.0341893941066189  1.0000
  C   C80       1.0  0.9767449352028806  0.5492661837143801  0.033279057889203  1.0000
  C   C81       1.0  0.8095860056034496  0.47681639153192634  0.0352377991635393  1.0000
  C   C82       1.0  0.1900468359990128  0.5268066325579497  0.03490451860331941  1.0000
  N   N1        1.0  0.5109895627084243  0.25480845734944774  0.4961641688305605  1.0000
  N   N2        1.0  0.48801371218096534  0.7534193320854142  0.5015472276062383  1.0000
  N   N3        1.0  0.511207956064233  0.7458356045450288  0.0376478195270593  1.0000
  N   N4        1.0  0.48973678587423564  0.2473723039234201  0.0321196616919934  1.0000
  N   N5        1.0  0.5073004010563197  0.7280490487071916  0.2684872905027404  1.0000
  N   N6        1.0  0.5070854202786208  0.27132697852891846  0.2653611104963645  1.0000
  N   N7        1.0  0.006017584141432101  0.27142822165290426  0.5013126697786561  1.0000
  N   N8        1.0  0.9920446073822831  0.7279892174050033  0.5029456119869522  1.0000
  N   N9        1.0  0.0054022856791391  0.7302539364465234  0.0335574456116561  1.0000
  N   N10       1.0  0.9943015362160281  0.273653646361069  0.03241312213204851  1.0000
  O   O1        1.0  0.5055843616266813  0.4203238103352263  0.5692437209908832  1.0000
  O   O2        1.0  0.48991734612909715  0.583120141787944  0.5714355153289006  1.0000
  O   O3        1.0  0.33624801650144326  0.5718325842783969  0.5000176110289658  1.0000
  O   O4        1.0  0.353730050951235  0.4089532492933755  0.49814757862607456  1.0000
  O   O5        1.0  0.49296516517189554  0.5963287892274562  0.4299926630468391  1.0000
  O   O6        1.0  0.5053401312864452  0.4333494458948833  0.4252113833974605  1.0000
  O   O7        1.0  0.6609660194304042  0.4291550465218706  0.49591241703626576  1.0000
  O   O8        1.0  0.6448146966328991  0.5919904813217444  0.4996773191920951  1.0000
  O   O9        1.0  0.5077636585473613  0.5791041193030894  0.9646383085831046  1.0000
  O   O10       1.0  0.4900973687511012  0.41659414168589853  0.9624791935942696  1.0000
  O   O11       1.0  0.3375847615151386  0.4299994077405884  0.0349341503630072  1.0000
  O   O12       1.0  0.35402803612195305  0.5929116465475773  0.0355278320819039  1.0000
  O   O13       1.0  0.4947392733638907  0.40296807236876475  0.1039169019839292  1.0000
  O   O14       1.0  0.5040169624650019  0.56607240745997  0.10863634309670542  1.0000
  O   O15       1.0  0.661380859002577  0.5725013120455741  0.03833623893631002  1.0000
  O   O16       1.0  0.6461026599882304  0.40980828129232794  0.0334399444212679  1.0000
  O   O17       1.0  0.5578174971337049  0.7450180740529292  0.2326511264696407  1.0000
  O   O18       1.0  0.4595896802314384  0.78941551724305  0.2910286665041255  1.0000
  O   O19       1.0  0.5577588373617672  0.254050359687362  0.30096473718584354  1.0000
  O   O20       1.0  0.45912945147144063  0.210274002250415  0.24306537099042205  1.0000
  O   O21       1.0  0.9278709138282509  0.2537138704904081  0.5238982188445931  1.0000
  O   O22       1.0  0.0567006990691112  0.21046628220716454  0.47990320613746473  1.0000
  O   O23       1.0  0.06835712541931119  0.7449054321900023  0.526667403959543  1.0000
  O   O24       1.0  0.9430896530911285  0.7896466104444927  0.4811452148776852  1.0000
  O   O25       1.0  0.9280000041322866  0.748071947343483  0.0106453286774766  1.0000
  O   O26       1.0  0.054839396160723204  0.7910735827704158  0.0553214746647512  1.0000
  O   O27       1.0  0.0716400347596604  0.2563549212851015  0.009132469292033802  1.0000
  O   O28       1.0  0.9448531613322899  0.21233149907896373  0.0541954680519083  1.0000
  F   F1        1.0  0.3011700536033359  0.9182901011947066  0.5891747634039178  1.0000
  F   F2        1.0  0.31010700969579114  0.11428030118312188  0.5869031156486315  1.0000
  F   F3        1.0  0.6889307698720586  0.8937501973379514  0.4107641592527075  1.0000
  F   F4        1.0  0.6983176248166032  0.08974476679718889  0.4086508414434107  1.0000
  F   F5        1.0  0.5032743155225673  0.7610296574210269  0.8138586463269847  1.0000
  F   F6        1.0  0.5015163047433476  0.7604735781789387  0.7187780329773688  1.0000
  F   F7        1.0  0.49734210764517434  0.23902315243074673  0.8151254965570516  1.0000
  F   F8        1.0  0.49794191338092025  0.2384067600328592  0.7200355249165824  1.0000
  F   F9        1.0  0.3033257538262006  0.0838227517285688  0.9447897107986591  1.0000
  F   F10       1.0  0.31148962191750945  0.8877847212304174  0.9472536249144241  1.0000
  F   F11       1.0  0.6898821868095767  0.10565611392282648  0.1224119920151381  1.0000
  F   F12       1.0  0.698818686430812  0.9095168781362019  0.1245174586440214  1.0000
