data_image0
_chemical_formula_structural       Cu6H28C30Br6N12
_chemical_formula_sum              "Cu6 H28 C30 Br6 N12"
_cell_length_a       8.319168065041291
_cell_length_b       10.751047132238476
_cell_length_c       11.11011457631415
_cell_angle_alpha    81.16312308400082
_cell_angle_beta     85.96770206790073
_cell_angle_gamma    69.61779029650083

_space_group_name_H-M_alt    "P 1"
_space_group_IT_number       1

loop_
  _space_group_symop_operation_xyz
  'x, y, z'

loop_
  _atom_site_type_symbol
  _atom_site_label
  _atom_site_symmetry_multiplicity
  _atom_site_fract_x
  _atom_site_fract_y
  _atom_site_fract_z
  _atom_site_occupancy
  Cu  Cu1       1.0  0.666860475892534  0.514195289919982  0.19853404710941894  1.0000
  Cu  Cu2       1.0  0.3331374345548709  0.4858088676766811  0.801467115887746  1.0000
  Cu  Cu3       1.0  0.4834736450179379  0.6391779061263063  0.46277816128762334  1.0000
  Cu  Cu4       1.0  0.5165249140832698  0.36081923846626296  0.5372213172529497  1.0000
  Cu  Cu5       1.0  0.3560680965072009  0.575247422167429  0.10590569992341159  1.0000
  Cu  Cu6       1.0  0.6439352936772594  0.4247497229490447  0.8940953074824164  1.0000
  H   H1        1.0  0.5520319440141961  0.7896751525913358  0.023754945413926996  1.0000
  H   H2        1.0  0.44797482883998907  0.21032800495267162  0.9762440698776441  1.0000
  H   H3        1.0  0.5859171522649833  0.9929117017857291  0.8967905158570202  1.0000
  H   H4        1.0  0.4140909101938205  0.007088450973356  0.10320437741675899  1.0000
  H   H5        1.0  0.8663349934386984  0.020355543300127  0.8628800909179899  1.0000
  H   H6        1.0  0.13367439283588572  0.9796416036950075  0.13711607910751406  1.0000
  H   H7        1.0  0.1331128192502789  0.8438298182131019  0.9492013046469053  1.0000
  H   H8        1.0  0.8668938367091243  0.15616532424733262  0.050796219521487315  1.0000
  H   H9        1.0  0.8697870765770973  0.1449269592947502  0.4481780182316867  1.0000
  H   H10       1.0  0.13020776597414138  0.8550731901471309  0.551823018304219  1.0000
  H   H11       1.0  0.049598760917227556  0.9486431751396649  0.3468098066901106  1.0000
  H   H12       1.0  0.9504017857580249  0.0513549712554422  0.6531921102206582  1.0000
  H   H13       1.0  0.9185816497962023  0.8177024368714427  0.24970471419090484  1.0000
  H   H14       1.0  0.08141572719255663  0.18229470685588467  0.7502984312104882  1.0000
  H   H15       1.0  0.5999380340822071  0.8750967009443753  0.24808225304330728  1.0000
  H   H16       1.0  0.4000600970514085  0.12490144518878307  0.751918899434834  1.0000
  H   H17       1.0  0.21171262473666275  0.3440849802207565  0.17295784476718265  1.0000
  H   H18       1.0  0.7882862719455302  0.655914167991881  0.8270431143775523  1.0000
  H   H19       1.0  0.003965089555038007  0.35079655837558477  0.23233205678631913  1.0000
  H   H20       1.0  0.9960332545618158  0.6492065975173203  0.7676683320681973  1.0000
  H   H21       1.0  0.033953127800735776  0.5010607397530932  0.38229274601905416  1.0000
  H   H22       1.0  0.9660453352120155  0.49893941016330245  0.6177089872683295  1.0000
  H   H23       1.0  0.24980987385270476  0.467380998944421  0.3333997533979981  1.0000
  H   H24       1.0  0.7501902277493783  0.5326181494807825  0.6666011380655873  1.0000
  H   H25       1.0  0.19754715507296794  0.32692496059943466  0.5291156442261736  1.0000
  H   H26       1.0  0.8024521695768101  0.6730731860726279  0.47088364098097896  1.0000
  H   H27       1.0  0.1012958097987777  0.2471613998104799  0.4411281460119269  1.0000
  H   H28       1.0  0.8987002376723368  0.7528387498439598  0.5588728228428222  1.0000
  C   C1        1.0  0.9896717601070788  0.7170908817356078  0.034596644738108764  1.0000
  C   C2        1.0  0.010331066108321383  0.2829102713874718  0.9654019927876616  1.0000
  C   C3        1.0  0.8260415628208833  0.702771376510199  0.05640008604407143  1.0000
  C   C4        1.0  0.1739624911218414  0.2972297761727631  0.9436020829802342  1.0000
  C   C5        1.0  0.6764366162478839  0.8019092107224918  0.007177763397258746  1.0000
  C   C6        1.0  0.32356664933882234  0.19809094053366036  0.9928209997807825  1.0000
  C   C7        1.0  0.6972329425861968  0.9135639169338249  0.9375847817537346  1.0000
  C   C8        1.0  0.3027719444842631  0.08643523332064969  0.06241044021574987  1.0000
  C   C9        1.0  0.8599032677256131  0.9289570154756605  0.9174383269346292  1.0000
  C   C10       1.0  0.1401024019990018  0.07104313636879309  0.08255940108620047  1.0000
  C   C11       1.0  0.008196391633660446  0.8323432832150033  0.9648021703215047  1.0000
  C   C12       1.0  0.9918075320094529  0.16766087577081373  0.03519685468009469  1.0000
  C   C13       1.0  0.5566536578833164  0.04684336020713431  0.3437999819151755  1.0000
  C   C14       1.0  0.4433420634105334  0.9531547855008918  0.6562013059252649  1.0000
  C   C15       1.0  0.6334053420686485  0.12112062009019546  0.40195834481092146  1.0000
  C   C16       1.0  0.3665911447737855  0.8788785276973169  0.5980427496960984  1.0000
  C   C17       1.0  0.8124065888865813  0.08699852360013689  0.40468342431996257  1.0000
  C   C18       1.0  0.18758824226093648  0.9130016261680822  0.5953158126260972  1.0000
  C   C19       1.0  0.91016569638392  0.9782192169525602  0.34829853101135905  1.0000
  C   C20       1.0  0.08983306999866161  0.021782937562932096  0.6516992841106626  1.0000
  C   C21       1.0  0.8341674296667417  0.9029168493041907  0.29163061432112863  1.0000
  C   C22       1.0  0.1658313481195606  0.09708530488496339  0.708369000390732  1.0000
  C   C23       1.0  0.6583077775980968  0.934575765922524  0.2888395026793019  1.0000
  C   C24       1.0  0.3416911247859602  0.06542338212694429  0.7111623562603454  1.0000
  C   C25       1.0  0.09796988032794468  0.402524000208615  0.22201220646248732  1.0000
  C   C26       1.0  0.9020285826848067  0.5974761497077807  0.7779895268248962  1.0000
  C   C27       1.0  0.14489217538564245  0.42631794791240185  0.3448402238057965  1.0000
  C   C28       1.0  0.8551062876271087  0.5736822020039936  0.6551615094815871  1.0000
  C   C29       1.0  0.19285316135275113  0.3001133978219102  0.4383938402966975  1.0000
  C   C30       1.0  0.8071449583771437  0.6998847486375864  0.5616055125916047  1.0000
  Br  Br1       1.0  0.3813835970217099  0.7222893265017659  0.2467301021290068  1.0000
  Br  Br2       1.0  0.6186152882567626  0.27770982203721667  0.753269057425882  1.0000
  Br  Br3       1.0  0.7351125458838158  0.4418676246692142  0.42153628568622276  1.0000
  Br  Br4       1.0  0.26488800079143004  0.5581305217258857  0.578465631224553  1.0000
  Br  Br5       1.0  0.5709559307622598  0.35108054406601497  0.12572258552798837  1.0000
  Br  Br6       1.0  0.4290461356064199  0.6489196068144095  0.8742771451261218  1.0000
  N   N1        1.0  0.8477467425389165  0.5828525468362711  0.1277169113733834  1.0000
  N   N2        1.0  0.15225160157793743  0.41715060905663376  0.8722834774811329  1.0000
  N   N3        1.0  0.018124412374902518  0.5292202226573011  0.14483022233235224  1.0000
  N   N4        1.0  0.9818752498558748  0.47077992763482973  0.8551705434789695  1.0000
  N   N5        1.0  0.10884190313291948  0.6052091927519143  0.09247324590725012  1.0000
  N   N6        1.0  0.8911594033890465  0.394789955885855  0.9075275778751928  1.0000
  N   N7        1.0  0.5040560013322235  0.22175548666441353  0.4471699109478349  1.0000
  N   N8        1.0  0.49594080598561147  0.7782456652326883  0.5528299647785814  1.0000
  N   N9        1.0  0.36115984565170567  0.2049145291370564  0.414408064623096  1.0000
  N   N10       1.0  0.6388373953355782  0.7950856210562948  0.5855910369606716  1.0000
  N   N11       1.0  0.3828708785604534  0.1035372891950175  0.35327372887000746  1.0000
  N   N12       1.0  0.6171268074999928  0.8964618589682372  0.6467263981609503  1.0000
