data_image0
_chemical_formula_structural       Cu3H22C30S2N20O12
_chemical_formula_sum              "Cu3 H22 C30 S2 N20 O12"
_cell_length_a       8.03122867016474
_cell_length_b       11.818693345437602
_cell_length_c       14.013752319653417
_cell_angle_alpha    104.06625605607546
_cell_angle_beta     104.53509838315854
_cell_angle_gamma    107.68487339378075

_space_group_name_H-M_alt    "P 1"
_space_group_IT_number       1

loop_
  _space_group_symop_operation_xyz
  'x, y, z'

loop_
  _atom_site_type_symbol
  _atom_site_label
  _atom_site_symmetry_multiplicity
  _atom_site_fract_x
  _atom_site_fract_y
  _atom_site_fract_z
  _atom_site_occupancy
  Cu  Cu1       1.0  0.9999705269108505  0.5002414951627329  0.9999223793118761  1.0000
  Cu  Cu2       1.0  0.4963187479682603  0.6811485993146248  0.504879368481106  1.0000
  Cu  Cu3       1.0  0.5038725556434187  0.3187195844059048  0.49500024842888735  1.0000
  H   H1        1.0  0.9570666845847027  0.23306640171019669  0.005414666701419347  1.0000
  H   H2        1.0  0.04296411143605639  0.7668386132051523  0.9945676662369607  1.0000
  H   H3        1.0  0.09849272410678368  0.32099611174157866  0.1194298923744341  1.0000
  H   H4        1.0  0.901426334095234  0.6789387286236205  0.880525548334262  1.0000
  H   H5        1.0  0.30021873816641437  0.5441798354016357  0.8868916529386511  1.0000
  H   H6        1.0  0.6997953623211328  0.4558539981469422  0.11308230877511248  1.0000
  H   H7        1.0  0.6520999570220809  0.6666785023765839  0.9555853216754785  1.0000
  H   H8        1.0  0.34789550418147996  0.3332905442549928  0.04441499009402611  1.0000
  H   H9        1.0  0.6537051873728855  0.7758946267623797  0.2605757312619589  1.0000
  H   H10       1.0  0.3462969765929103  0.22382385411057018  0.7394541401597152  1.0000
  H   H11       1.0  0.27903126677873047  0.7220777567092539  0.6615201409165722  1.0000
  H   H12       1.0  0.720963305678083  0.27793037233625023  0.3384795519437915  1.0000
  H   H13       1.0  0.9565513726224705  0.7095825646461474  0.6584987478283183  1.0000
  H   H14       1.0  0.043452554449814294  0.2904575975401897  0.3415137477053776  1.0000
  H   H15       1.0  0.7782478936897448  0.617406136199861  0.33427429072824577  1.0000
  H   H16       1.0  0.22170277635595426  0.38257227333316013  0.6657239529076335  1.0000
  H   H17       1.0  0.856047272813626  0.09659777334159261  0.4899257190405351  1.0000
  H   H18       1.0  0.1439794582725609  0.9033811871269247  0.5100676673479398  1.0000
  H   H19       1.0  0.06199701953686088  0.07739551933935465  0.7863569121142576  1.0000
  H   H20       1.0  0.93803842631511  0.9226682217876173  0.21366818251373595  1.0000
  H   H21       1.0  0.8075854964085564  0.8549771052933295  0.7255489187447283  1.0000
  H   H22       1.0  0.1925085169882266  0.14506316017294546  0.27447487213131444  1.0000
  C   C1        1.0  0.37975416138298357  0.5975942125630879  0.9702287639174187  1.0000
  C   C2        1.0  0.6202090221560181  0.4025444023236914  0.02973801947902636  1.0000
  C   C3        1.0  0.5732008118359461  0.6655519852049352  0.008673483740281528  1.0000
  C   C4        1.0  0.4268049379181633  0.33441017200150475  0.991335295302534  1.0000
  C   C5        1.0  0.5739022184011731  0.7256681845190085  0.17717591755447867  1.0000
  C   C6        1.0  0.4260715386361155  0.2742490562297633  0.822831816309723  1.0000
  C   C7        1.0  0.3799597295508264  0.6594568208457616  0.1403464671954993  1.0000
  C   C8        1.0  0.619980328413  0.34058234456564657  0.8596275345691853  1.0000
  C   C9        1.0  0.2578011578350612  0.6489710170630473  0.20091101888653637  1.0000
  C   C10       1.0  0.7421825339141321  0.35077856889028425  0.7990968302662511  1.0000
  C   C11       1.0  0.11329703901002122  0.6408066923495283  0.31429974556645135  1.0000
  C   C12       1.0  0.8866455501054914  0.35934041049402043  0.6856960223662868  1.0000
  C   C13       1.0  0.0726333500605563  0.6569423518472065  0.4110633044633262  1.0000
  C   C14       1.0  0.9273388597662161  0.34322025840032205  0.5889586841326491  1.0000
  C   C15       1.0  0.1676361001832021  0.7028950646877377  0.5891924461571136  1.0000
  C   C16       1.0  0.8323347533411932  0.2970760180328824  0.4107998577002619  1.0000
  C   C17       1.0  0.98964514842973  0.6947519869975592  0.5866425879056649  1.0000
  C   C18       1.0  0.010337562225977585  0.3052508793202477  0.4133706671353963  1.0000
  C   C19       1.0  0.8912479899067023  0.6446208613481516  0.40817844861928176  1.0000
  C   C20       1.0  0.1086952300123656  0.35541418952036  0.5918350468467822  1.0000
  C   C21       1.0  0.5498053788272586  0.8723157269484575  0.40735604738780756  1.0000
  C   C22       1.0  0.4502159188107484  0.12782008410535178  0.5926775437748121  1.0000
  C   C23       1.0  0.7027228318646408  0.9278125897810766  0.5125458423867498  1.0000
  C   C24       1.0  0.2973365166362995  0.07223645144958368  0.4874957347449964  1.0000
  C   C25       1.0  0.8472692218559814  0.04561348492719469  0.5449388476003278  1.0000
  C   C26       1.0  0.1527859787258875  0.9544217517182856  0.4550869068556834  1.0000
  C   C27       1.0  0.9592151434986886  0.0320888931303429  0.7065724929156191  1.0000
  C   C28       1.0  0.040840445554209785  0.9679493644267794  0.2934482849957334  1.0000
  C   C29       1.0  0.8184479108797189  0.9117974355730565  0.6747519565937027  1.0000
  C   C30       1.0  0.181634493381182  0.0882315845733359  0.3252641007287239  1.0000
  S   S1        1.0  0.6231454167144362  0.5805564704347291  0.6866352140213863  1.0000
  S   S2        1.0  0.37682051750267936  0.41940166188646805  0.3133442056458976  1.0000
  N   N1        1.0  0.6691792583140524  0.7286826191380839  0.11145700670682852  1.0000
  N   N2        1.0  0.3307923053919168  0.27129165444028297  0.8885546734287288  1.0000
  N   N3        1.0  0.2850235315821052  0.5950185725119326  0.036113230102287716  1.0000
  N   N4        1.0  0.7148456703207701  0.4054296383717357  0.9638113975671418  1.0000
  N   N5        1.0  0.07400146790882896  0.5849233259720633  0.1501949647850509  1.0000
  N   N6        1.0  0.926079529387941  0.41432871798633636  0.8498332444917979  1.0000
  N   N7        1.0  0.9841362250039649  0.5788241977839731  0.21888052083532017  1.0000
  N   N8        1.0  0.015868608676811335  0.4208697343477325  0.7811427807334113  1.0000
  N   N9        1.0  0.2873580030659041  0.6875670725098997  0.3057639881255838  1.0000
  N   N10       1.0  0.7125636736486597  0.3126492807527015  0.6942379751418741  1.0000
  N   N11       1.0  0.20987600478510876  0.6859488203556765  0.5017532917294006  1.0000
  N   N12       1.0  0.7900717430245405  0.3141082555614645  0.49822796181859275  1.0000
  N   N13       1.0  0.85142357432742  0.665599639494161  0.4960344915517681  1.0000
  N   N14       1.0  0.14852794571462624  0.334379840664532  0.5039898094594052  1.0000
  N   N15       1.0  0.45273099488774465  0.7481549449953776  0.3889460266288367  1.0000
  N   N16       1.0  0.5471514373965717  0.25204797629960046  0.6111116268799961  1.0000
  N   N17       1.0  0.6925389134174721  0.8601502049110933  0.5771009412633036  1.0000
  N   N18       1.0  0.3075237686492613  0.13987566780174626  0.4229209076404885  1.0000
  N   N19       1.0  0.9768035879348106  0.0979979608175583  0.6415549787346109  1.0000
  N   N20       1.0  0.023242543858273613  0.9020327911505245  0.35846063728221367  1.0000
  O   O1        1.0  0.5212220507970643  0.9349944365636065  0.35011391554616733  1.0000
  O   O2        1.0  0.47890968469226186  0.0652238487429315  0.6499801954086024  1.0000
  O   O3        1.0  0.048685750633609415  0.3185172430664522  0.045354843485128485  1.0000
  O   O4        1.0  0.9513347405775079  0.6813903422054892  0.9546052005175129  1.0000
  O   O5        1.0  0.5076576338936362  0.644124668732097  0.6349392290423169  1.0000
  O   O6        1.0  0.492388899959785  0.3558534626327443  0.3650239277256233  1.0000
  O   O7        1.0  0.659166298919878  0.49611638385005097  0.6019873968048018  1.0000
  O   O8        1.0  0.3407549006937741  0.5038332971464499  0.39798096141396394  1.0000
  O   O9        1.0  0.5232618019517686  0.5121014847449671  0.7427203880979081  1.0000
  O   O10       1.0  0.4767284491897216  0.487885349985376  0.2572888984101239  1.0000
  O   O11       1.0  0.807862572086769  0.6801478378601259  0.7601759297707814  1.0000
  O   O12       1.0  0.19213342411640608  0.31979036619430445  0.23983536899435623  1.0000
