data_image0
_chemical_formula_structural       Ni2H8C12S4N8
_chemical_formula_sum              "Ni2 H8 C12 S4 N8"
_cell_length_a       5.54653983502899
_cell_length_b       7.090661396863578
_cell_length_c       11.979629282341964
_cell_angle_alpha    90.03683803875795
_cell_angle_beta     90.00716677364646
_cell_angle_gamma    105.7479069642931

_space_group_name_H-M_alt    "P 1"
_space_group_IT_number       1

loop_
  _space_group_symop_operation_xyz
  'x, y, z'

loop_
  _atom_site_type_symbol
  _atom_site_label
  _atom_site_symmetry_multiplicity
  _atom_site_fract_x
  _atom_site_fract_y
  _atom_site_fract_z
  _atom_site_occupancy
  Ni  Ni1       1.0  0.9999955623174657  2.0173411598986415e-06  0.5000002566576782  1.0000
  Ni  Ni2       1.0  0.9999973931889417  2.9192844408007795e-06  0.9999991661712713  1.0000
  H   H1        1.0  0.028101240936337004  0.9182109025544135  0.2500095078430959  1.0000
  H   H2        1.0  0.9719083247727699  0.08179239627101248  0.7499913260678354  1.0000
  H   H3        1.0  0.05324614415857809  0.6085968188047488  0.2503943171757044  1.0000
  H   H4        1.0  0.9467448712766499  0.3914049592801517  0.7496056818411816  1.0000
  H   H5        1.0  0.039180407976459684  0.41919410461748896  0.4302179788843077  1.0000
  H   H6        1.0  0.9558971185582834  0.579568765360058  0.9296776865371967  1.0000
  H   H7        1.0  0.9608196312096027  0.5808077007813066  0.5697811852378792  1.0000
  H   H8        1.0  0.04409600207328171  0.42042862814474796  0.0703231458763938  1.0000
  C   C1        1.0  0.031854077879898995  0.07207568255505238  0.2500697761216344  1.0000
  C   C2        1.0  0.9681459616919953  0.9279261231161015  0.7499302227510256  1.0000
  C   C3        1.0  0.045093630320636215  0.45380536109178143  0.25026695003314364  1.0000
  C   C4        1.0  0.9549036008086561  0.5461935081984561  0.7497322132538358  1.0000
  C   C5        1.0  0.03808566251554169  0.3504671096677683  0.3490604324811387  1.0000
  C   C6        1.0  0.959119799136012  0.6488687420698651  0.8486316805207538  1.0000
  C   C7        1.0  0.9619051512881426  0.6495288127517753  0.6509395647787954  1.0000
  C   C8        1.0  0.04088184363167364  0.35112721345318937  0.15136831656610644  1.0000
  C   C9        1.0  0.4195833699199485  0.8036201274975595  0.43165019685249467  1.0000
  C   C10       1.0  0.5805056116047568  0.19670643040611677  0.9318519756675415  1.0000
  C   C11       1.0  0.5804076462869432  0.1963816511320644  0.5683514716653377  1.0000
  C   C12       1.0  0.41950946578049303  0.8032866381189191  0.0681463508235609  1.0000
  S   S1        1.0  0.6681570409131296  0.7274625568398462  0.4146242436361405  1.0000
  S   S2        1.0  0.33132986976730194  0.2719200117221732  0.9144141503690834  1.0000
  S   S3        1.0  0.3318334736790476  0.2725377564941311  0.5853774244496678  1.0000
  S   S4        1.0  0.668689020061656  0.7280789243198026  0.0855866820726874  1.0000
  N   N1        1.0  0.031428898120189806  0.1595019456142523  0.3491341919474777  1.0000
  N   N2        1.0  0.9668524204906889  0.8400480754286689  0.8488618164000243  1.0000
  N   N3        1.0  0.9685755534759224  0.8404969465620837  0.6508674754755432  1.0000
  N   N4        1.0  0.0331515287190456  0.15994935090728998  0.1511381810900261  1.0000
  N   N5        1.0  0.23851378390262573  0.85949119446407  0.44358361110113254  1.0000
  N   N6        1.0  0.7614637366249113  0.14089563045536116  0.9442740937634184  1.0000
  N   N7        1.0  0.7614880601107714  0.14051061645196933  0.5564155529922061  1.0000
  N   N8        1.0  0.23855104077716052  0.8591018284393782  0.0557242340526116  1.0000
