data_image0
_chemical_formula_structural       Yb2H30C30N2O16
_chemical_formula_sum              "Yb2 H30 C30 N2 O16"
_cell_length_a       8.535811425637467
_cell_length_b       10.264323592274406
_cell_length_c       10.867228662676588
_cell_angle_alpha    62.87511502487151
_cell_angle_beta     70.51655092964357
_cell_angle_gamma    82.67973258316306

_space_group_name_H-M_alt    "P 1"
_space_group_IT_number       1

loop_
  _space_group_symop_operation_xyz
  'x, y, z'

loop_
  _atom_site_type_symbol
  _atom_site_label
  _atom_site_symmetry_multiplicity
  _atom_site_fract_x
  _atom_site_fract_y
  _atom_site_fract_z
  _atom_site_occupancy
  Yb  Yb1       1.0  0.360109067385011  0.5641753449776915  0.3338240065796612  1.0000
  Yb  Yb2       1.0  0.6398912014939029  0.43582560443063306  0.666175767456778  1.0000
  H   H1        1.0  0.7535799806089188  0.3726114160352694  0.0243047478134244  1.0000
  H   H2        1.0  0.24642157701001127  0.6273841145448318  0.9756939539802828  1.0000
  H   H3        1.0  0.04078508392765204  0.3281912184090459  0.8901698807407712  1.0000
  H   H4        1.0  0.959217970965469  0.6718009061283396  0.10983208211805359  1.0000
  H   H5        1.0  0.29954234497881066  0.9640766168924843  0.8971770331901752  1.0000
  H   H6        1.0  0.7004579239001032  0.035924332515840304  0.1028227408462641  1.0000
  H   H7        1.0  0.1482585064098743  0.15667918884976467  0.7386514855494397  1.0000
  H   H8        1.0  0.8517405895177178  0.8433217574587817  0.2613482929665026  1.0000
  H   H9        1.0  0.5331152267322066  0.24959277420920498  0.2939006672237809  1.0000
  H   H10       1.0  0.46688597247855074  0.7504140361039262  0.7060947432274318  1.0000
  H   H11       1.0  0.48381058499656854  0.030522982253891908  0.2642134624540304  1.0000
  H   H12       1.0  0.516189208679897  0.9694823597332632  0.7357830433729902  1.0000
  H   H13       1.0  0.3508289834646802  0.35040378885865664  0.1602972599058745  1.0000
  H   H14       1.0  0.6491660818305292  0.6495962075272674  0.8397068778303023  1.0000
  H   H15       1.0  0.28970240150423626  0.17737402383763615  0.11725443003421529  1.0000
  H   H16       1.0  0.7102959274982795  0.8226259588912019  0.8827475249447473  1.0000
  H   H17       1.0  0.0739394128634174  0.14516532572957896  0.15734474782459526  1.0000
  H   H18       1.0  0.9260586835561426  0.8548331917730538  0.8426582980506722  1.0000
  H   H19       1.0  0.1833328897335207  0.023943366724559212  0.2793137988374284  1.0000
  H   H20       1.0  0.8166666122203167  0.9760566191040496  0.7206881516620243  1.0000
  H   H21       1.0  0.9917625756582639  0.1520492022894047  0.5050477138937737  1.0000
  H   H22       1.0  0.008234347809967214  0.8479493121134498  0.4949553364609899  1.0000
  H   H23       1.0  0.8912692248351276  0.13421938033084763  0.3920909634600847  1.0000
  H   H24       1.0  0.10872528355425702  0.8657825599713578  0.6079109996277765  1.0000
  H   H25       1.0  0.9139557722483219  0.3090621769362302  0.3860731645128297  1.0000
  H   H26       1.0  0.0860425567541939  0.6909378057926076  0.6139287904661259  1.0000
  H   H27       1.0  0.24094087502222544  0.4270333669242491  0.6495111334033083  1.0000
  H   H28       1.0  0.7590583943486564  0.5729651536781618  0.3504919079924562  1.0000
  H   H29       1.0  0.08085125847576081  0.4142001013149537  0.6092346259366579  1.0000
  H   H30       1.0  0.9191483943576629  0.5857989010773113  0.3907673272275929  1.0000
  C   C1        1.0  0.6706805975513462  0.5536053702286735  0.1540608036741418  1.0000
  C   C2        1.0  0.32931933447751754  0.44639310756069533  0.8459378946046812  1.0000
  C   C3        1.0  0.8406472113731169  0.5242817053956301  0.0760776139267421  1.0000
  C   C4        1.0  0.1593560761029736  0.47571188436796064  0.9239232580357849  1.0000
  C   C5        1.0  0.8619931029294604  0.42718201652535015  0.014034228014715202  1.0000
  C   C6        1.0  0.13800832637360125  0.5728130552213033  0.9859677313292252  1.0000
  C   C7        1.0  0.02097767097502879  0.403877348591614  0.9380446826603333  1.0000
  C   C8        1.0  0.9790287518924998  0.5961157686814431  0.0619572640951915  1.0000
  C   C9        1.0  0.17825506105180727  0.7737025799634765  0.1769406573914267  1.0000
  C   C10       1.0  0.8217461256317621  0.22629834958820552  0.8230569428467902  1.0000
  C   C11       1.0  0.08549629050096282  0.8920599058874505  0.0876066355902907  1.0000
  C   C12       1.0  0.9145063242806089  0.1079410497204235  0.9123931294871428  1.0000
  C   C13       1.0  0.16817699565854147  0.9808302590701318  0.9405326996352201  1.0000
  C   C14       1.0  0.8318244461717015  0.019170693437971  0.0594670699217232  1.0000
  C   C15       1.0  0.08372018057905713  0.08776958843898798  0.852925400114465  1.0000
  C   C16       1.0  0.9162804717623985  0.9122318427591906  0.1470732856904604  1.0000
  C   C17       1.0  0.5472249135706448  0.25280296691187953  0.5365278005497061  1.0000
  C   C18       1.0  0.4527741131807518  0.74720141149556  0.46347088174032786  1.0000
  C   C19       1.0  0.5244735863069608  0.12193618700410276  0.5174124629781929  1.0000
  C   C20       1.0  0.4755259747865497  0.878067689756854  0.4825851337451326  1.0000
  C   C21       1.0  0.5168853192452403  0.1398908491814339  0.383705013910479  1.0000
  C   C22       1.0  0.4831135566265701  0.8601145126623566  0.616293665714764  1.0000
  C   C23       1.0  0.49145278915442964  0.018568430945627806  0.3668571024345155  1.0000
  C   C24       1.0  0.5085454481081729  0.9814364261519019  0.6331404961035147  1.0000
  C   C25       1.0  0.236036600293957  0.3324903246593537  0.2519327806894154  1.0000
  C   C26       1.0  0.7639617287085586  0.6675096580694841  0.7480691742895473  1.0000
  C   C27       1.0  0.17124171697776805  0.1388386803334711  0.2049610245483109  1.0000
  C   C28       1.0  0.8287556942200924  0.8611613222520023  0.7950431042288741  1.0000
  C   C29       1.0  0.9723564571233682  0.2042179588307178  0.3979604963273573  1.0000
  C   C30       1.0  0.027641082390360325  0.7957825025882029  0.6020403748995875  1.0000
  N   N1        1.0  0.13038787522322787  0.22962830456283  0.2817766321180173  1.0000
  N   N2        1.0  0.8696099194371744  0.7703721798125047  0.7182264084276538  1.0000
  O   O1        1.0  0.5444461332196511  0.5027186000944184  0.150944927434324  1.0000
  O   O2        1.0  0.455555355223076  0.4972803625845757  0.8490526781334893  1.0000
  O   O3        1.0  0.6516730897704973  0.6288236230593256  0.2255834979234592  1.0000
  O   O4        1.0  0.3483305711315908  0.3711777715253533  0.7744108358055257  1.0000
  O   O5        1.0  0.3308626440659665  0.755854951820929  0.11846050451176642  1.0000
  O   O6        1.0  0.6691390303472318  0.2441474659133718  0.881538174148865  1.0000
  O   O7        1.0  0.10415272480636865  0.6891370819005618  0.3112406603271225  1.0000
  O   O8        1.0  0.8958473581020742  0.3108604124524562  0.6887580406164915  1.0000
  O   O9        1.0  0.4951866823266258  0.3748569239642591  0.4595310106378534  1.0000
  O   O10       1.0  0.5048139234023381  0.6251464970630211  0.5404698391562022  1.0000
  O   O11       1.0  0.6175820306784984  0.23676237462618846  0.6286790198817371  1.0000
  O   O12       1.0  0.3824184707833781  0.7632400400083342  0.3713196632583902  1.0000
  O   O13       1.0  0.20725589643010522  0.406484443690161  0.322730606914007  1.0000
  O   O14       1.0  0.7927421999894549  0.5935140738124717  0.6772724389612534  1.0000
  O   O15       1.0  0.186686790419003  0.47060042448417516  0.5716766260050719  1.0000
  O   O16       1.0  0.8133135827270125  0.529401531316907  0.4283253146852886  1.0000
