data_image0
_chemical_formula_structural       Dy2Zn2H32C52N4Cl2O22
_chemical_formula_sum              "Dy2 Zn2 H32 C52 N4 Cl2 O22"
_cell_length_a       8.292882548719046
_cell_length_b       12.76591748552316
_cell_length_c       13.209807532018921
_cell_angle_alpha    107.02044707485074
_cell_angle_beta     104.47583599429568
_cell_angle_gamma    93.6234635836648

_space_group_name_H-M_alt    "P 1"
_space_group_IT_number       1

loop_
  _space_group_symop_operation_xyz
  'x, y, z'

loop_
  _atom_site_type_symbol
  _atom_site_label
  _atom_site_symmetry_multiplicity
  _atom_site_fract_x
  _atom_site_fract_y
  _atom_site_fract_z
  _atom_site_occupancy
  Dy  Dy1       1.0  0.24634699165626728  0.48939630466495027  0.4889370528777304  1.0000
  Dy  Dy2       1.0  0.7536540083479224  0.5106007513966162  0.5110606586265118  1.0000
  Zn  Zn1       1.0  0.3212190965750352  0.2170303695869507  0.6639979676683652  1.0000
  Zn  Zn2       1.0  0.6787800965983237  0.7829699732713138  0.33600267158050195  1.0000
  H   H1        1.0  0.002699724010078282  0.5826839662290126  0.362922253046598  1.0000
  H   H2        1.0  0.9973035663492951  0.4173180667641604  0.6370772463767621  1.0000
  H   H3        1.0  0.1400652859592171  0.5852008653674758  0.2967535341147922  1.0000
  H   H4        1.0  0.8599365834606516  0.41480033173196773  0.7032455014135903  1.0000
  H   H5        1.0  0.2648835731587694  0.2163170183901002  0.14779263305254628  1.0000
  H   H6        1.0  0.7351206082400592  0.7836833552127942  0.8522088025569231  1.0000
  H   H7        1.0  0.35836642910454225  0.1409284373200066  0.9761756938016786  1.0000
  H   H8        1.0  0.6416418439798689  0.8590736193102725  0.023826113119369517  1.0000
  H   H9        1.0  0.5756983726649453  0.2526520081096777  0.9390514604024743  1.0000
  H   H10       1.0  0.4243072269231688  0.7473491978331879  0.06095119467051552  1.0000
  H   H11       1.0  0.705331432325586  0.49545878047440794  0.8895430412962496  1.0000
  H   H12       1.0  0.2946640251791024  0.5045415464329109  0.11045548954508885  1.0000
  H   H13       1.0  0.9574980785446101  0.31164139021289816  0.09214640486415247  1.0000
  H   H14       1.0  0.04251071893941831  0.6883631545938655  0.9078554409028353  1.0000
  H   H15       1.0  0.097200878070872  0.23023702196943674  0.9413487086238277  1.0000
  H   H16       1.0  0.9028080987967255  0.769768358152433  0.05865189081091413  1.0000
  H   H17       1.0  0.0295115535929114  0.2855766444089696  0.7736396174082143  1.0000
  H   H18       1.0  0.9704935082224535  0.7144278844468488  0.22636011995124505  1.0000
  H   H19       1.0  0.6727206125085772  0.19220096600943753  0.1794433015923929  1.0000
  H   H20       1.0  0.32727022616068524  0.8077951861402469  0.8205555746599628  1.0000
  H   H21       1.0  0.7581385330409914  0.043334449270432195  0.04082149541972061  1.0000
  H   H22       1.0  0.24184785792576943  0.9566583527754273  0.9591787466170201  1.0000
  H   H23       1.0  0.038869741959644  0.9803426205613022  0.09570804147876538  1.0000
  H   H24       1.0  0.961119499136764  0.019651863933319202  0.904290861642323  1.0000
  H   H25       1.0  0.5159774876282768  0.9582650778713742  0.28062414481912157  1.0000
  H   H26       1.0  0.4840245364232273  0.04173692255930919  0.7193804444938505  1.0000
  H   H27       1.0  0.41497665708185855  0.7511420935953763  0.4553470694861445  1.0000
  H   H28       1.0  0.5850271274247874  0.24886238848289113  0.544660780037077  1.0000
  H   H29       1.0  0.15218130427212623  0.832295278976758  0.4766431458380252  1.0000
  H   H30       1.0  0.8478224912353695  0.16770921731655616  0.523361681411046  1.0000
  H   H31       1.0  0.06998455450637656  0.9804888549580181  0.394559994364016  1.0000
  H   H32       1.0  0.9300141197677831  0.019509006831292204  0.6054390949018253  1.0000
  C   C1        1.0  0.6158734182144839  0.3870152765490928  0.09132441608842609  1.0000
  C   C2        1.0  0.38412986389424475  0.6129867457827913  0.9086773500405483  1.0000
  C   C3        1.0  0.567333723052954  0.4296257273665063  0.1880473021494211  1.0000
  C   C4        1.0  0.4326638564242132  0.5703787553723602  0.8119512406691313  1.0000
  C   C5        1.0  0.43805479002996606  0.3674766912300596  0.20617971230333848  1.0000
  C   C6        1.0  0.5619493996195003  0.6325236930341231  0.7938194566005163  1.0000
  C   C7        1.0  0.3637592344653342  0.2628728931890905  0.13073830164831426  1.0000
  C   C8        1.0  0.636242637704747  0.7371283074641183  0.8692599783115323  1.0000
  C   C9        1.0  0.41630598635877897  0.22121724228176023  0.03660606012154942  1.0000
  C   C10       1.0  0.5837035392824249  0.7787848291422037  0.9633944347525725  1.0000
  C   C11       1.0  0.5401761069766949  0.2837676118859491  0.015165383509383911  1.0000
  C   C12       1.0  0.4598277077822955  0.716236909283715  0.984834154759923  1.0000
  C   C13       1.0  0.6551480041848664  0.5414987482654186  0.266698727483444  1.0000
  C   C14       1.0  0.3448554710585015  0.4585041271503839  0.7332980144705914  1.0000
  C   C15       1.0  0.3710626075757091  0.4117228412327307  0.3022203999748143  1.0000
  C   C16       1.0  0.6289389168281045  0.5882767030053273  0.6977773503753751  1.0000
  C   C17       1.0  0.7904638381968923  0.4360703403170234  0.9021582547536864  1.0000
  C   C18       1.0  0.20953730856623307  0.5639333372727434  0.09784062053049071  1.0000
  C   C19       1.0  0.8184465744748621  0.4060714813577206  0.9976302377154054  1.0000
  C   C20       1.0  0.1815501300861868  0.5939288532357523  0.0023684922160854033  1.0000
  C   C21       1.0  0.9305325532738422  0.3320739220864368  0.015548193063786209  1.0000
  C   C22       1.0  0.06947001167857539  0.6679305878433013  0.9844519016839044  1.0000
  C   C23       1.0  0.007439152943547404  0.2878658281093536  0.9333205756080074  1.0000
  C   C24       1.0  0.9925646645656626  0.712138696614069  0.0666782070927638  1.0000
  C   C25       1.0  0.9710930867406872  0.3201392366836018  0.8389677687393797  1.0000
  C   C26       1.0  0.028910554135173072  0.67986445627848  0.16103150472510205  1.0000
  C   C27       1.0  0.10564723001554908  0.09624509930480937  0.2594999498409506  1.0000
  C   C28       1.0  0.8943425626046775  0.9037460800456644  0.7404980931509755  1.0000
  C   C29       1.0  0.06248129098702999  0.1824685800247393  0.33633459166451013  1.0000
  C   C30       1.0  0.9375154379480078  0.8175259576943502  0.663663994860407  1.0000
  C   C31       1.0  0.9046125979891926  0.2166652977742558  0.3057068956257608  1.0000
  C   C32       1.0  0.09538680719235512  0.7833300941860061  0.694290087178679  1.0000
  C   C33       1.0  0.7947481393538709  0.1649049187202394  0.20044245961533844  1.0000
  C   C34       1.0  0.2052451961783319  0.8350912523555252  0.799556059248779  1.0000
  C   C35       1.0  0.8430259191304614  0.0817065480167543  0.12364591234405255  1.0000
  C   C36       1.0  0.15696137112639255  0.9182846053001226  0.876353999173183  1.0000
  C   C37       1.0  0.9990211228308751  0.0468399775886468  0.15311554239111294  1.0000
  C   C38       1.0  0.0009638499465935612  0.9531519921172487  0.8468834801821143  1.0000
  C   C39       1.0  0.18066260122394334  0.22934050909994844  0.45143721218782656  1.0000
  C   C40       1.0  0.8193312748312279  0.7706523426166285  0.5485634688212855  1.0000
  C   C41       1.0  0.8583380933363499  0.31394853382472826  0.38162446088154667  1.0000
  C   C42       1.0  0.1416621895115213  0.6860510098346991  0.618371579241412  1.0000
  C   C43       1.0  0.2883180555487286  0.9809088131052944  0.3321677183321014  1.0000
  C   C44       1.0  0.7116823764303534  0.0190915267778422  0.6678353867125252  1.0000
  C   C45       1.0  0.4319366218957724  0.932205871999926  0.32328873314353485  1.0000
  C   C46       1.0  0.5680655732886561  0.0677969530845672  0.6767168765428051  1.0000
  C   C47       1.0  0.3752273211733623  0.8164102917489018  0.4214140120163279  1.0000
  C   C48       1.0  0.6247814515587463  0.18359422107399584  0.5785946338675031  1.0000
  C   C49       1.0  0.2305811290845696  0.8622065122286315  0.43311160419299444  1.0000
  C   C50       1.0  0.7694248100191743  0.13779633946809614  0.5668938471952598  1.0000
  C   C51       1.0  0.1841772389359804  0.9452208524604231  0.3875425962314978  1.0000
  C   C52       1.0  0.815827113595766  0.0547803457962814  0.6124598597513397  1.0000
  N   N1        1.0  0.8661927398852213  0.39354717738854106  0.8237518990508901  1.0000
  N   N2        1.0  0.1338039729264722  0.6064531678662205  0.17624456417498643  1.0000
  N   N3        1.0  0.47304493420546107  0.8510869451320247  0.3664406616513957  1.0000
  N   N4        1.0  0.5269586791682598  0.1489167122924329  0.6335661674984647  1.0000
  Cl  Cl1       1.0  0.2252515475926344  0.12173351829113699  0.7585566356402536  1.0000
  Cl  Cl2       1.0  0.7747490637700167  0.8782676569070985  0.24144522307212665  1.0000
  O   O1        1.0  0.7379371625033144  0.4548457969821841  0.07604829287610217  1.0000
  O   O2        1.0  0.26206362274246686  0.5451562064236272  0.9239538306411105  1.0000
  O   O3        1.0  0.7808689877702051  0.5443471667290182  0.3463367961726149  1.0000
  O   O4        1.0  0.21913466135629986  0.4556565368943525  0.6536602105862527  1.0000
  O   O5        1.0  0.5991127296659826  0.6250396195107156  0.2451936370977989  1.0000
  O   O6        1.0  0.40088591473377017  0.3749640320454547  0.7548071067116878  1.0000
  O   O7        1.0  0.4664562621434172  0.4834442040243658  0.3934849664157553  1.0000
  O   O8        1.0  0.53354365918711  0.5165536654510987  0.6065143219402386  1.0000
  O   O9        1.0  0.21994925445580543  0.3815213273809873  0.29455249801331007  1.0000
  O   O10       1.0  0.7800524438311455  0.618479045064646  0.7054455171417046  1.0000
  O   O11       1.0  0.2648467754484258  0.06437620957318302  0.2858567967789795  1.0000
  O   O12       1.0  0.7351449680113548  0.9356183009550348  0.7141402378167995  1.0000
  O   O13       1.0  0.1490712470627003  0.18190549759651017  0.5185622647170546  1.0000
  O   O14       1.0  0.8509190617065059  0.8180881592691591  0.4814380838264327  1.0000
  O   O15       1.0  0.3012437938692827  0.3061171343485115  0.47588011763173904  1.0000
  O   O16       1.0  0.6987518945171516  0.6938724376788912  0.524116124495677  1.0000
  O   O17       1.0  0.9766665278793171  0.39464478075084497  0.44284952834328095  1.0000
  O   O18       1.0  0.023329831665677103  0.6053539009812425  0.5571479164100096  1.0000
  O   O19       1.0  0.7083499089525771  0.32046146911805806  0.38499894308085897  1.0000
  O   O20       1.0  0.2916494718549885  0.679539719716594  0.6149981831301402  1.0000
  O   O21       1.0  0.1250611251113654  0.5883199319254118  0.37198521618476116  1.0000
  O   O22       1.0  0.8749418202319461  0.41168044820637556  0.6280129980604058  1.0000
