data_image0
_chemical_formula_structural       AlH9C21Br3NO6
_chemical_formula_sum              "Al1 H9 C21 Br3 N1 O6"
_cell_length_a       4.125183389273918
_cell_length_b       13.474727656252968
_cell_length_c       13.475001000423276
_cell_angle_alpha    119.99917403115721
_cell_angle_beta     90.00129799633092
_cell_angle_gamma    89.99947137831792

_space_group_name_H-M_alt    "P 1"
_space_group_IT_number       1

loop_
  _space_group_symop_operation_xyz
  'x, y, z'

loop_
  _atom_site_type_symbol
  _atom_site_label
  _atom_site_symmetry_multiplicity
  _atom_site_fract_x
  _atom_site_fract_y
  _atom_site_fract_z
  _atom_site_occupancy
  Al  Al1       1.0  0.031151053338497502  0.49999442254186743  0.49999290397844504  1.0000
  H   H1        1.0  0.2323912816711555  0.8098609180090507  0.7813887485875388  1.0000
  H   H2        1.0  0.20752133829503805  0.020618208089736623  0.8925872670025472  1.0000
  H   H3        1.0  0.7620152888737765  0.03679724693583349  0.6296264857765835  1.0000
  H   H4        1.0  0.7620872497391248  0.09283459512062114  0.9632063141449196  1.0000
  H   H5        1.0  0.23238210244524285  0.4715092235733281  0.19011961917807005  1.0000
  H   H6        1.0  0.20750941243410637  0.37195519316254894  0.9793681336432487  1.0000
  H   H7        1.0  0.7621051656309562  0.37036130058124456  0.9071567124343222  1.0000
  H   H8        1.0  0.2323183947760086  0.21862660481474464  0.5284994989748173  1.0000
  H   H9        1.0  0.20743758731853032  0.10742719185562082  0.6280567113686291  1.0000
  C   C1        1.0  0.5288088594191579  0.4041927818658166  0.3255042845921779  1.0000
  C   C2        1.0  0.5288209219392074  0.4213020770133937  0.5957984355602762  1.0000
  C   C3        1.0  0.52880670114714  0.6744909107913204  0.5786902102059276  1.0000
  C   C4        1.0  0.3517294638345376  0.8600148556770224  0.7487761001387911  1.0000
  C   C5        1.0  0.3351973180270704  0.978899399351235  0.8110855172116803  1.0000
  C   C6        1.0  0.485402301830817  0.04513084985146079  0.7701109330050148  1.0000
  C   C7        1.0  0.6458955560452821  0.988354490372686  0.6642534278341972  1.0000
  C   C8        1.0  0.6514851380376143  0.86936514687546  0.6013541560332175  1.0000
  C   C9        1.0  0.5120975209252593  0.8028877870222859  0.643015433032595  1.0000
  C   C10       1.0  0.6459447590278277  0.1758912974176923  0.01164381960654744  1.0000
  C   C11       1.0  0.651528612266624  0.23198344051085235  0.13062681033447632  1.0000
  C   C12       1.0  0.5121028540696528  0.34012042037502976  0.19709893899445072  1.0000
  C   C13       1.0  0.3517289609032943  0.38875416437615945  0.13997985321137213  1.0000
  C   C14       1.0  0.3351880302382924  0.33217704393601377  0.021098851029947244  1.0000
  C   C15       1.0  0.48543054296569466  0.2249678704296941  0.9548651397276233  1.0000
  C   C16       1.0  0.64595509229526  0.3357442939257569  0.8241002819653931  1.0000
  C   C17       1.0  0.6515663650660884  0.3986332553131506  0.7680040941473083  1.0000
  C   C18       1.0  0.5121171233467051  0.3569818223498874  0.659874085898068  1.0000
  C   C19       1.0  0.3516828906138301  0.25123289863363857  0.6112556806003584  1.0000
  C   C20       1.0  0.33514362747415294  0.1889312730887554  0.6678346156411907  1.0000
  C   C21       1.0  0.48540206200598857  0.22989412000169557  0.7750310012173147  1.0000
  Br  Br1       1.0  0.8483908664992301  0.798168431754931  0.4539148199678707  1.0000
  Br  Br2       1.0  0.848469093362624  0.15574498904446443  0.20182860985640627  1.0000
  Br  Br3       1.0  0.8485666148145725  0.5460594937203994  0.844233769438347  1.0000
  N   N1        1.0  0.47494745425364476  0.16666265816530065  0.8333323214852941  1.0000
  O   O1        1.0  0.7711004387770332  0.6298962750643188  0.6003279990335675  1.0000
  O   O2        1.0  0.7710993076099726  0.4704279257603902  0.37009334506729646  1.0000
  O   O3        1.0  0.771098966550149  0.3996586754274675  0.5295642040486471  1.0000
  O   O4        1.0  0.29920067529955224  0.620405465579701  0.5098810287395283  1.0000
  O   O5        1.0  0.29920394349744583  0.4901084178866527  0.6105155785616107  1.0000
  O   O6        1.0  0.2991994570364653  0.3894698948866805  0.37958351973099996  1.0000
