data_image0
_chemical_formula_structural       Zn2H36C44N4O15
_chemical_formula_sum              "Zn2 H36 C44 N4 O15"
_cell_length_a       9.726448639005733
_cell_length_b       10.95042142092656
_cell_length_c       23.666290204447833
_cell_angle_alpha    90.63025667986405
_cell_angle_beta     90.39035876079886
_cell_angle_gamma    90.59873767864173

_space_group_name_H-M_alt    "P 1"
_space_group_IT_number       1

loop_
  _space_group_symop_operation_xyz
  'x, y, z'

loop_
  _atom_site_type_symbol
  _atom_site_label
  _atom_site_symmetry_multiplicity
  _atom_site_fract_x
  _atom_site_fract_y
  _atom_site_fract_z
  _atom_site_occupancy
  Zn  Zn1       1.0  0.36497528669642776  0.5075928894918462  0.5033059646870797  1.0000
  Zn  Zn2       1.0  0.644765635726877  0.4990594039336995  0.5042293823038335  1.0000
  H   H1        1.0  0.44035265975320936  0.8206046670727929  0.052093380097034  1.0000
  H   H2        1.0  0.8751656124818297  0.4187263201715226  0.4292117925416861  1.0000
  H   H3        1.0  0.9053970283492349  0.5027230613970558  0.546642444043357  1.0000
  H   H4        1.0  0.4905446839390635  0.1994143486929261  0.9548124454736424  1.0000
  H   H5        1.0  0.5131522516644013  0.2105036548081499  0.06153952716903179  1.0000
  H   H6        1.0  0.6880986492423133  0.4328886299724103  0.7979709397495612  1.0000
  H   H7        1.0  0.2890676046008451  0.5087617317523222  0.6728667159292812  1.0000
  H   H8        1.0  0.2613203498223058  0.5263211548294888  0.7777744405552909  1.0000
  H   H9        1.0  0.827647271321581  0.9994168591781614  0.40509244412429973  1.0000
  H   H10       1.0  0.6613476526334737  0.000262128806852501  0.3725132028808816  1.0000
  H   H11       1.0  0.6984704522486284  0.7903608029914863  0.3333622691480116  1.0000
  H   H12       1.0  0.7485407901152216  0.5421338686544245  0.3200496425927213  1.0000
  H   H13       1.0  0.836174040467526  0.8886023561548766  0.312770617880382  1.0000
  H   H14       1.0  0.8601082044795447  0.7829452488859445  0.3687286252806175  1.0000
  H   H15       1.0  0.1946194987917806  0.8398923862678912  0.93237826712776  1.0000
  H   H16       1.0  0.2975522568122031  0.7924474968547413  0.8733355855662523  1.0000
  H   H17       1.0  0.3958094936816252  0.003029682291334299  0.8655053595031957  1.0000
  H   H18       1.0  0.21385665676450566  0.0051835654723433  0.8592883202539454  1.0000
  H   H19       1.0  0.2942495672234601  0.053028815640573185  0.9236117466963165  1.0000
  H   H20       1.0  0.691598316619107  0.28508209942528134  0.6292287941194274  1.0000
  H   H21       1.0  0.7205810972237715  0.22039801064952505  0.6974763089592741  1.0000
  H   H22       1.0  0.9715193209156823  0.2803868456052001  0.6911624138526732  1.0000
  H   H23       1.0  0.3088446146723811  0.5282806531783492  0.3280904589774636  1.0000
  H   H24       1.0  0.9211292330069085  0.18167651595251036  0.634170222687942  1.0000
  H   H25       1.0  0.9413735589699074  0.3414302732695304  0.6229168917487797  1.0000
  H   H26       1.0  0.8761325129629113  0.3855426475195641  0.24545833556333463  1.0000
  H   H27       1.0  0.7785345396834273  0.34684614767588323  0.1842114448604235  1.0000
  H   H28       1.0  0.9421343242301674  0.42045464097775914  0.17752870179872823  1.0000
  H   H29       1.0  0.7587262883398579  0.574221386637049  0.1626308027505488  1.0000
  H   H30       1.0  0.8488250044901803  0.6086876008130557  0.2256333250329092  1.0000
  H   H31       1.0  0.2968058303274788  0.5254813919893946  0.22175389232162251  1.0000
  H   H32       1.0  0.6807623201820477  0.11935705623768907  0.4683602316139782  1.0000
  H   H33       1.0  0.3660397017637039  0.09120063842628666  0.47349765117697734  1.0000
  H   H34       1.0  0.4312325044132024  0.9223933363361563  0.530977817345871  1.0000
  H   H35       1.0  0.1310167298529805  0.3582668607742645  0.4532014946562199  1.0000
  H   H36       1.0  0.10405135994923849  0.5931370079758407  0.5122842854896561  1.0000
  C   C1        1.0  0.5028923966974972  0.7382741854580883  0.5118931679351775  1.0000
  C   C2        1.0  0.46014715086263885  0.3803947383395821  0.8840571755259744  1.0000
  C   C3        1.0  0.5998182982881205  0.45110684046873917  0.7708955449705145  1.0000
  C   C4        1.0  0.5090246408255937  0.4672714602317285  0.6130000581042552  1.0000
  C   C5        1.0  0.615271508502623  0.43977635561432027  0.7123401322951111  1.0000
  C   C6        1.0  0.5019266605948475  0.4628833648842202  0.6763131854742639  1.0000
  C   C7        1.0  0.3754955187603457  0.49230845294924547  0.7011795257066922  1.0000
  C   C8        1.0  0.3599567694779537  0.5026213998738527  0.759331121267877  1.0000
  C   C9        1.0  0.4739306478361057  0.4828831454644842  0.7938715628589392  1.0000
  C   C10       1.0  0.6462924660580072  0.5387542377228484  0.23871880678024837  1.0000
  C   C11       1.0  0.6498372679238003  0.5385348017082662  0.2978683784823701  1.0000
  C   C12       1.0  0.44703360054141666  0.7326349828132093  0.0303133506340316  1.0000
  C   C13       1.0  0.5297749131067633  0.5336351942769182  0.32994183764675  1.0000
  C   C14       1.0  0.4015880705054471  0.5307046639302724  0.3025953036536535  1.0000
  C   C15       1.0  0.39531953438798695  0.5295507507514968  0.24397155506486  1.0000
  C   C16       1.0  0.47174149229183376  0.2687921808527633  0.4824935790080572  1.0000
  C   C17       1.0  0.5163955221370529  0.5324142859693239  0.21273267870690662  1.0000
  C   C18       1.0  0.5831933505034783  0.06899579781943288  0.47030953407958986  1.0000
  C   C19       1.0  0.4674781084270662  0.13453659376043692  0.4745982849147836  1.0000
  C   C20       1.0  0.5892828013818985  0.9358992544634  0.4712814341443803  1.0000
  C   C21       1.0  0.5059799144362387  0.8716280128220928  0.506418734092577  1.0000
  C   C22       1.0  0.0792334396866323  0.4371497695998342  0.47217777884354456  1.0000
  C   C23       1.0  0.4289834207494821  0.7290190227412906  0.9707211451735844  1.0000
  C   C24       1.0  0.9280096407231326  0.44527502068996927  0.4686586034220284  1.0000
  C   C25       1.0  0.5370174881361436  0.5281500100165955  0.3932124124813399  1.0000
  C   C26       1.0  0.5083341437620916  0.4101085141323394  0.1263623660540887  1.0000
  C   C27       1.0  0.486518931957157  0.6379616644630699  0.1233388296964151  1.0000
  C   C28       1.0  0.4693877255614182  0.6284356926665281  0.061007302746986604  1.0000
  C   C29       1.0  0.4738195073056841  0.5132202562382202  0.033161141013025  1.0000
  C   C30       1.0  0.49277230125840527  0.4049367069989814  0.0640940853147356  1.0000
  C   C31       1.0  0.7404069827587066  0.9411597000925478  0.3910091977698755  1.0000
  C   C32       1.0  0.7863713709815557  0.8448674120386243  0.34895388735192506  1.0000
  C   C33       1.0  0.2900055423310306  0.8572051539304011  0.9087221199526709  1.0000
  C   C34       1.0  0.4437184507616437  0.6169773049401781  0.9411573579519795  1.0000
  C   C35       1.0  0.29963841009042375  0.987233390372516  0.8883713024378183  1.0000
  C   C36       1.0  0.7564585979937207  0.29009979413423537  0.6674623832442634  1.0000
  C   C37       1.0  0.9063852602829596  0.27253055184867486  0.6531796760464559  1.0000
  C   C38       1.0  0.7783904285079757  0.541485831795576  0.20563832578815072  1.0000
  C   C39       1.0  0.847954603304615  0.41618345269344564  0.2028833186775785  1.0000
  C   C40       1.0  0.46135723177349763  0.5081584592124597  0.9731160890171467  1.0000
  C   C41       1.0  0.4686700519688003  0.39199192423486534  0.9462291509642925  1.0000
  C   C42       1.0  0.4858222208061705  0.2863174432307856  0.9776153167429769  1.0000
  C   C43       1.0  0.4981945621502463  0.29227563887286573  0.0364899222919419  1.0000
  C   C44       1.0  0.458897594916806  0.6093997508144183  0.8790520335286091  1.0000
  N   N1        1.0  0.5041482305224819  0.5270029275300272  0.1518400332541887  1.0000
  N   N2        1.0  0.46155918496231874  0.49107651162551486  0.8545979854727008  1.0000
  N   N3        1.0  0.1548653096526351  0.5184350822705425  0.4964803293935062  1.0000
  N   N4        1.0  0.8537775154268842  0.48205845342015846  0.509642569548447  1.0000
  O   O1        1.0  0.3845099113744936  0.6893280732527953  0.5203318557170107  1.0000
  O   O2        1.0  0.42375928242764616  0.5371588440587303  0.4196456870561036  1.0000
  O   O3        1.0  0.6548314697739386  0.5132362467169429  0.4158248502750794  1.0000
  O   O4        1.0  0.524922243895773  0.31867506657296457  0.1552169493500699  1.0000
  O   O5        1.0  0.684603047587288  0.8779723861647569  0.43921332971241617  1.0000
  O   O6        1.0  0.4035711347250981  0.8397154906362304  0.9484661817914813  1.0000
  O   O7        1.0  0.7443041589224393  0.4090224991331297  0.694221834276668  1.0000
  O   O8        1.0  0.4861380889808729  0.735678972458643  0.1493282060099759  1.0000
  O   O9        1.0  0.4734135111731915  0.6989248857334116  0.8485525238117049  1.0000
  O   O10       1.0  0.4559423217794745  0.2814847947333519  0.8589250817003702  1.0000
  O   O11       1.0  0.6156691527594377  0.6806015524263528  0.5079979983600964  1.0000
  O   O12       1.0  0.3944205435689269  0.4628218566511179  0.5863845133713923  1.0000
  O   O13       1.0  0.6265218242564785  0.4789008416125141  0.5902334031395213  1.0000
  O   O14       1.0  0.3562266227847601  0.32337968249042587  0.4821131333850133  1.0000
  O   O15       1.0  0.588957133117667  0.31983394442722357  0.4902307193470747  1.0000
