data_image0
_chemical_formula_structural       Cu6H60C60N56O4
_chemical_formula_sum              "Cu6 H60 C60 N56 O4"
_cell_length_a       13.13573259159509
_cell_length_b       14.533297536091375
_cell_length_c       15.385578779638948
_cell_angle_alpha    89.99961992882054
_cell_angle_beta     89.93596389198237
_cell_angle_gamma    89.99986651293462

_space_group_name_H-M_alt    "P 1"
_space_group_IT_number       1

loop_
  _space_group_symop_operation_xyz
  'x, y, z'

loop_
  _atom_site_type_symbol
  _atom_site_label
  _atom_site_symmetry_multiplicity
  _atom_site_fract_x
  _atom_site_fract_y
  _atom_site_fract_z
  _atom_site_occupancy
  Cu  Cu1       1.0  0.5078075088487283  0.2858633127302141  0.9059813365543264  1.0000
  Cu  Cu2       1.0  0.9921932046505405  0.7858598792857735  0.5940223919628806  1.0000
  Cu  Cu3       1.0  0.49219890596064175  0.7141413075277326  0.0940250294038734  1.0000
  Cu  Cu4       1.0  0.007840735907066701  0.21410208040284573  0.4059515236088487  1.0000
  Cu  Cu5       1.0  0.5000013706848705  0.5000009637716971  3.919821580200028e-06  1.0000
  Cu  Cu6       1.0  1.9868959064699883e-05  0.9999901626302121  0.500002654555125  1.0000
  H   H1        1.0  0.7904181377570367  0.1556461318828468  0.13827462307528293  1.0000
  H   H2        1.0  0.7651487310343086  0.42794048035873544  0.24800158377418316  1.0000
  H   H3        1.0  0.2269353566215528  0.31450528522404403  0.15401208085239662  1.0000
  H   H4        1.0  0.10719576602571121  0.21548009331051077  0.23870275818564582  1.0000
  H   H5        1.0  0.1303302031227176  0.38173889208815137  0.45643354020179333  1.0000
  H   H6        1.0  0.2564717804732268  0.4860381366277764  0.38219101637545805  1.0000
  H   H7        1.0  0.8895269016406077  0.3777524420560071  0.3639166767233491  1.0000
  H   H8        1.0  0.9142903156835019  0.11766659618274394  0.2582497683576932  1.0000
  H   H9        1.0  0.5212035688940874  0.018632943446391402  0.08566686088251882  1.0000
  H   H10       1.0  0.49105686888214006  0.9990012803010513  0.1977503269230994  1.0000
  H   H11       1.0  0.6002929385669517  0.0658930088957348  0.16950306781710375  1.0000
  H   H12       1.0  0.3951301076203109  0.2371583471900323  0.22544550883959863  1.0000
  H   H13       1.0  0.5046671527938855  0.18402147489743467  0.2724779153689099  1.0000
  H   H14       1.0  0.38493011862745163  0.12530470464697882  0.2729222799071778  1.0000
  H   H15       1.0  0.38368096394756185  0.23438658800612447  0.08716764127265013  1.0000
  H   H16       1.0  0.7095792387926494  0.6556606525749232  0.36173594700196093  1.0000
  H   H17       1.0  0.7348501930278105  0.9279584711892781  0.2520066292976467  1.0000
  H   H18       1.0  0.2730659178775738  0.8144902026985009  0.3459722250665821  1.0000
  H   H19       1.0  0.39281490049652495  0.7154701820094688  0.2612854355419785  1.0000
  H   H20       1.0  0.36967773569821827  0.881726422452722  0.04355165500683  1.0000
  H   H21       1.0  0.24351838752526334  0.9860164532017917  0.11778764358100353  1.0000
  H   H22       1.0  0.610490465173044  0.8777659870280206  0.1360821339466369  1.0000
  H   H23       1.0  0.5857201271837339  0.6176787626474364  0.2417552131318459  1.0000
  H   H24       1.0  0.9787858244796935  0.5186155971890755  0.4143393560797933  1.0000
  H   H25       1.0  0.0089270803713006  0.49899442838824376  0.3022535893752689  1.0000
  H   H26       1.0  0.8996864060388815  0.5658750305959187  0.33050933465207083  1.0000
  H   H27       1.0  0.1048248597118757  0.7371571725508941  0.2745606513649719  1.0000
  H   H28       1.0  0.9952875175735515  0.6840164126441836  0.2275317527821414  1.0000
  H   H29       1.0  0.11502897529228313  0.6253093466687004  0.22708003999598253  1.0000
  H   H30       1.0  0.11628469034010891  0.7343899272756075  0.41283270514157533  1.0000
  H   H31       1.0  0.2095631213648801  0.84434403879154  0.8617407988972872  1.0000
  H   H32       1.0  0.2348530850143433  0.5720483141471888  0.7520132237928865  1.0000
  H   H33       1.0  0.7730688437289431  0.6855124085287868  0.8459754323221134  1.0000
  H   H34       1.0  0.8928168012303319  0.7845259031506087  0.7612867193834774  1.0000
  H   H35       1.0  0.8696610507098087  0.6182712328470998  0.5435552505308153  1.0000
  H   H36       1.0  0.7435057990301673  0.5139891902256863  0.6177899511036176  1.0000
  H   H37       1.0  0.11050313437552721  0.6222356643966409  0.6360838804763987  1.0000
  H   H38       1.0  0.08571460530396281  0.8823228864520304  0.7417487955143829  1.0000
  H   H39       1.0  0.4787525273204309  0.9813730529415493  0.9143595668844073  1.0000
  H   H40       1.0  0.5088969219327596  0.0010239821712261  0.8022819464588055  1.0000
  H   H41       1.0  0.3996631695918112  0.9341281251555388  0.8305201101104062  1.0000
  H   H42       1.0  0.6048337066421398  0.762871043843326  0.7745523338516096  1.0000
  H   H43       1.0  0.4952798941924783  0.8160044757590442  0.7275250980345903  1.0000
  H   H44       1.0  0.6150146325423123  0.874732255201856  0.7270839793037567  1.0000
  H   H45       1.0  0.6162897568971246  0.7656180323694315  0.9128152643033616  1.0000
  H   H46       1.0  0.2904195273206512  0.34435291263271495  0.6382801551375794  1.0000
  H   H47       1.0  0.2651227207036868  0.0720592225243308  0.748000978605248  1.0000
  H   H48       1.0  0.726942067344176  0.18551785797882306  0.654021144346608  1.0000
  H   H49       1.0  0.6071778519886237  0.2845220529492139  0.7387098574637748  1.0000
  H   H50       1.0  0.63032721879717  0.11825824368824557  0.956437809463175  1.0000
  H   H51       1.0  0.7564865741349892  0.013978534072336398  0.8821998709814595  1.0000
  H   H52       1.0  0.38949232606275064  0.1222358809304538  0.8639306907889195  1.0000
  H   H53       1.0  0.41429233479063754  0.38232104103789766  0.7582628626250738  1.0000
  H   H54       1.0  0.021211536364141602  0.4813731974282263  0.5856448955441422  1.0000
  H   H55       1.0  0.9910634456967247  0.5010060635283294  0.6977261006537887  1.0000
  H   H56       1.0  0.1003071172867891  0.43412477319706977  0.6694833598130289  1.0000
  H   H57       1.0  0.8951511422245348  0.2628488239240525  0.7254352625904376  1.0000
  H   H58       1.0  0.0046854081311238005  0.31599508840498913  0.7724726053483479  1.0000
  H   H59       1.0  0.8849417431407787  0.37470903520636506  0.7729035154951589  1.0000
  H   H60       1.0  0.8836996593535463  0.2656078122648963  0.5871703728646054  1.0000
  C   C1        1.0  0.695919015598733  0.32164028725041754  0.11696998745062363  1.0000
  C   C2        1.0  0.7684607702686179  0.295407806422034  0.18382717988496475  1.0000
  C   C3        1.0  0.810910915850762  0.20684079216358234  0.1869076009836945  1.0000
  C   C4        1.0  0.7971308481575435  0.35882881018176244  0.24807531197650695  1.0000
  C   C5        1.0  0.32670367931608263  0.4622051091493802  0.21439084127148084  1.0000
  C   C6        1.0  0.2534706934699927  0.40704685010493336  0.2625266760267594  1.0000
  C   C7        1.0  0.20922479198807054  0.33038102268292846  0.2216372986284654  1.0000
  C   C8        1.0  0.14108937054189147  0.27654386998798225  0.2677027152778139  1.0000
  C   C9        1.0  0.15520498112174863  0.36958425375814846  0.38990288865240796  1.0000
  C   C10       1.0  0.22473362207068703  0.42680052598102247  0.3483662098533672  1.0000
  C   C11       1.0  0.8662572105024253  0.332319051254828  0.31128485850089055  1.0000
  C   C12       1.0  0.8796790687908995  0.18554525900334076  0.2522932360702726  1.0000
  C   C13       1.0  0.5214994977188712  0.048952743835023696  0.15084681793324256  1.0000
  C   C14       1.0  0.43456377943317653  0.1715310479503316  0.235206805344859  1.0000
  C   C15       1.0  0.4280651269146389  0.17064880955800987  0.0764948727304215  1.0000
  C   C16       1.0  0.8040832371842299  0.8216530947429491  0.3830401987674891  1.0000
  C   C17       1.0  0.7315392746254334  0.7954239784684349  0.3161818672901404  1.0000
  C   C18       1.0  0.689091665119058  0.7068577582683632  0.313098756865685  1.0000
  C   C19       1.0  0.7028773915722157  0.8588434247329174  0.25193530104978384  1.0000
  C   C20       1.0  0.1733063178625116  0.9621940880222583  0.285595802140847  1.0000
  C   C21       1.0  0.24652881698970935  0.9070284515023348  0.23745444594269574  1.0000
  C   C22       1.0  0.2907794845567011  0.8303663783080992  0.27834691279895923  1.0000
  C   C23       1.0  0.35891883212237735  0.7765356052235078  0.23228899054530674  1.0000
  C   C24       1.0  0.3448007044370057  0.8695768724779569  0.11008302892352623  1.0000
  C   C25       1.0  0.2752612623365991  0.9267840472547276  0.151616080003123  1.0000
  C   C26       1.0  0.6337602723928557  0.8323301173021846  0.18871618753678385  1.0000
  C   C27       1.0  0.6203357671708432  0.685558691103374  0.24770872695980733  1.0000
  C   C28       1.0  0.9784783870311744  0.5489392948018191  0.34916113862555426  1.0000
  C   C29       1.0  0.06539289089408129  0.6715279558287223  0.26479911991560817  1.0000
  C   C30       1.0  0.0719181953505554  0.670649410045378  0.4235098042267823  1.0000
  C   C31       1.0  0.30407440723677587  0.6783491953207913  0.8830500052985145  1.0000
  C   C32       1.0  0.231531905647536  0.7045803000133901  0.8161889118016532  1.0000
  C   C33       1.0  0.18908405107927004  0.7931486904265627  0.8131065447733192  1.0000
  C   C34       1.0  0.20287857589479333  0.6411599843120044  0.7519408086734389  1.0000
  C   C35       1.0  0.6732845150325987  0.5378125846012621  0.7856018439211284  1.0000
  C   C36       1.0  0.746515990279953  0.5929749721091325  0.7374627567277942  1.0000
  C   C37       1.0  0.7907748263411919  0.6696291022348574  0.7783541064203732  1.0000
  C   C38       1.0  0.858915564785569  0.7234586860871274  0.7322919488029599  1.0000
  C   C39       1.0  0.8447931218359273  0.6304203665672645  0.6100865639053907  1.0000
  C   C40       1.0  0.775252300405903  0.5732171677832696  0.6516232215975464  1.0000
  C   C41       1.0  0.1337636805896949  0.6676724955733137  0.688718282722171  1.0000
  C   C42       1.0  0.12033115961174451  0.814444911680745  0.7477111866412687  1.0000
  C   C43       1.0  0.4784489880803378  0.9510670140645914  0.8491789466659442  1.0000
  C   C44       1.0  0.5653901238394711  0.8285024715298237  0.7647949199676347  1.0000
  C   C45       1.0  0.5719154307447525  0.8293468657746744  0.9235042989489417  1.0000
  C   C46       1.0  0.19592468820708583  0.17835978240319156  0.6169694195898501  1.0000
  C   C47       1.0  0.268449573319181  0.2045937151791861  0.6838400673457984  1.0000
  C   C48       1.0  0.31090406544835497  0.2931571831015916  0.6869147401695914  1.0000
  C   C49       1.0  0.29710384598136125  0.14117014047405976  0.7480859704746268  1.0000
  C   C50       1.0  0.8267245152933215  0.03781878916693421  0.7143950069221107  1.0000
  C   C51       1.0  0.7534883227353435  0.09297066420786848  0.7625337396309817  1.0000
  C   C52       1.0  0.7092300256299212  0.16963136124363126  0.7216458093215081  1.0000
  C   C53       1.0  0.6410822992172458  0.22345662973134495  0.767705017026451  1.0000
  C   C54       1.0  0.6552012049322757  0.1304153624920374  0.8899064302562465  1.0000
  C   C55       1.0  0.7247437017156744  0.0732116280967574  0.8483707845988065  1.0000
  C   C56       1.0  0.36622554720435124  0.1676745029376931  0.811301192165182  1.0000
  C   C57       1.0  0.37966375783872763  0.3144473052752516  0.7523080264784883  1.0000
  C   C58       1.0  0.021512881175887295  0.4510584447954642  0.6508237523957378  1.0000
  C   C59       1.0  0.9345831086428404  0.32848285716958253  0.7351974439830329  1.0000
  C   C60       1.0  0.9280776046508593  0.3293373203118152  0.5764848441043497  1.0000
  N   N1        1.0  0.5940296658332329  0.40178075061073315  0.043711086149969  1.0000
  N   N2        1.0  0.5964706677111168  0.3173760734636348  0.009329306190245702  1.0000
  N   N3        1.0  0.6602590489498041  0.2651846697210373  0.05410716404879421  1.0000
  N   N4        1.0  0.655210643102258  0.40691005331090924  0.11121474351528353  1.0000
  N   N5        1.0  0.4030474334028824  0.3733341177928083  0.9507675382486556  1.0000
  N   N6        1.0  0.31748351810470155  0.34882903708614776  0.9677818945875672  1.0000
  N   N7        1.0  0.23425011613821312  0.32742717076057903  0.9853546897702901  1.0000
  N   N8        1.0  0.42862775093859534  0.5004354941596246  0.1154431638807836  1.0000
  N   N9        1.0  0.3719994135462273  0.4304878096026599  0.14158833247822145  1.0000
  N   N10       1.0  0.41959365762305373  0.5724127867219408  0.16895432622686  1.0000
  N   N11       1.0  0.355632742460017  0.5495506443415437  0.23268569677354387  1.0000
  N   N12       1.0  0.1143992860375818  0.29549044250350687  0.3504695192911669  1.0000
  N   N13       1.0  0.9075324436618433  0.24756810816534613  0.3127779770752213  1.0000
  N   N14       1.0  0.45893565298818123  0.1312245669601069  0.15123492838277747  1.0000
  N   N15       1.0  0.9059906522238779  0.9017722004280558  0.45629537837231043  1.0000
  N   N16       1.0  0.9035437986583759  0.8173755443792459  0.490675078304804  1.0000
  N   N17       1.0  0.8397418488016228  0.7651907736052833  0.44589947455086343  1.0000
  N   N18       1.0  0.844802809507492  0.9069172349683825  0.3887916768776166  1.0000
  N   N19       1.0  0.096964943805844  0.8733159581106449  0.5492214370970814  1.0000
  N   N20       1.0  0.18252892080596445  0.8488053217503335  0.5322085346722432  1.0000
  N   N21       1.0  0.2657646598943515  0.8273965321620694  0.514637177858404  1.0000
  N   N22       1.0  0.0714024830949711  0.0004272538437746  0.3845594131763904  1.0000
  N   N23       1.0  0.1280114142067603  0.9304770569932757  0.35840306125697213  1.0000
  N   N24       1.0  0.0804455188744271  0.0724104076112368  0.3310471643771038  1.0000
  N   N25       1.0  0.1443905259545843  0.04954720803819871  0.26731136013258805  1.0000
  N   N26       1.0  0.385614957840744  0.7954895847738114  0.14952142803072385  1.0000
  N   N27       1.0  0.5924913689555852  0.7475820190430088  0.1872210121930848  1.0000
  N   N28       1.0  0.04103862174732601  0.6312202473987509  0.3487751801832674  1.0000
  N   N29       1.0  0.40597215498919337  0.5982169888758975  0.9563024214722589  1.0000
  N   N30       1.0  0.4035303918360854  0.6826189137234022  0.9906842001240153  1.0000
  N   N31       1.0  0.339733631747592  0.7348068770943783  0.9459076277102697  1.0000
  N   N32       1.0  0.3447850803170952  0.5930821815742816  0.8888007034664442  1.0000
  N   N33       1.0  0.5969612915528231  0.626680135539104  0.04923168208703291  1.0000
  N   N34       1.0  0.682525948981642  0.6511886566022727  0.0322225267208935  1.0000
  N   N35       1.0  0.7657608471732688  0.6725980917273019  0.014656883689710302  1.0000
  N   N36       1.0  0.571381708981953  0.49957256647072523  0.8845632073330593  1.0000
  N   N37       1.0  0.627999407605998  0.5695250675821626  0.8584128206209343  1.0000
  N   N38       1.0  0.5804150601612507  0.4275959620024423  0.8310468440012289  1.0000
  N   N39       1.0  0.6443584850453234  0.45046292094415463  0.7673102434903429  1.0000
  N   N40       1.0  0.8856147870378237  0.7045066089640245  0.6495245106478792  1.0000
  N   N41       1.0  0.09249151887330241  0.7524199983093068  0.6872180198830125  1.0000
  N   N42       1.0  0.541026600456128  0.868784869860825  0.8487733110718383  1.0000
  N   N43       1.0  0.09405612716772539  0.09819801605097918  0.543706507765876  1.0000
  N   N44       1.0  0.09650991838189073  0.18260086485054217  0.5093034211620662  1.0000
  N   N45       1.0  0.16028444542765644  0.23479870906270864  0.5540835271854618  1.0000
  N   N46       1.0  0.1552119578319662  0.09308876141091821  0.6112205531843458  1.0000
  N   N47       1.0  0.9030912677251806  0.12660609338477974  0.45069987015371293  1.0000
  N   N48       1.0  0.8175393347927128  0.15111466537810972  0.4677498412780281  1.0000
  N   N49       1.0  0.7343225104365275  0.17251382178473304  0.48535307899766184  1.0000
  N   N50       1.0  0.9286412104660047  0.9995684213779727  0.615453516907671  1.0000
  N   N51       1.0  0.8720254732966737  0.06952825132974991  0.64159750773824  1.0000
  N   N52       1.0  0.9195966856188136  0.9275935245449177  0.6689566636305884  1.0000
  N   N53       1.0  0.8556395124283682  0.9504601645192279  0.7326885470482551  1.0000
  N   N54       1.0  0.6143838920521533  0.2045047144108665  0.8504719256263444  1.0000
  N   N55       1.0  0.4075066358946203  0.2524198488888699  0.812795088666583  1.0000
  N   N56       1.0  0.9589526105700658  0.36877405178899636  0.6512194602244039  1.0000
  O   O1        1.0  0.44724184460625344  0.1408003528675508  0.002279664756578401  1.0000
  O   O2        1.0  0.05275146245073609  0.6407935912328995  0.4977232670200777  1.0000
  O   O3        1.0  0.5527486120865746  0.8591850013311629  0.9977188741128203  1.0000
  O   O4        1.0  0.947253475314483  0.3591759372401952  0.5022707472060831  1.0000
