data_image0
_chemical_formula_structural       Mo4H60C60N4O16
_chemical_formula_sum              "Mo4 H60 C60 N4 O16"
_cell_length_a       7.777987734
_cell_length_b       11.831988632986203
_cell_length_c       19.013
_cell_angle_alpha    90.0
_cell_angle_beta     90.0
_cell_angle_gamma    96.8569561547223

_space_group_name_H-M_alt    "P 1"
_space_group_IT_number       1

loop_
  _space_group_symop_operation_xyz
  'x, y, z'

loop_
  _atom_site_type_symbol
  _atom_site_label
  _atom_site_symmetry_multiplicity
  _atom_site_fract_x
  _atom_site_fract_y
  _atom_site_fract_z
  _atom_site_occupancy
  Mo  Mo1       1.0  0.7621526442647663  0.5162020194302173  0.149330984063532  1.0000
  Mo  Mo2       1.0  0.2378453132986706  0.4837972867967791  0.649330984063532  1.0000
  Mo  Mo3       1.0  0.2555671755818807  0.48706099932775254  0.1517998211749827  1.0000
  Mo  Mo4       1.0  0.7444294963019829  0.5129383068992439  0.6517977173512861  1.0000
  H   H1        1.0  0.8226821667813341  0.5775894386943534  0.3758875506232613  1.0000
  H   H2        1.0  0.1773186713500507  0.4224115700430886  0.8758854467995577  1.0000
  H   H3        1.0  0.9582554389042386  0.4767190996045372  0.4729679692841772  1.0000
  H   H4        1.0  0.0417436497343857  0.5232793553672295  0.9729663914163994  1.0000
  H   H5        1.0  0.1201940051533654  0.3287956279770015  0.5124015147530657  1.0000
  H   H6        1.0  0.8798075002400267  0.6712019757395424  0.0123999368852878  1.0000
  H   H7        1.0  0.2528861435898548  0.1516426057036497  0.4903807920896242  1.0000
  H   H8        1.0  0.7471176239539119  0.8483532955024415  0.9903792142218464  1.0000
  H   H9        1.0  0.2124324387884329  0.05481743144095929  0.3734250249829074  1.0000
  H   H10       1.0  0.7875769352868288  0.9451810235308072  0.8734229211592037  1.0000
  H   H11       1.0  0.0549880978907353  0.1370750750457006  0.2791584705201728  1.0000
  H   H12       1.0  0.9450080124910798  0.8629352974992058  0.779158470520173  1.0000
  H   H13       1.0  0.8963831468114591  0.19510173868326317  0.2147998737705805  1.0000
  H   H14       1.0  0.1036219064118811  0.8048941625228281  0.7148014516383514  1.0000
  H   H15       1.0  0.7986700199586068  0.3305994377978507  0.9881102403618557  1.0000
  H   H16       1.0  0.20132392596169518  0.6693990171739159  0.4881086624940849  1.0000
  H   H17       1.0  0.9940797954070817  0.355697846838865  0.0385904381212825  1.0000
  H   H18       1.0  0.0059233048746775785  0.6443014593881244  0.5385899121653637  1.0000
  H   H19       1.0  0.6360093040993462  0.2552556891270044  0.0895103350339213  1.0000
  H   H20       1.0  0.3639906064056788  0.7447402120790868  0.5895129648135509  1.0000
  H   H21       1.0  0.9908007545769024  0.16859024596947586  0.1026487140377625  1.0000
  H   H22       1.0  0.009199928950089009  0.8314099115127433  0.6026471361699921  1.0000
  H   H23       1.0  0.7899194399429419  0.0950945723911545  0.1301304370693757  1.0000
  H   H24       1.0  0.2100788268292817  0.9049064363462875  0.6301304370693757  1.0000
  H   H25       1.0  0.6849185809461887  0.0904186274426309  0.0028659338347481  1.0000
  H   H26       1.0  0.3150787581996752  0.9095772737634604  0.5028643559669703  1.0000
  H   H27       1.0  0.8941436883429219  0.1531740138526345  0.9766591279650783  1.0000
  H   H28       1.0  0.1058555549000957  0.8468252923743549  0.4766580760532264  1.0000
  H   H29       1.0  0.8693170757800958  0.0174762697602802  0.016376163677485102  1.0000
  H   H30       1.0  0.1306845842176827  0.9825221852114864  0.5163730079419367  1.0000
  H   H31       1.0  0.33399181192376654  0.4095857075745996  0.37407037290275014  1.0000
  H   H32       1.0  0.6660014667345351  0.5904161524180651  0.8740682690790537  1.0000
  H   H33       1.0  0.47053740871970723  0.5179224062390588  0.47640035765002864  1.0000
  H   H34       1.0  0.5294640478292507  0.48208200751928126  0.9764014095618805  1.0000
  H   H35       1.0  0.6304285855617522  0.6843079011769149  0.5258438962814936  1.0000
  H   H36       1.0  0.3695817161398693  0.31569566132620247  0.025844422237419503  1.0000
  H   H37       1.0  0.7728187423114719  0.8820442747801991  0.5138731394309133  1.0000
  H   H38       1.0  0.22718384531266617  0.1179592877229183  0.013870509651290804  1.0000
  H   H39       1.0  0.7665018553642254  0.9820259034155683  0.3978967022563538  1.0000
  H   H40       1.0  0.2334912686896828  0.0179751053218737  0.8978945984326501  1.0000
  H   H41       1.0  0.6225884093156469  0.8874386791382562  0.29664913480250027  1.0000
  H   H42       1.0  0.3774045601338685  0.11256147834396299  0.7966496607584264  1.0000
  H   H43       1.0  0.5167336308064847  0.8043263752880492  0.2190427602166949  1.0000
  H   H44       1.0  0.4832619100021844  0.19567378219417006  0.719041708304843  1.0000
  H   H45       1.0  0.5418617438436613  0.6308107665892493  0.0398422132225349  1.0000
  H   H46       1.0  0.4581402253629109  0.3691893908929628  0.5398416872666091  1.0000
  H   H47       1.0  0.3676054715303252  0.6799154242181658  0.9921995476779062  1.0000
  H   H48       1.0  0.6323947481834866  0.3200821794983781  0.4922011255456767  1.0000
  H   H49       1.0  0.5092698824955093  0.797769156293242  0.102361016146844  1.0000
  H   H50       1.0  0.4907320867110627  0.20223100118897716  0.60236154210277  1.0000
  H   H51       1.0  0.114376766438582  0.7381685217454645  0.0909109556619185  1.0000
  H   H52       1.0  0.8856266430519639  0.2618324869919775  0.5909120075737633  1.0000
  H   H53       1.0  0.21836420904435272  0.8475480080600093  0.14388891810866514  1.0000
  H   H54       1.0  0.7816403315213803  0.15245214942221  0.6438883921527392  1.0000
  H   H55       1.0  0.363630485716179  0.9438641316984118  0.0370483353494961  1.0000
  H   H56       1.0  0.636377448075109  0.05613347201813209  0.5370467574817255  1.0000
  H   H57       1.0  0.2539289870928414  0.8369737156604841  0.9821995476779081  1.0000
  H   H58       1.0  0.7460750896597119  0.1630238880560597  0.4822000736338268  1.0000
  H   H59       1.0  0.1341428068090735  0.9285577115055474  0.029828538368484207  1.0000
  H   H60       1.0  0.8658562818295508  0.0714407434662263  0.5298269605007138  1.0000
  C   C1        1.0  0.903219611536457  0.338545905319144  0.2853652763898396  1.0000
  C   C2        1.0  0.09677351251745137  0.661455103418298  0.7853642244779877  1.0000
  C   C3        1.0  0.8506170547322751  0.4466050947803949  0.299339925314257  1.0000
  C   C4        1.0  0.149371081207704  0.5533967652122698  0.7993420291379609  1.0000
  C   C5        1.0  0.8694003155825527  0.4954118130807146  0.3675958554673144  1.0000
  C   C6        1.0  0.1305986184516783  0.5045857906358293  0.8675953295113886  1.0000
  C   C7        1.0  0.9446073804206492  0.44009639733338446  0.4204528480513332  1.0000
  C   C8        1.0  0.0553839941404988  0.5599020576383822  0.920460211434282  1.0000
  C   C9        1.0  0.010736751927133494  0.33490678923413947  0.4081654657339726  1.0000
  C   C10       1.0  0.9892745750897163  0.665088260716729  0.9081644138221209  1.0000
  C   C11       1.0  0.1044928498516526  0.2858804470858871  0.4616236259401489  1.0000
  C   C12       1.0  0.8955006322554765  0.714115454120211  0.9616241518960678  1.0000
  C   C13       1.0  0.1780111381575367  0.1872804056799779  0.4492557723662785  1.0000
  C   C14       1.0  0.8219992123885191  0.8127163467813432  0.9492494608951745  1.0000
  C   C15       1.0  0.1555085852555251  0.1332503853217446  0.3832146426129484  1.0000
  C   C16       1.0  0.8444899907254921  0.8667523259261499  0.8832141166570225  1.0000
  C   C17       1.0  0.0640873632803505  0.1795092967349419  0.3301078209646064  1.0000
  C   C18       1.0  0.9359162008145886  0.8204925632577228  0.8301009835375767  1.0000
  C   C19       1.0  0.9902077839094545  0.2824541448070192  0.34021616788513154  1.0000
  C   C20       1.0  0.00980025564179237  0.7175511202065435  0.8402198495766058  1.0000
  C   C21       1.0  0.8694147500640526  0.2835607765989465  0.21837742597170262  1.0000
  C   C22       1.0  0.1305851604409725  0.7164351246071448  0.7183747961920803  1.0000
  C   C23       1.0  0.8518694887887932  0.3539280872269969  0.0404449587124631  1.0000
  C   C24       1.0  0.14813073092501133  0.6460695164895469  0.5404449587124631  1.0000
  C   C25       1.0  0.7780528764540193  0.2683965160285879  0.09665912796507571  1.0000
  C   C26       1.0  0.2219447719006311  0.731601087687956  0.5966591279650757  1.0000
  C   C27       1.0  0.8512763513366721  0.1547939525449848  0.09044864040393463  1.0000
  C   C28       1.0  0.148723201115132  0.8452070561924572  0.5904475884920828  1.0000
  C   C29       1.0  0.8227677443981776  0.10136917465140978  0.0175337926681749  1.0000
  C   C30       1.0  0.1772326299200273  0.8986292803203567  0.5175322148003971  1.0000
  C   C31       1.0  0.4553903693597405  0.6648158590448716  0.2919854836164717  1.0000
  C   C32       1.0  0.5446030639029544  0.335186852203023  0.7919854836164717  1.0000
  C   C33       1.0  0.3824022870738588  0.5507731966101659  0.302405722400465  1.0000
  C   C34       1.0  0.6176009678122937  0.44922696087204617  0.80240677431231  1.0000
  C   C35       1.0  0.3903349235526363  0.4978719406797011  0.3691495292694498  1.0000
  C   C36       1.0  0.6096675583115498  0.5021239605263901  0.8691526850049983  1.0000
  C   C37       1.0  0.46585927552276024  0.5574964103737656  0.4249339925314289  1.0000
  C   C38       1.0  0.5341521084096142  0.4425131109159182  0.9249297848840285  1.0000
  C   C39       1.0  0.5426020777983993  0.672002155650631  0.41767843054751813  1.0000
  C   C40       1.0  0.4573920227263031  0.3279971505763584  0.9176815862830665  1.0000
  C   C41       1.0  0.62685582702224  0.7293026985816411  0.4758186503970948  1.0000
  C   C42       1.0  0.3731444984515306  0.27070256643192886  0.9758181244411688  1.0000
  C   C43       1.0  0.7070017723657216  0.8391997480727156  0.4689959501393801  1.0000
  C   C44       1.0  0.2929950541225281  0.1608004094094966  0.9689996318308545  1.0000
  C   C45       1.0  0.7032607836166845  0.8951467951966732  0.4036006942618187  1.0000
  C   C46       1.0  0.29674725593456225  0.1048584698168895  0.9036006942618187  1.0000
  C   C47       1.0  0.6212837683576566  0.8408324555934283  0.3460847840950905  1.0000
  C   C48       1.0  0.3787169151693348  0.1591677018887836  0.8460868879187942  1.0000
  C   C49       1.0  0.5391593118856051  0.7272622398083612  0.3506311471098726  1.0000
  C   C50       1.0  0.4608400859618058  0.272737917673858  0.8506300951980209  1.0000
  C   C51       1.0  0.4518578019580843  0.7172029568196975  0.22399305738179012  1.0000
  C   C52       1.0  0.5481327507366628  0.2827980519177444  0.7239925314258642  1.0000
  C   C53       1.0  0.40637919899558034  0.648719474003606  0.0436716983116838  1.0000
  C   C54       1.0  0.5936200442474372  0.3512798322233833  0.5436722242676097  1.0000
  C   C55       1.0  0.39097158029103  0.7358190573256707  0.1023010571714096  1.0000
  C   C56       1.0  0.6090278175563809  0.2641811001565486  0.602304212906958  1.0000
  C   C57       1.0  0.23154115700509692  0.7998640954008849  0.094799873770576  1.0000
  C   C58       1.0  0.7684579316335274  0.20013435957088174  0.59479934781465  1.0000
  C   C59       1.0  0.2472915358134529  0.8815811919380394  0.0326166307263449  1.0000
  C   C60       1.0  0.7527117190726997  0.1184189655441799  0.532616104770419  1.0000
  N   N1        1.0  0.8085674200206155  0.3297371162553659  0.1634702571924507  1.0000
  N   N2        1.0  0.1914400011130581  0.6702647437372988  0.66347499079577  1.0000
  N   N3        1.0  0.3811673701327791  0.6703830682135106  0.1678104454846689  1.0000
  N   N4        1.0  0.6188291471466911  0.329615386758256  0.6678099195287432  1.0000
  O   O1        1.0  0.5351334677112192  0.4781083481310233  0.1488586756429839  1.0000
  O   O2        1.0  0.46485950173829593  0.521891809351196  0.6488602535107546  1.0000
  O   O3        1.0  0.7884051936001484  0.6610252195298898  0.1341729343081042  1.0000
  O   O4        1.0  0.2116003234363788  0.3389732354418769  0.6341734602640301  1.0000
  O   O5        1.0  0.777929953164488  0.5075626301561228  0.251697785725554  1.0000
  O   O6        1.0  0.22205895579746482  0.4924434861126628  0.751697785725554  1.0000
  O   O7        1.0  0.8090126772320617  0.464254169351257  0.05677483826855221  1.0000
  O   O8        1.0  0.1909917087292783  0.5357451368757324  0.5567743123126263  1.0000
  O   O9        1.0  0.043061093347318995  0.5244523850666809  0.16134486929995265  1.0000
  O   O10       1.0  0.9569377918424777  0.4755520286916591  0.6613464471677304  1.0000
  O   O11       1.0  0.22513853259810188  0.3431852462930108  0.1340161994424847  1.0000
  O   O12       1.0  0.7748619963244963  0.6568140599339785  0.6340140956187881  1.0000
  O   O13       1.0  0.30253715397495284  0.4863544574913661  0.2524709409351473  1.0000
  O   O14       1.0  0.697461112797278  0.5136465512460759  0.7524704149792215  1.0000
  O   O15       1.0  0.2982895465091601  0.5462087660960577  0.05886288329038081  1.0000
  O   O16       1.0  0.701711958884232  0.4537888376204791  0.5588655130700033  1.0000
