data_image0
_chemical_formula_structural       Zn2H28C48N6O8
_chemical_formula_sum              "Zn2 H28 C48 N6 O8"
_cell_length_a       11.802036129151325
_cell_length_b       13.191945050869885
_cell_length_c       19.366646995741657
_cell_angle_alpha    90.15127061807591
_cell_angle_beta     87.06108496789633
_cell_angle_gamma    86.85318174213599

_space_group_name_H-M_alt    "P 1"
_space_group_IT_number       1

loop_
  _space_group_symop_operation_xyz
  'x, y, z'

loop_
  _atom_site_type_symbol
  _atom_site_label
  _atom_site_symmetry_multiplicity
  _atom_site_fract_x
  _atom_site_fract_y
  _atom_site_fract_z
  _atom_site_occupancy
  Zn  Zn1       1.0  0.616957384091208  0.5035271538317473  0.4951557831459184  1.0000
  Zn  Zn2       1.0  0.3830424994324063  0.49647098695991326  0.5048420676078109  1.0000
  H   H1        1.0  0.6776910501564686  0.4786907048597512  0.27227390182271455  1.0000
  H   H2        1.0  0.6418541198368644  0.8236962829190302  0.48963424186141685  1.0000
  H   H3        1.0  0.7212593960494118  0.17804745608319908  0.4845441567899301  1.0000
  H   H4        1.0  0.2787515129568234  0.8219506753044568  0.5154569691681132  1.0000
  H   H5        1.0  0.26381739872266513  0.011606582043548  0.5171831250363611  1.0000
  H   H6        1.0  0.7361859151175736  0.9883908100269777  0.4828208159387303  1.0000
  H   H7        1.0  0.8129949350549878  0.41061792646645756  0.5639296697768758  1.0000
  H   H8        1.0  0.18700056881692723  0.5893825018864688  0.43606934984494944  1.0000
  H   H9        1.0  0.775705041984999  0.6265678024700916  0.4111089121468653  1.0000
  H   H10       1.0  0.22429224856293928  0.373431105948015  0.5888905679211405  1.0000
  H   H11       1.0  0.3149470113275825  0.3563088497296007  0.09414391061265803  1.0000
  H   H12       1.0  0.32230677901048216  0.521299100043059  0.7277281378663291  1.0000
  H   H13       1.0  0.1260406358156558  0.3545863307458958  0.0434118675957222  1.0000
  H   H14       1.0  0.978353977420703  0.4923442445570246  0.0722394783649278  1.0000
  H   H15       1.0  0.020491100425957098  0.6311958176022331  0.15325224208245913  1.0000
  H   H16       1.0  0.21010364478988916  0.6327952351759549  0.20350860675628013  1.0000
  H   H17       1.0  0.789901781266451  0.36720971051742163  0.796482365030002  1.0000
  H   H18       1.0  0.9795197310872865  0.36881821328293535  0.8467328890543513  1.0000
  H   H19       1.0  0.021650866311219413  0.5076705611288685  0.9277479029026381  1.0000
  H   H20       1.0  0.8739555884349814  0.6454163601551954  0.9565819677175114  1.0000
  H   H21       1.0  0.6850454111260831  0.6436862768840753  0.9058577823456561  1.0000
  H   H22       1.0  0.013218476232388806  0.35384151004641495  0.6036402110556978  1.0000
  H   H23       1.0  0.9867778761546975  0.6461589168522648  0.39635878245609757  1.0000
  H   H24       1.0  0.6734414756256085  0.4716943714616235  0.14289191587314323  1.0000
  H   H25       1.0  0.326559487370865  0.528285558227509  0.8571095049935168  1.0000
  H   H26       1.0  0.3136916964815626  0.5044331872624497  0.287073534548199  1.0000
  H   H27       1.0  0.6863056859468915  0.4955642000574087  0.7129249090569161  1.0000
  H   H28       1.0  0.3581550499235036  0.1763026051397105  0.5103648726662444  1.0000
  C   C1        1.0  0.47078945598702404  0.6987926563965343  0.5009403424035243  1.0000
  C   C2        1.0  0.44020577079510304  0.1341419905637053  0.5046444624565467  1.0000
  C   C3        1.0  0.5545632080171146  0.9731549585931982  0.496027140827998  1.0000
  C   C4        1.0  0.44544511099323353  0.026843934991688898  0.5039735489388165  1.0000
  C   C5        1.0  0.048201172368088414  0.4065045960085951  0.5659891745713568  1.0000
  C   C6        1.0  0.9517976803692106  0.593496585719187  0.4340097424654417  1.0000
  C   C7        1.0  0.16351803496642964  0.4165519377734269  0.5583894777151102  1.0000
  C   C8        1.0  0.8364791185056719  0.5834492509347413  0.44161104067087104  1.0000
  C   C9        1.0  0.14429587387505188  0.5385632611084998  0.47208269760974286  1.0000
  C   C10       1.0  0.8556996744472227  0.46143640940990577  0.5279168365333862  1.0000
  C   C11       1.0  0.024508031279502504  0.534116530902395  0.4756982529727694  1.0000
  C   C12       1.0  0.5292282004149769  0.3012062144051838  0.4990574782711335  1.0000
  C   C13       1.0  0.9754883203626361  0.465883897353592  0.5243012569154076  1.0000
  C   C14       1.0  0.4972406750443028  0.49924967566330736  0.3643920969784418  1.0000
  C   C15       1.0  0.5027526892949511  0.5007439256832666  0.6356075006541958  1.0000
  C   C16       1.0  0.5975559435352055  0.4838896877352923  0.24665380335072482  1.0000
  C   C17       1.0  0.4024428245375376  0.5160985973296377  0.7533482065181546  1.0000
  C   C18       1.0  0.5948602552566413  0.4796987060831268  0.17505669742643454  1.0000
  C   C19       1.0  0.4051395865628891  0.5202857829257679  0.824945793433429  1.0000
  C   C20       1.0  0.4910668003328242  0.4879258065429183  0.14253525219279342  1.0000
  C   C21       1.0  0.5089337559058364  0.5120609558725844  0.8574661853695105  1.0000
  C   C22       1.0  0.38748414905954587  0.4960834331336413  0.1828372666882245  1.0000
  C   C23       1.0  0.5379466967034007  0.1874763401691411  0.49800449034921723  1.0000
  C   C24       1.0  0.6125151104355595  0.5039109158677633  0.8171616336529297  1.0000
  C   C25       1.0  0.3921951579490397  0.5000603205147485  0.2548111291995951  1.0000
  C   C26       1.0  0.607804099311224  0.49993403255857766  0.7451893202706901  1.0000
  C   C27       1.0  0.49567325391427636  0.4951282121855271  0.287015377059042  1.0000
  C   C28       1.0  0.5043243530008468  0.5048653818898501  0.7129840900234684  1.0000
  C   C29       1.0  0.505558436602513  0.5067906594957775  0.9334990567211463  1.0000
  C   C30       1.0  0.4944419388549051  0.4931991396870004  0.06650238826144063  1.0000
  C   C31       1.0  0.2753226054894995  0.49524771912331284  0.1518509033224831  1.0000
  C   C32       1.0  0.250541781119054  0.4170709330518463  0.1065621938902694  1.0000
  C   C33       1.0  0.1442907929152213  0.41602387763482074  0.07826681721196142  1.0000
  C   C34       1.0  0.46206332082719115  0.8125225477926603  0.5019951144447887  1.0000
  C   C35       1.0  0.06112109975499181  0.493010168759028  0.09479393935433221  1.0000
  C   C36       1.0  0.08468998715345322  0.5705034936120369  0.14038647678633964  1.0000
  C   C37       1.0  0.1907421071966979  0.5713079396275446  0.16896407296516716  1.0000
  C   C38       1.0  0.7246787927933125  0.504753458241744  0.8481479353842332  1.0000
  C   C39       1.0  0.8092615751440917  0.4286977708807455  0.8310279856489872  1.0000
  C   C40       1.0  0.9153167314102718  0.4295082778273169  0.8596029103464036  1.0000
  C   C41       1.0  0.9388798155334046  0.5069993339272469  0.9051951086069895  1.0000
  C   C42       1.0  0.8557094456998727  0.583982606026076  0.9217284459556369  1.0000
  C   C43       1.0  0.749454573502881  0.5829294897749193  0.8934352504923951  1.0000
  C   C44       1.0  0.3464520317679103  0.970265921274098  0.5109111584565511  1.0000
  C   C45       1.0  0.6535572705986041  0.029730694638402597  0.48909001601140295  1.0000
  C   C46       1.0  0.3542293244221568  0.8657898300297049  0.5099248060918598  1.0000
  C   C47       1.0  0.6457798468281055  0.13420905531442168  0.490073275683038  1.0000
  C   C48       1.0  0.559804065209292  0.865859935522678  0.4953556661341312  1.0000
  N   N1        1.0  0.4225029726962078  0.5620168552841632  0.03720737872974671  1.0000
  N   N2        1.0  0.5774994169036916  0.4379676252900991  0.9627934846709181  1.0000
  N   N3        1.0  0.4279995098271955  0.5688065756916955  0.9691606114855774  1.0000
  N   N4        1.0  0.5720020771977873  0.43117714578767863  0.030839759793657603  1.0000
  N   N5        1.0  0.7900394279912463  0.5179004630466295  0.48812861484009323  1.0000
  N   N6        1.0  0.20995942549100022  0.4821007173238455  0.5118697858203234  1.0000
  O   O1        1.0  0.5705002585016176  0.6560240591688996  0.49639922155632393  1.0000
  O   O2        1.0  0.42951557273357815  0.3439770785437162  0.5035934931398103  1.0000
  O   O3        1.0  0.378353159644412  0.6529657532297077  0.5047392294207782  1.0000
  O   O4        1.0  0.6216664634699143  0.3470285622272299  0.4952595606561445  1.0000
  O   O5        1.0  0.5941555559873279  0.5012955426399585  0.3902815485607008  1.0000
  O   O6        1.0  0.4058387028073652  0.4986972967032556  0.6097175047304617  1.0000
  O   O7        1.0  0.40175869065879516  0.5000032153443641  0.3982843658174318  1.0000
  O   O8        1.0  0.5982353436492289  0.4999934172433313  0.6017136639963283  1.0000
