data_image0
_chemical_formula_structural       FeCuH30C19N11
_chemical_formula_sum              "Fe1 Cu1 H30 C19 N11"
_cell_length_a       8.193356869016034
_cell_length_b       8.857547487460502
_cell_length_c       9.782216055862833
_cell_angle_alpha    111.962682949656
_cell_angle_beta     94.7998997801422
_cell_angle_gamma    117.82629300738132

_space_group_name_H-M_alt    "P 1"
_space_group_IT_number       1

loop_
  _space_group_symop_operation_xyz
  'x, y, z'

loop_
  _atom_site_type_symbol
  _atom_site_label
  _atom_site_symmetry_multiplicity
  _atom_site_fract_x
  _atom_site_fract_y
  _atom_site_fract_z
  _atom_site_occupancy
  Fe  Fe1       1.0  0.008704793619550321  0.253993645219353  0.2486429565267656  1.0000
  Cu  Cu1       1.0  0.0058109022606843775  0.7533679465142598  0.7542574305344871  1.0000
  H   H1        1.0  0.7274702637191409  0.5006197801928707  0.5126555840064171  1.0000
  H   H2        1.0  0.9610259345755097  0.5780470842311016  0.9129446235522137  1.0000
  H   H3        1.0  0.2862388336830648  0.0006192959045207996  0.9959602459387753  1.0000
  H   H4        1.0  0.05618491842618317  0.9203727831268793  0.5909736012121413  1.0000
  H   H5        1.0  0.6684759036930428  0.3382805029491393  0.23495576589896663  1.0000
  H   H6        1.0  0.3312594207285429  0.12355059900990988  0.2945513191902904  1.0000
  H   H7        1.0  0.6875198030146519  0.8991575815626119  0.29823658652598073  1.0000
  H   H8        1.0  0.3514861829556253  0.7100302922154427  0.3144292099715073  1.0000
  H   H9        1.0  0.17748188257611014  0.7593971115872974  0.25744109678513627  1.0000
  H   H10       1.0  0.3203419147307827  0.885693677870968  0.4553680864854001  1.0000
  H   H11       1.0  0.5012412372008868  0.2909169323182255  0.5967338018869128  1.0000
  H   H12       1.0  0.6300167223206187  0.48338830204275496  0.7909999157862374  1.0000
  H   H13       1.0  0.7489398164105338  0.2588191283526058  0.7410288881826119  1.0000
  H   H14       1.0  0.8174807666519613  0.3023007847574918  0.5834764301316397  1.0000
  H   H15       1.0  0.15142095213565912  0.4578868627436635  0.6926285509578562  1.0000
  H   H16       1.0  0.10849377310789517  0.40513761352108446  0.8504108255388517  1.0000
  H   H17       1.0  0.4437942787534439  0.6653460651596816  0.9376440445180165  1.0000
  H   H18       1.0  0.31445270816281823  0.7526951504863745  0.03854881718523719  1.0000
  H   H19       1.0  0.5595481283632252  0.9728111951461214  0.9477020911901234  1.0000
  H   H20       1.0  0.4037832795358011  0.7982604270054734  0.753235838655044  1.0000
  H   H21       1.0  0.39819367584227894  0.0392381874295111  0.7283834298515401  1.0000
  H   H22       1.0  0.505802118825457  0.2255080254236219  0.9253717145732027  1.0000
  H   H23       1.0  0.1876627115437515  0.20285207712949932  0.9194451484274283  1.0000
  H   H24       1.0  0.26228968571462014  0.24574371079092563  0.7637294015864811  1.0000
  H   H25       1.0  0.9054715683089111  0.09198230057119618  0.6402229883916633  1.0000
  H   H26       1.0  0.8564369664345717  0.0441867803895093  0.799047883378968  1.0000
  H   H27       1.0  0.6932469808835576  0.7370149860620145  0.4534895523663138  1.0000
  H   H28       1.0  0.5693589579878663  0.8326256861586714  0.5549474260477183  1.0000
  H   H29       1.0  0.6030984883454522  0.7084295892154414  0.7443285765896731  1.0000
  H   H30       1.0  0.45257183107630533  0.5280442795271653  0.5492818124509568  1.0000
  C   C1        1.0  0.07338000011553451  0.4887515845163719  0.419755742078145  1.0000
  C   C2        1.0  0.9435016450788537  0.016350885612439497  0.08129150231694382  1.0000
  C   C3        1.0  0.9403879869733841  0.33727001331200773  0.11180751579429678  1.0000
  C   C4        1.0  0.0817370455082767  0.17324546051189324  0.38609117013862  1.0000
  C   C5        1.0  0.259187615318524  0.3645916505232094  0.2301189012502292  1.0000
  C   C6        1.0  0.6248556354485043  0.21777636785876806  0.25944498814657624  1.0000
  C   C7        1.0  0.4561263863946863  0.1115955307732222  0.28587547841208766  1.0000
  C   C8        1.0  0.6405244837268994  0.9926728005814878  0.29115636825520136  1.0000
  C   C9        1.0  0.3215755062871822  0.8235383593627646  0.3357198476154721  1.0000
  C   C10       1.0  0.6455737398542142  0.41580556760195003  0.6771958184145035  1.0000
  C   C11       1.0  0.7933601837075556  0.3625772736892827  0.6947100222205691  1.0000
  C   C12       1.0  0.14246541222527045  0.5141818140494365  0.8106831922394804  1.0000
  C   C13       1.0  0.3322892647775575  0.6992161827280158  0.9235900206515454  1.0000
  C   C14       1.0  0.40811811092384426  0.8574732004466412  0.8750210406276295  1.0000
  C   C15       1.0  0.3682376628817181  0.09719574082386372  0.8372568254168087  1.0000
  C   C16       1.0  0.21612314897545562  0.14254701307063297  0.8106286536981956  1.0000
  C   C17       1.0  0.8691935747932079  0.9849130534448703  0.682612553026786  1.0000
  C   C18       1.0  0.6802312999444808  0.7982925794873951  0.5698659284960712  1.0000
  C   C19       1.0  0.602580639384257  0.645504107374897  0.6239500393326053  1.0000
  N   N1        1.0  0.10373885838491492  0.6289694312795147  0.526651993855772  1.0000
  N   N2        1.0  0.9077194801231696  0.8707759376530716  0.977766749031538  1.0000
  N   N3        1.0  0.8947630589915292  0.389137950135428  0.029182070343267672  1.0000
  N   N4        1.0  0.12803516130676937  0.12224953243593718  0.469326167975666  1.0000
  N   N5        1.0  0.4146833310194467  0.4333768230527896  0.21456972976207572  1.0000
  N   N6        1.0  0.7385602348966385  0.14199886988090776  0.263141972617106  1.0000
  N   N7        1.0  0.46932401266785445  0.9712650875111634  0.3066556320886561  1.0000
  N   N8        1.0  0.7225949808243968  0.5633234570545583  0.6233071259944225  1.0000
  N   N9        1.0  0.9789728488469507  0.542334926509966  0.8044023429097538  1.0000
  N   N10       1.0  0.2894633023199732  0.942673432975859  0.884120884096312  1.0000
  N   N11       1.0  0.03427848773538493  0.9600693639922612  0.6977654505250612  1.0000
