data_image0
_chemical_formula_structural       V8Ni2H8C8N4O20
_chemical_formula_sum              "V8 Ni2 H8 C8 N4 O20"
_cell_length_a       6.8138178902680675
_cell_length_b       7.8917808634468285
_cell_length_c       11.601853382347757
_cell_angle_alpha    89.99945598283823
_cell_angle_beta     90.00086861489932
_cell_angle_gamma    115.56695854463639

_space_group_name_H-M_alt    "P 1"
_space_group_IT_number       1

loop_
  _space_group_symop_operation_xyz
  'x, y, z'

loop_
  _atom_site_type_symbol
  _atom_site_label
  _atom_site_symmetry_multiplicity
  _atom_site_fract_x
  _atom_site_fract_y
  _atom_site_fract_z
  _atom_site_occupancy
  V   V1        1.0  0.34742978489768467  0.4202256214611921  0.3952775593319799  1.0000
  V   V2        1.0  0.6525610041415463  0.5797599410522024  0.8952795543523281  1.0000
  V   V3        1.0  0.927352730076784  0.5801445545382292  0.10468382049267431  1.0000
  V   V4        1.0  0.0726508893378863  0.4198552217387713  0.6046894273165436  1.0000
  V   V5        1.0  0.6525621214546719  0.579757917432687  0.6047242534987092  1.0000
  V   V6        1.0  0.3474301368543635  0.42022500264723545  0.1047188107454176  1.0000
  V   V7        1.0  0.07264983588220282  0.4198544356943826  0.895311958817075  1.0000
  V   V8        1.0  0.9273537834126628  0.5801479825301356  0.3953141093702969  1.0000
  Ni  Ni1       1.0  0.18678091878390293  0.00015242766216519996  0.2500005445912166  1.0000
  Ni  Ni2       1.0  0.813218072961874  0.9998423486143154  0.7499986824411594  1.0000
  H   H1        1.0  0.8693499837360578  9.872384638499995e-05  0.0702357610341551  1.0000
  H   H2        1.0  0.13065469603932928  0.9999166908458932  0.5702381502458281  1.0000
  H   H3        1.0  0.8693482567900547  9.775147076849998e-05  0.4297619386721507  1.0000
  H   H4        1.0  0.13065156463515143  0.9999129090964229  0.9297651898178502  1.0000
  H   H5        1.0  0.4971909834413283  2.4184163699200016e-05  0.0732474123052711  1.0000
  H   H6        1.0  0.5028217425523707  0.9999954278695923  0.5732410552669053  1.0000
  H   H7        1.0  0.49718554982680985  2.182360231020001e-05  0.4267573097988945  1.0000
  H   H8        1.0  0.5028141391927577  0.9999916627235876  0.9267544004803767  1.0000
  C   C1        1.0  0.7877682966635079  0.00010464709546910001  0.15076821956581912  1.0000
  C   C2        1.0  0.21224270480338703  0.9999075220134513  0.6507540982857664  1.0000
  C   C3        1.0  0.787762543946357  0.0001027059215204  0.34924340486227123  1.0000
  C   C4        1.0  0.2122347823212749  0.9999041762595481  0.8492310074395635  1.0000
  C   C5        1.0  0.5839616607754152  4.5535758232500024e-05  0.1514327212698632  1.0000
  C   C6        1.0  0.4160455928053537  0.9999708441835647  0.6514445524780897  1.0000
  C   C7        1.0  0.5839581253407502  4.219333686709999e-05  0.34855553644782594  1.0000
  C   C8        1.0  0.41604135517636825  0.9999660970671156  0.8485708153824518  1.0000
  N   N1        1.0  0.8895515669762659  0.0001557159524879  0.24999247532969096  1.0000
  N   N2        1.0  0.11046108265968255  0.9998517019364779  0.75000933751668  1.0000
  N   N3        1.0  0.4821737904400295  3.888383818659999e-05  0.2500096204200092  1.0000
  N   N4        1.0  0.5178183134353986  0.9999685356090279  0.7499878826784183  1.0000
  O   O1        1.0  0.28767188868587823  0.19642861493889535  0.377742883882199  1.0000
  O   O2        1.0  0.7123349627642739  0.8035753028849013  0.8777241466533497  1.0000
  O   O3        1.0  0.09123709780708117  0.8039682610091105  0.12213951033180591  1.0000
  O   O4        1.0  0.908758560290579  0.19601175507303029  0.6221522963478848  1.0000
  O   O5        1.0  0.7123343779397047  0.8035689702182506  0.6222744437298645  1.0000
  O   O6        1.0  0.2876726448494367  0.1964279012190388  0.12225870369655922  1.0000
  O   O7        1.0  0.9087564021024478  0.19600965884763605  0.877848511624066  1.0000
  O   O8        1.0  0.0912392794468744  0.8039689738736512  0.3778581358308415  1.0000
  O   O9        1.0  0.6459766153815636  0.557538733399319  0.4288489477399653  1.0000
  O   O10       1.0  0.35402043905248354  0.44246350390584865  0.9288439910625925  1.0000
  O   O11       1.0  0.088928235504433  0.44288191535278537  0.071066064423043  1.0000
  O   O12       1.0  0.9110596098145365  0.5570997823823731  0.571070512273657  1.0000
  O   O13       1.0  0.35402148494176083  0.4424630666233752  0.5711554508533255  1.0000
  O   O14       1.0  0.6459783002931021  0.5575425103149101  0.0711492024137144  1.0000
  O   O15       1.0  0.9110557569458564  0.5570946004623635  0.9289288529449422  1.0000
  O   O16       1.0  0.0889300636901922  0.44288516141354234  0.4289330244050547  1.0000
  O   O17       1.0  0.36866242912447683  0.5037066276066752  0.24999887292354836  1.0000
  O   O18       1.0  0.6313224548674583  0.4962628644342713  0.7500012160585358  1.0000
  O   O19       1.0  0.8654944875319687  0.4968028660435379  0.24999938821956397  1.0000
  O   O20       1.0  0.13451433549058578  0.5032115758335747  0.7499998387933645  1.0000
