data_image0
_chemical_formula_structural       Li2Mo2H50C42S2N12O16
_chemical_formula_sum              "Li2 Mo2 H50 C42 S2 N12 O16"
_cell_length_a       10.44763483089646
_cell_length_b       10.759199509315515
_cell_length_c       11.685
_cell_angle_alpha    90.15650492925678
_cell_angle_beta     99.51960570434107
_cell_angle_gamma    94.36957938206417

_space_group_name_H-M_alt    "P 1"
_space_group_IT_number       1

loop_
  _space_group_symop_operation_xyz
  'x, y, z'

loop_
  _atom_site_type_symbol
  _atom_site_label
  _atom_site_symmetry_multiplicity
  _atom_site_fract_x
  _atom_site_fract_y
  _atom_site_fract_z
  _atom_site_occupancy
  Li  Li1       1.0  0.8878315016939027  0.2112435732990932  0.6310797771516546  1.0000
  Li  Li2       1.0  0.1121677250089519  0.7887552906489574  0.3689194210037242  1.0000
  Mo  Mo1       1.0  0.7024235907786576  0.5593792617988669  0.814090319078339  1.0000
  Mo  Mo2       1.0  0.29757668209321514  0.4406205344091134  0.18590903612075488  1.0000
  H   H1        1.0  0.019912889266187506  0.6444666251993567  0.9293681961910067  1.0000
  H   H2        1.0  0.9800884297747032  0.3555341032685461  0.07063131605180933  1.0000
  H   H3        1.0  0.9256262236950903  0.0226781549477408  0.8472101244820462  1.0000
  H   H4        1.0  0.07437315430702542  0.977322573520162  0.1527891007357027  1.0000
  H   H5        1.0  0.1244488151954499  0.8875114490771522  0.9513406988552262  1.0000
  H   H6        1.0  0.8755515333260534  0.11248927939075058  0.04865952567308805  1.0000
  H   H7        1.0  0.6167559212221647  0.5390121792064377  0.5175270090170158  1.0000
  H   H8        1.0  0.38324338113032047  0.4609876170015426  0.4824730584675762  1.0000
  H   H9        1.0  0.614345486800481  0.941114530273623  0.5290719330508793  1.0000
  H   H10       1.0  0.3856547104217682  0.05888433367443469  0.47092826441506463  1.0000
  H   H11       1.0  0.5693672054019032  0.7430130251443146  0.3774271565911319  1.0000
  H   H12       1.0  0.4306320213009514  0.256985838803736  0.622573753160303  1.0000
  H   H13       1.0  0.4670132628625226  0.6074447190378578  0.9764361549441603  1.0000
  H   H14       1.0  0.5329860394899555  0.3925550771701225  0.023563912540431886  1.0000
  H   H15       1.0  0.5053744614915061  0.9929239433734267  0.8737115089787864  1.0000
  H   H16       1.0  0.4946238703415845  0.0070758528345536  0.12628841499326882  1.0000
  H   H17       1.0  0.37035224677479317  0.83419363941789  0.003433587341277213  1.0000
  H   H18       1.0  0.6296470555776921  0.1658061567900901  0.9965647685472517  1.0000
  H   H19       1.0  0.9765057739493841  0.24050814462050596  0.3352302969680139  1.0000
  H   H20       1.0  0.023494574572119103  0.759492583847404  0.664769071762265  1.0000
  H   H21       1.0  0.040144173332251405  0.3186837329333372  0.470611059553022  1.0000
  H   H22       1.0  0.9598560995396213  0.6813160632746431  0.5293882956460791  1.0000
  H   H23       1.0  0.8867580644020026  0.4803450620946492  0.4289816898265287  1.0000
  H   H24       1.0  0.1132431789892649  0.5196547341133311  0.5710195204811583  1.0000
  H   H25       1.0  0.9238521700571666  0.4541271162097757  0.287607599569803  1.0000
  H   H26       1.0  0.076149148983724  0.5458736122581271  0.7123936242690689  1.0000
  H   H27       1.0  0.7332583972421604  0.3112247212693973  0.23380242212540736  1.0000
  H   H28       1.0  0.26674202692897353  0.6887769394584353  0.7661978159340918  1.0000
  H   H29       1.0  0.6693250830989612  0.4210738405511307  0.317292286834423  1.0000
  H   H30       1.0  0.3306763115915601  0.5789278201767019  0.6827080947376061  1.0000
  H   H31       1.0  0.6777944695367495  0.2834927852655156  0.4809757048243668  1.0000
  H   H32       1.0  0.3222068495041412  0.7165079432023944  0.5190238074184491  1.0000
  H   H33       1.0  0.6748950382651984  0.1652971428707701  0.3728915345429725  1.0000
  H   H34       1.0  0.32510531025630485  0.8347035855971398  0.6271078341873064  1.0000
  H   H35       1.0  0.09099134305753862  0.3099493896913117  0.828443431530161  1.0000
  H   H36       1.0  0.909008034944577  0.6900513387765912  0.17155750528365127  1.0000
  H   H37       1.0  0.22037943000617594  0.3219979169684919  0.7448021452665118  1.0000
  H   H38       1.0  0.7796199479959327  0.6780028114994181  0.2551979357492725  1.0000
  H   H39       1.0  0.16212132902724363  0.1153065688856145  0.9127441534545611  1.0000
  H   H40       1.0  0.8378790194942596  0.8846941595822884  0.08725607107375309  1.0000
  H   H41       1.0  0.3156015104611924  0.19419906508115758  0.9010337869939133  1.0000
  H   H42       1.0  0.6843978675409232  0.8058016633867453  0.09896629402186358  1.0000
  H   H43       1.0  0.3322784989120748  0.08398170312884899  0.7269684645108183  1.0000
  H   H44       1.0  0.6677208034404032  0.9160180930791313  0.27303245877180154  1.0000
  H   H45       1.0  0.2395528070334407  0.9659266281908359  0.7895358870818399  1.0000
  H   H46       1.0  0.7604466466182984  0.0340750325369967  0.21046335166709437  1.0000
  H   H47       1.0  0.1555402456740254  0.0880855113209051  0.5744881550199565  1.0000
  H   H48       1.0  0.8444592079777139  0.9119161494069202  0.42551279532504077  1.0000
  H   H49       1.0  0.048813072257907215  0.999478662909624  0.6536916522170699  1.0000
  H   H50       1.0  0.9511863057442014  0.0005220655582789  0.3463084287987073  1.0000
  C   C1        1.0  0.7589893387021647  0.48797747410472425  0.9641348691066509  1.0000
  C   C2        1.0  0.24101287520849013  0.512022322103256  0.0358656289155448  1.0000
  C   C3        1.0  0.5564601450418466  0.4344172768648278  0.794203261801037  1.0000
  C   C4        1.0  0.4435391573106387  0.5655825193431525  0.20579766148159  1.0000
  C   C5        1.0  0.7958480773569294  0.4381202132889186  0.7483746922033419  1.0000
  C   C6        1.0  0.2041532416839615  0.5618805151789843  0.25162567583750217  1.0000
  C   C7        1.0  0.6906442730892124  0.8662736357143075  0.7662423118868844  1.0000
  C   C8        1.0  0.30935510491289614  0.13372709275359537  0.23375862492692784  1.0000
  C   C9        1.0  0.9744541882406069  0.7288995421321544  0.9012678181243885  1.0000
  C   C10       1.0  0.025546084631265804  0.2711002540758258  0.09873324867076859  1.0000
  C   C11       1.0  0.9288036720809671  0.9233801497108088  0.858738664488328  1.0000
  C   C12       1.0  0.071195630271518  0.07661964649717129  0.141261402996264  1.0000
  C   C13       1.0  0.027414988506627914  0.853325477609026  0.9104020774537672  1.0000
  C   C14       1.0  0.9725862548846395  0.1466743185989543  0.08959742125786362  1.0000
  C   C15       1.0  0.6225427084495436  0.6371754203220164  0.5409496714704147  1.0000
  C   C16       1.0  0.3774574887727056  0.36282344362604135  0.45905052599552926  1.0000
  C   C17       1.0  0.6215867028885285  0.8430678216487308  0.5455195564533638  1.0000
  C   C18       1.0  0.37841356998334424  0.1569319745592495  0.4544815103417931  1.0000
  C   C19       1.0  0.5995427424751157  0.7414719994874659  0.4705537726220824  1.0000
  C   C20       1.0  0.40045655987736956  0.2585277967205144  0.5294454390644745  1.0000
  C   C21       1.0  0.4937182207861071  0.6965491904573327  0.9406673688185663  1.0000
  C   C22       1.0  0.5062810059167475  0.3034496734907179  0.05933268513484791  1.0000
  C   C23       1.0  0.511670256719782  0.8945406889154341  0.8891173294393083  1.0000
  C   C24       1.0  0.4883280751133086  0.1054591072925462  0.11088173873472579  1.0000
  C   C25       1.0  0.44383670792747415  0.8127208965538201  0.9525068854799059  1.0000
  C   C26       1.0  0.5561635649443987  0.1872788996541601  0.04749332551722321  1.0000
  C   C27       1.0  0.9519968174179922  0.2974328679315335  0.40613011308739994  1.0000
  C   C28       1.0  0.048003455453880406  0.7025669282764468  0.5938692421116939  1.0000
  C   C29       1.0  0.8824233176641486  0.410385480505262  0.3592884097802339  1.0000
  C   C30       1.0  0.1175770308573547  0.589615247962648  0.640710958950045  1.0000
  C   C31       1.0  0.7427618575186372  0.3528594495422794  0.32092218853379956  1.0000
  C   C32       1.0  0.2572375961331019  0.647142211185546  0.6790787618111906  1.0000
  C   C33       1.0  0.7271683590660913  0.2521893614870336  0.4110495026883143  1.0000
  C   C34       1.0  0.2728319138057813  0.7478104347209467  0.5889498525107797  1.0000
  C   C35       1.0  0.1517617542443759  0.2568870192516357  0.7812542753802135  1.0000
  C   C36       1.0  0.8482385942771273  0.7431137092162672  0.2187459491480936  1.0000
  C   C37       1.0  0.2222704024597917  0.1566187352242778  0.8516953459839911  1.0000
  C   C38       1.0  0.7777309165811062  0.8433819932436251  0.1483050220568529  1.0000
  C   C39       1.0  0.23964745449304561  0.0617501006854226  0.7576583257441882  1.0000
  C   C40       1.0  0.7603519235090702  0.9382506277824803  0.2423426110696241  1.0000
  C   C41       1.0  0.1246131156568921  0.0769916182074439  0.6596970124765136  1.0000
  C   C42       1.0  0.8753871572149805  0.9230081780005364  0.3403040543186434  1.0000
  S   S1        1.0  0.6833418607443491  0.0428186983782695  0.7401183725370258  1.0000
  S   S2        1.0  0.316657441608129  0.9571810978297107  0.2598808391495311  1.0000
  N   N1        1.0  0.8509112927834721  0.7217994505395353  0.8471217904459108  1.0000
  N   N2        1.0  0.14908898008840052  0.278200345668445  0.152877564753183  1.0000
  N   N3        1.0  0.8227851598938685  0.8418847838032731  0.8208223057205046  1.0000
  N   N4        1.0  0.17721511297800424  0.158115012404707  0.1791770494785894  1.0000
  N   N5        1.0  0.6557067866700523  0.6711357848881718  0.6529327016905313  1.0000
  N   N6        1.0  0.3442915451630384  0.3288640113198085  0.3470672222815239  1.0000
  N   N7        1.0  0.6560170810830215  0.7986269910000913  0.6552316312153579  1.0000
  N   N8        1.0  0.34398311613922067  0.20137187294796627  0.3447685662505791  1.0000
  N   N9        1.0  0.5865740048340413  0.705296585338317  0.8744612077484959  1.0000
  N   N10       1.0  0.41342634368746195  0.2947041431295929  0.1255390167798183  1.0000
  N   N11       1.0  0.5978512212804645  0.8276575650802016  0.8427626007667826  1.0000
  N   N12       1.0  0.40214808107202066  0.1723422311277787  0.15723746671780958  1.0000
  O   O1        1.0  0.7967624972687021  0.44767867430508795  0.0570123408324577  1.0000
  O   O2        1.0  0.20324076281097092  0.552322054162822  0.9429874584354181  1.0000
  O   O3        1.0  0.4665677879702131  0.3588063356070563  0.7873683789968737  1.0000
  O   O4        1.0  0.5334334554210542  0.641193460600924  0.2126319755127852  1.0000
  O   O5        1.0  0.8491611734023579  0.3595847726448511  0.7055386386534221  1.0000
  O   O6        1.0  0.15083812895012733  0.6404150235631292  0.2944614288311698  1.0000
  O   O7        1.0  0.7224756741347919  0.0970044420281795  0.8556332305346855  1.0000
  O   O8        1.0  0.27752549360684503  0.9029944219198782  0.14436711044378817  1.0000
  O   O9        1.0  0.7788574868998239  0.0658660282565151  0.6623457721644286  1.0000
  O   O10       1.0  0.2211418154526612  0.9341337679514651  0.33765429532016356  1.0000
  O   O11       1.0  0.5494283823472799  0.0531611899917834  0.6862173997251232  1.0000
  O   O12       1.0  0.4505708443555748  0.9468376739562743  0.3137826542282909  1.0000
  O   O13       1.0  0.858855073810723  0.2251696720662295  0.4639733498496951  1.0000
  O   O14       1.0  0.1411451990611496  0.7748301241417436  0.5360268611474338  1.0000
  O   O15       1.0  0.0654534523754293  0.1889774772384243  0.6876739209866827  1.0000
  O   O16       1.0  0.9345459256266794  0.8110232512294786  0.3123261600290945  1.0000
