data_image0
_chemical_formula_structural       Na2H22C14S2O16
_chemical_formula_sum              "Na2 H22 C14 S2 O16"
_cell_length_a       5.483298472246602
_cell_length_b       7.804742746719628
_cell_length_c       12.772282920423523
_cell_angle_alpha    88.38183668306407
_cell_angle_beta     78.53042410051337
_cell_angle_gamma    83.63437970147393

_space_group_name_H-M_alt    "P 1"
_space_group_IT_number       1

loop_
  _space_group_symop_operation_xyz
  'x, y, z'

loop_
  _atom_site_type_symbol
  _atom_site_label
  _atom_site_symmetry_multiplicity
  _atom_site_fract_x
  _atom_site_fract_y
  _atom_site_fract_z
  _atom_site_occupancy
  Na  Na1       1.0  0.6078544361429012  0.7392707725238665  0.8387157402911711  1.0000
  Na  Na2       1.0  0.3921439065803869  0.26072790199251034  0.16128649612421947  1.0000
  H   H1        1.0  0.7293692478231223  0.0951162062834712  0.3224196312393559  1.0000
  H   H2        1.0  0.27061552863430194  0.9048849749730934  0.67758676161381  1.0000
  H   H3        1.0  0.7679016917096249  0.0439413268050401  0.9489675483922682  1.0000
  H   H4        1.0  0.23210601481577  0.9560573914488231  0.051032393783302196  1.0000
  H   H5        1.0  0.8551227239570237  0.8604229304907207  0.9929847628220899  1.0000
  H   H6        1.0  0.14488315540242522  0.1395757911964495  0.0070145381825454985  1.0000
  H   H7        1.0  0.5055492325833697  0.7277627998381887  0.06145888849783179  1.0000
  H   H8        1.0  0.494460124744478  0.2722372128896069  0.9385409099352486  1.0000
  H   H9        1.0  0.26034330466248434  0.6531413745265269  0.047923281343805996  1.0000
  H   H10       1.0  0.7396683628282121  0.3468560737557666  0.9520755851759404  1.0000
  H   H11       1.0  0.12059973182309858  0.9219637310370812  0.8384210196196448  1.0000
  H   H12       1.0  0.8794003268376188  0.07803625535439809  0.1615795015976715  1.0000
  H   H13       1.0  0.29384171148609545  0.0678096996281567  0.8080508160112316  1.0000
  H   H14       1.0  0.7061604484065074  0.9321890115244925  0.19194877410710376  1.0000
  H   H15       1.0  0.7547906296824608  0.24343122909163378  0.7694560077545631  1.0000
  H   H16       1.0  0.24521701170795765  0.7565674717610661  0.2305455058765844  1.0000
  H   H17       1.0  0.6748469949136651  0.1414935115449936  0.5976371832250607  1.0000
  H   H18       1.0  0.32514496545294963  0.8585103126968646  0.4023647043904859  1.0000
  H   H19       1.0  0.3342771693735856  0.3493320906966773  0.427402870008315  1.0000
  H   H20       1.0  0.6657066791728782  0.6506769128057072  0.57259567045309  1.0000
  H   H21       1.0  0.41531653018231673  0.45582743503681655  0.6001157355913874  1.0000
  H   H22       1.0  0.5846832734538907  0.5441751732709007  0.3998808586157026  1.0000
  C   C1        1.0  0.09011808686484812  0.3561399955614632  0.6939300305466746  1.0000
  C   C2        1.0  0.9098861091246636  0.6438574229511927  0.30607019992825  1.0000
  C   C3        1.0  0.8813833733808925  0.2674482875907103  0.6947066705261163  1.0000
  C   C4        1.0  0.1186207574736501  0.7325491135207897  0.30529513140437814  1.0000
  C   C5        1.0  0.8360763705605552  0.2108834107624844  0.59859692349778  1.0000
  C   C6        1.0  0.16392509740416736  0.7891191506090252  0.4014042405191702  1.0000
  C   C7        1.0  0.9994044664889261  0.24210004474532099  0.502337014185052  1.0000
  C   C8        1.0  0.0005879768746055071  0.7579012184843492  0.49766330034622536  1.0000
  C   C9        1.0  0.20950240245262117  0.3281404149454943  0.5030836774028487  1.0000
  C   C10       1.0  0.7904878610180006  0.6718634475319974  0.4969144261306155  1.0000
  C   C11       1.0  0.2549665816657338  0.3863172619714205  0.5985237123977782  1.0000
  C   C12       1.0  0.745031264534589  0.6136853149672915  0.4014753835495171  1.0000
  C   C13       1.0  0.9576502125277884  0.18912121569948684  0.3966960337514466  1.0000
  C   C14       1.0  0.042330733234273075  0.8108812703309597  0.6033082918464103  1.0000
  S   S1        1.0  0.1527255678309771  0.4291983400221539  0.8161133441279135  1.0000
  S   S2        1.0  0.8472806181619035  0.5707991185600817  0.1838835988790208  1.0000
  O   O1        1.0  0.9121554491846736  0.5052433532352012  0.8789044376268436  1.0000
  O   O2        1.0  0.08786000290785274  0.49475412298277627  0.1210925683236326  1.0000
  O   O3        1.0  0.24601145455044113  0.26881127046443953  0.8698413823053315  1.0000
  O   O4        1.0  0.7540001017117463  0.7311874931262637  0.1301551278454056  1.0000
  O   O5        1.0  0.3433153817790641  0.5473027097434908  0.7886796499064843  1.0000
  O   O6        1.0  0.6566948303141019  0.4526934962683383  0.2113146459890487  1.0000
  O   O7        1.0  0.1146155363038943  0.20387719109158553  0.3137420331095342  1.0000
  O   O8        1.0  0.8853665502116006  0.7961318332452691  0.6862542947253657  1.0000
  O   O9        1.0  0.7404818347956735  0.12748824465995057  0.3994149678953177  1.0000
  O   O10       1.0  0.2595033920911833  0.8725103668838442  0.6005906376013641  1.0000
  O   O11       1.0  0.837926624834772  0.9236369108291028  0.9269783708583644  1.0000
  O   O12       1.0  0.16207535869434514  0.07636309823080012  0.07302043434653879  1.0000
  O   O13       1.0  0.36831600311005275  0.7450514448292082  0.020934430706198295  1.0000
  O   O14       1.0  0.6316898436819117  0.2549472681573874  0.9790656560262292  1.0000
  O   O15       1.0  0.2857679248345237  0.9449725041894722  0.7933572382909944  1.0000
  O   O16       1.0  0.7142321338261939  0.055027482202  0.20664328292632209  1.0000
