data_image0
_chemical_formula_structural       Mn4H56C20O32
_chemical_formula_sum              "Mn4 H56 C20 O32"
_cell_length_a       6.9146886265315475
_cell_length_b       7.438024234281994
_cell_length_c       21.06731083042838
_cell_angle_alpha    85.3948542523141
_cell_angle_beta     81.18243676769627
_cell_angle_gamma    62.307928998356005

_space_group_name_H-M_alt    "P 1"
_space_group_IT_number       1

loop_
  _space_group_symop_operation_xyz
  'x, y, z'

loop_
  _atom_site_type_symbol
  _atom_site_label
  _atom_site_symmetry_multiplicity
  _atom_site_fract_x
  _atom_site_fract_y
  _atom_site_fract_z
  _atom_site_occupancy
  Mn  Mn1       1.0  0.7330171550193044  0.6088064796435759  0.6833909872386242  1.0000
  Mn  Mn2       1.0  0.024704093504276485  0.8889177119896203  0.8163223795549327  1.0000
  Mn  Mn3       1.0  0.2669851838233158  0.3911927304637927  0.3166087316767658  1.0000
  Mn  Mn4       1.0  0.9752963873947565  0.1110814981177484  0.1836777286224773  1.0000
  H   H1        1.0  0.465669589290485  0.66569484444409  0.9070401032892904  1.0000
  H   H2        1.0  0.04098702202874462  0.8330649234547989  0.5908842380170254  1.0000
  H   H3        1.0  0.5343244665504232  0.3343089209840997  0.09295973878877818  1.0000
  H   H4        1.0  0.9590170122146804  0.1669373235331193  0.4091166681337696  1.0000
  H   H5        1.0  0.7127931722842863  0.4375567857372217  0.9085272431773815  1.0000
  H   H6        1.0  0.06036910447469538  0.06128728626926969  0.5910043937907759  1.0000
  H   H7        1.0  0.2871985866458928  0.5624469796909679  0.09147195844828097  1.0000
  H   H8        1.0  0.9396355312786543  0.938711923838099  0.40899596557702  1.0000
  H   H9        1.0  0.6629744837931852  0.8588860002847127  0.9338582748223629  1.0000
  H   H10       1.0  0.4576265206663383  0.6407802764567164  0.5663222663322642  1.0000
  H   H11       1.0  0.33702048400701295  0.141117765143477  0.06614212397798978  1.0000
  H   H12       1.0  0.5423732034980944  0.3592204520909235  0.4336778368754963  1.0000
  H   H13       1.0  0.9036408476467704  0.6282227754050638  0.9369743195116128  1.0000
  H   H14       1.0  0.46931939925988825  0.8718428511279724  0.564370204132743  1.0000
  H   H15       1.0  0.0963542826962113  0.37177795314258316  0.0630245027913219  1.0000
  H   H16       1.0  0.5306831288324291  0.1281578774196674  0.4356285638287076  1.0000
  H   H17       1.0  0.4707665515382189  0.7446871442880009  0.02749565959535259  1.0000
  H   H18       1.0  0.24429404026233204  0.7556958362619426  0.47143573767665714  1.0000
  H   H19       1.0  0.5292343683279556  0.2553120658193748  0.9725054782964833  1.0000
  H   H20       1.0  0.7557079541059153  0.24430033696488346  0.528564380440045  1.0000
  H   H21       1.0  0.709042853625114  0.5114881241536651  0.0302085015705416  1.0000
  H   H22       1.0  0.252211497649981  0.988577502379371  0.4695766415485281  1.0000
  H   H23       1.0  0.2909548573710482  0.48851108595371057  0.9697914391465972  1.0000
  H   H24       1.0  0.7477853013868909  0.0114217077279974  0.5304227424463334  1.0000
  H   H25       1.0  0.6306286290200736  0.3046887065929765  0.6498545549789297  1.0000
  H   H26       1.0  0.5866458125714262  0.1932382274890685  0.8494610753277171  1.0000
  H   H27       1.0  0.36937585150859314  0.6953089850741208  0.3501452526362385  1.0000
  H   H28       1.0  0.4133560532790455  0.8067609826183071  0.1505391165798216  1.0000
  H   H29       1.0  0.843497329407434  0.1921707639776642  0.6867397069371037  1.0000
  H   H30       1.0  0.7214726747904338  0.3058017233125483  0.812328476029691  1.0000
  H   H31       1.0  0.15650500943519338  0.8078284461297115  0.3132600119782864  1.0000
  H   H32       1.0  0.2785268941493158  0.6941974867948275  0.18767107542543468  1.0000
  H   H33       1.0  0.20937037901726543  0.3969066212083375  0.6679662983524395  1.0000
  H   H34       1.0  0.2750333603607587  0.10076673334823029  0.8321962584360065  1.0000
  H   H35       1.0  0.790631486833206  0.603092588899031  0.3320338935550993  1.0000
  H   H36       1.0  0.7249692622243201  0.8992309583188671  0.1678039384411818  1.0000
  H   H37       1.0  0.13182860454131173  0.5164944217313305  0.7340981112336991  1.0000
  H   H38       1.0  0.37962726445999145  0.9793059060769024  0.7663627613510968  1.0000
  H   H39       1.0  0.8681732613091598  0.4835047883760381  0.2659020806738326  1.0000
  H   H40       1.0  0.6203729326965899  0.0206948224707375  0.23363686886451518  1.0000
  H   H41       1.0  0.5651866987819577  0.035973368490296295  0.6653718077939316  1.0000
  H   H42       1.0  0.2699990853529856  0.4623726551068899  0.8343028383843532  1.0000
  H   H43       1.0  0.43482055164958705  0.9640243231768011  0.334628167281501  1.0000
  H   H44       1.0  0.7300021522806548  0.5376250365602075  0.1656972747626924  1.0000
  H   H45       1.0  0.7619649835360535  0.9414982617377132  0.7077127684330833  1.0000
  H   H46       1.0  0.41186132090597755  0.5571688813045625  0.7914956065887252  1.0000
  H   H47       1.0  0.23803917922514736  0.0585009483696624  0.2922880639268683  1.0000
  H   H48       1.0  0.5881385317762311  0.4428288103625349  0.2085044228281987  1.0000
  H   H49       1.0  0.791577665648781  0.6426024047834389  0.5439866394292707  1.0000
  H   H50       1.0  0.9781668275824557  0.8564640880504442  0.9561252137964116  1.0000
  H   H51       1.0  0.20842205851564452  0.35739832376420105  0.4560134637784898  1.0000
  H   H52       1.0  0.0218307548959302  0.14353815893746708  0.0438748007115706  1.0000
  H   H53       1.0  0.018335324552929088  0.516731298413802  0.5706216835342204  1.0000
  H   H54       1.0  0.10463477818325405  0.9826054767885422  0.9298089032394825  1.0000
  H   H55       1.0  0.9816665412975432  0.48326791169356637  0.4293785083733184  1.0000
  H   H56       1.0  0.8953599058744786  0.0173998070799186  0.07019101759907188  1.0000
  C   C1        1.0  0.7139772952330152  0.6378238732466102  0.8303867261276208  1.0000
  C   C2        1.0  0.183783328999503  0.8591183216463705  0.6692615702951912  1.0000
  C   C3        1.0  0.28601565939891327  0.362178373741301  0.16961351018210988  1.0000
  C   C4        1.0  0.8162226917052778  0.1408808884609982  0.33073887280274766  1.0000
  C   C5        1.0  0.6466795213425698  0.6024244751792338  0.900153136134591  1.0000
  C   C6        1.0  0.1511096062606897  0.8962942948323016  0.5991031289462896  1.0000
  C   C7        1.0  0.3533123928122921  0.3975808086892272  0.09984661724369909  1.0000
  C   C8        1.0  0.8488907461205669  0.1037079521556166  0.40089705302195705  1.0000
  C   C9        1.0  0.7230735096571622  0.6967788352576818  0.9456887520371352  1.0000
  C   C10       1.0  0.3669096889355076  0.802948179094642  0.5545393622658707  1.0000
  C   C11       1.0  0.2769202017093662  0.30322189328996524  0.054311489242238095  1.0000
  C   C12       1.0  0.6330923661646536  0.19705254945300507  0.4454598786877212  1.0000
  C   C13       1.0  0.6518260160112563  0.6724837909013957  0.0163309844354345  1.0000
  C   C14       1.0  0.3419247269053471  0.8275453930651081  0.4835308436053792  1.0000
  C   C15       1.0  0.3481735529284936  0.327515419205973  0.9836685670196913  1.0000
  C   C16       1.0  0.6580760377361514  0.1724522986019892  0.5164697425338147  1.0000
  C   C17       1.0  0.7358633336991574  0.7648277360593595  0.06022822209385477  1.0000
  C   C18       1.0  0.5610526401400904  0.7349934215898413  0.44037685448792263  1.0000
  C   C19       1.0  0.2641306614098372  0.23517147404800903  0.9397724971473167  1.0000
  C   C20       1.0  0.4389469287996591  0.26500578851752715  0.5596226969672031  1.0000
  O   O1        1.0  0.6729494220081098  0.5473445727429932  0.7878035624175651  1.0000
  O   O2        1.0  0.010246602543624377  0.9490570574130571  0.7112249142097723  1.0000
  O   O3        1.0  0.32704387709818433  0.4526607111254676  0.21219627469086078  1.0000
  O   O4        1.0  0.9897600463779952  0.0509436711345828  0.2887756076486525  1.0000
  O   O5        1.0  0.8036210705287987  0.7509507104111037  0.8150537290742079  1.0000
  O   O6        1.0  0.37067568632436154  0.745053088393618  0.6854402657250701  1.0000
  O   O7        1.0  0.19637562669720413  0.2490560918976286  0.1849463542549685  1.0000
  O   O8        1.0  0.6293274092528737  0.2549446032734792  0.3145594581599624  1.0000
  O   O9        1.0  0.8538525598041817  0.8479729700479266  0.03609847712465349  1.0000
  O   O10       1.0  0.7383945071515684  0.6503540423733654  0.46515498630599683  1.0000
  O   O11       1.0  0.14614369845467948  0.1520338322608055  0.96390057649009  1.0000
  O   O12       1.0  0.2616068857067546  0.3496451677340033  0.5348456785936833  1.0000
  O   O13       1.0  0.6811580702052213  0.755577397920703  0.12131711291985428  1.0000
  O   O14       1.0  0.5573811101757973  0.7451912664583914  0.3791427520098054  1.0000
  O   O15       1.0  0.3188483967848089  0.2444172568658516  0.8786822316424575  1.0000
  O   O16       1.0  0.44261965446569496  0.2548064252087059  0.6208578341293958  1.0000
  O   O17       1.0  0.744717143473523  0.3241414449209969  0.667615186871501  1.0000
  O   O18       1.0  0.7362938246266567  0.1736412373351754  0.8312107978832299  1.0000
  O   O19       1.0  0.2552854791115566  0.6758562467461005  0.33238501000568016  1.0000
  O   O20       1.0  0.2637063725299241  0.8263594912124645  0.1687888323323818  1.0000
  O   O21       1.0  0.07708455509116156  0.48490934562789073  0.6981555532349759  1.0000
  O   O22       1.0  0.26150896164758564  0.0092609672205626  0.8026549171372821  1.0000
  O   O23       1.0  0.9229177837514655  0.5150898644794849  0.3018441656804072  1.0000
  O   O24       1.0  0.738492147468279  0.9907397613270845  0.19734526980060707  1.0000
  O   O25       1.0  0.6291236608311126  0.9323861016638303  0.6992291886469599  1.0000
  O   O26       1.0  0.26209729557042777  0.5661216051498599  0.8004911295310037  1.0000
  O   O27       1.0  0.3708809749222297  0.06761310844353828  0.3007711707208429  1.0000
  O   O28       1.0  0.7379028408542395  0.4338745680769662  0.1995093778477113  1.0000
  O   O29       1.0  0.8648854186316371  0.6272388261086306  0.582621078402461  1.0000
  O   O30       1.0  0.07400217972173799  0.8711064075959242  0.9179703111888246  1.0000
  O   O31       1.0  0.13511569048422697  0.3727619024390094  0.41737910853543536  1.0000
  O   O32       1.0  0.9259961594912555  0.1288943209517228  0.08202970828880748  1.0000
