data_image0
_chemical_formula_structural       Zn2H44C48N16O12
_chemical_formula_sum              "Zn2 H44 C48 N16 O12"
_cell_length_a       8.175585151000464
_cell_length_b       11.609015092204373
_cell_length_c       13.592696281463118
_cell_angle_alpha    110.2787345496901
_cell_angle_beta     89.99996275707743
_cell_angle_gamma    90.0000257335141

_space_group_name_H-M_alt    "P 1"
_space_group_IT_number       1

loop_
  _space_group_symop_operation_xyz
  'x, y, z'

loop_
  _atom_site_type_symbol
  _atom_site_label
  _atom_site_symmetry_multiplicity
  _atom_site_fract_x
  _atom_site_fract_y
  _atom_site_fract_z
  _atom_site_occupancy
  Zn  Zn1       1.0  0.23071478877771773  0.24999846428017491  0.4999997059037824  1.0000
  Zn  Zn2       1.0  0.769288023008514  0.749999231440867  0.4999994221548148  1.0000
  H   H1        1.0  0.5176545172072694  0.15512847569452504  0.4037120803940723  1.0000
  H   H2        1.0  0.5176532492898076  0.3448712229081892  0.59629027695199  1.0000
  H   H3        1.0  0.48234829457788214  0.8448701034170512  0.5962895253534909  1.0000
  H   H4        1.0  0.48234466987862856  0.6551264263389952  0.40371177987224627  1.0000
  H   H5        1.0  0.49648298965345833  0.2986282890225738  0.40588850839473867  1.0000
  H   H6        1.0  0.4964840766242205  0.20137141749764706  0.5941131237235452  1.0000
  H   H7        1.0  0.5035161526705352  0.7013712315710022  0.5941119140863477  1.0000
  H   H8        1.0  0.5035162888527084  0.7986262433681118  0.40588820090908223  1.0000
  H   H9        1.0  0.053510428987351595  0.649970697174915  0.5886014644532196  1.0000
  H   H10       1.0  0.05351181582306451  0.850029465452742  0.41139890971449217  1.0000
  H   H11       1.0  0.9464911596452978  0.3500324964013116  0.411400082488825  1.0000
  H   H12       1.0  0.9464861033474249  0.1499682418862278  0.5885994861537042  1.0000
  H   H13       1.0  0.23917780874463554  0.7171153681748237  0.7444261231579786  1.0000
  H   H14       1.0  0.23917810135514372  0.782886675019334  0.25557401997892976  1.0000
  H   H15       1.0  0.7608237798878718  0.2828869071557847  0.25557514266873227  1.0000
  H   H16       1.0  0.7608185946638102  0.2171165882665989  0.7444231338166674  1.0000
  H   H17       1.0  0.022712313586410505  0.0775551618214223  0.8278789227946957  1.0000
  H   H18       1.0  0.022712790019248502  0.4224445664427916  0.17211627543736083  1.0000
  H   H19       1.0  0.9772843824284224  0.9224452421624745  0.1721239773757617  1.0000
  H   H20       1.0  0.977293691232383  0.5775532222254186  0.8278769950909676  1.0000
  H   H21       1.0  0.8524221225458036  0.9960535925006507  0.664971744782292  1.0000
  H   H22       1.0  0.8524245909415101  0.5039449430059832  0.33502341122608925  1.0000
  H   H23       1.0  0.14757335031540458  0.003946823101500701  0.33503042319715337  1.0000
  H   H24       1.0  0.14757822084785496  0.49605192741630333  0.6649695781875024  1.0000
  H   H25       1.0  0.3216452601741722  0.8719324229700474  0.9081839170563554  1.0000
  H   H26       1.0  0.32164807949278906  0.628069681114127  0.09181327018978179  1.0000
  H   H27       1.0  0.678355105305137  0.12807261871564174  0.09181745992535888  1.0000
  H   H28       1.0  0.6783535091436974  0.3719345352729134  0.9081819681467279  1.0000
  H   H29       1.0  0.2322329567301722  0.27333654964317583  0.09219509991694959  1.0000
  H   H30       1.0  0.23222515022559523  0.22666401730923977  0.9078076324275198  1.0000
  H   H31       1.0  0.7677723013628113  0.7266656792143352  0.9078090946739791  1.0000
  H   H32       1.0  0.7677715457877455  0.7733372584468441  0.09219847762310708  1.0000
  H   H33       1.0  0.3273196510521288  0.3503822998051404  0.2774149930333748  1.0000
  H   H34       1.0  0.3273156690673674  0.1496155406515101  0.72258613249695  1.0000
  H   H35       1.0  0.6726831607316441  0.6496153262057616  0.7225885281724799  1.0000
  H   H36       1.0  0.6726810269464778  0.8503811787316026  0.2774163754033551  1.0000
  H   H37       1.0  0.46011036687281864  0.9820202858228626  0.25181156096128643  1.0000
  H   H38       1.0  0.46010993987514587  0.5179808545107392  0.7481896927727971  1.0000
  H   H39       1.0  0.5398899986067107  0.017978362998640307  0.7481856516394315  1.0000
  H   H40       1.0  0.5398879792954859  0.4820177710738349  0.25180898421073283  1.0000
  H   H41       1.0  0.3632293041535349  0.9042924927431101  0.06875344524435421  1.0000
  H   H42       1.0  0.363226278633384  0.595708619035868  0.931248572547872  1.0000
  H   H43       1.0  0.6367722844799105  0.0957079809513601  0.9312450617780426  1.0000
  H   H44       1.0  0.6367728636911635  0.4042918314216735  0.06875139885735138  1.0000
  C   C1        1.0  0.05357525701230511  0.7442773424727205  0.6426472304625505  1.0000
  C   C2        1.0  0.0535778652811274  0.7557228434030847  0.3573516793012245  1.0000
  C   C3        1.0  0.946427554774246  0.2557249328580014  0.3573540353639544  1.0000
  C   C4        1.0  0.946423723352858  0.24427581703687912  0.6426448011080835  1.0000
  C   C5        1.0  0.15429217066625261  0.7821601379288908  0.7303263034640252  1.0000
  C   C6        1.0  0.154293628259758  0.7178400771717719  0.2696718409805142  1.0000
  C   C7        1.0  0.8457081948119481  0.21784304402886784  0.269675975669429  1.0000
  C   C8        1.0  0.8457055140666939  0.2821595131319441  0.7303241883533218  1.0000
  C   C9        1.0  0.1433926455946661  0.9032734721100936  0.8006977575084234  1.0000
  C   C10       1.0  0.14339532519879583  0.5967258112213399  0.19930084159690148  1.0000
  C   C11       1.0  0.8566064967290643  0.09672695511073207  0.19930367827921458  1.0000
  C   C12       1.0  0.8566062634353316  0.40327376746423477  0.8006959199277404  1.0000
  C   C13       1.0  0.03467630811702801  0.9826798107754794  0.7756881464131876  1.0000
  C   C14       1.0  0.034676461751757905  0.5173213365153656  0.22430812191780794  1.0000
  C   C15       1.0  0.9653203878989132  0.017322452936348  0.22431385160552955  1.0000
  C   C16       1.0  0.9653226805753691  0.4826773587794547  0.7756861619182727  1.0000
  C   C17       1.0  0.9404586039650769  0.938039221869502  0.6858561480699449  1.0000
  C   C18       1.0  0.9404599103063449  0.5619620721453983  0.31414055451855205  1.0000
  C   C19       1.0  0.05953931520543421  0.061961228587932696  0.3141438233354775  1.0000
  C   C20       1.0  0.059544124636531116  0.4380366115314941  0.6858544615079366  1.0000
  C   C21       1.0  0.23705440129830896  0.9412841794456311  0.8982838447936671  1.0000
  C   C22       1.0  0.23705716428596452  0.5587178749958994  0.10171556685006776  1.0000
  C   C23       1.0  0.7629422947190038  0.05871903736687759  0.101716237766766  1.0000
  C   C24       1.0  0.7629468706562579  0.4412844468083533  0.898282770211402  1.0000
  C   C25       1.0  0.2895621385863834  0.08372975297339019  0.06689258394509777  1.0000
  C   C26       1.0  0.2895593206173359  0.4162699173740876  0.9331091162350658  1.0000
  C   C27       1.0  0.7104333342749385  0.9162688377559005  0.9331082896124626  1.0000
  C   C28       1.0  0.7104410448604314  0.5837305098468517  0.06689231955237311  1.0000
  C   C29       1.0  0.28374360254074554  0.20986785879015457  0.12733864935504607  1.0000
  C   C30       1.0  0.2837407691350151  0.2901309155312645  0.8726613072412163  1.0000
  C   C31       1.0  0.7162543166289268  0.7901298253121  0.8726612108955718  1.0000
  C   C32       1.0  0.7162583731882819  0.7098667569527419  0.1273392852003993  1.0000
  C   C33       1.0  0.33900443598535895  0.2532618434184498  0.23026110698334884  1.0000
  C   C34       1.0  0.3389992420521608  0.24673690570799775  0.7697410280103083  1.0000
  C   C35       1.0  0.6609959294915912  0.7467385605657736  0.7697417931865045  1.0000
  C   C36       1.0  0.6609986771162752  0.7532607435391867  0.23026102881392768  1.0000
  C   C37       1.0  0.4003761373670401  0.17119999203677588  0.2766089259513008  1.0000
  C   C38       1.0  0.4003734948098341  0.3288015341736283  0.7233933000101301  1.0000
  C   C39       1.0  0.5996217818022416  0.8288004235655887  0.7233932420277468  1.0000
  C   C40       1.0  0.5996244243600019  0.6711998112927017  0.2766084168930475  1.0000
  C   C41       1.0  0.4123434691337949  0.045730459342983885  0.2158966602012526  1.0000
  C   C42       1.0  0.4123396181273265  0.45427015071374643  0.7841052807086937  1.0000
  C   C43       1.0  0.5876568963442425  0.9542690612506985  0.7841037622796418  1.0000
  C   C44       1.0  0.5876558547351111  0.5457302997434751  0.21589469069713366  1.0000
  C   C45       1.0  0.3575767901265365  0.0026421440027420006  0.11278378251664378  1.0000
  C   C46       1.0  0.3575777455438427  0.4973566432259984  0.8872161497934882  1.0000
  C   C47       1.0  0.6424186827360147  0.9973564815816188  0.8872148944672913  1.0000
  C   C48       1.0  0.6424238430886434  0.502642888986152  0.11278354049599665  1.0000
  N   N1        1.0  0.9463175092519054  0.8199776196383862  0.6208709760088877  1.0000
  N   N2        1.0  0.9463224901757741  0.6800245587915794  0.37912820234082995  1.0000
  N   N3        1.0  0.05368285622574831  0.1800246324554067  0.3791317542004364  1.0000
  N   N4        1.0  0.053680321611985014  0.3199750082757403  0.6208692913748236  1.0000
  N   N5        1.0  0.21628736142844224  0.048457326695682895  0.9680377386161538  1.0000
  N   N6        1.0  0.2162892354972499  0.4515432607067993  0.031963534589202355  1.0000
  N   N7        1.0  0.7837093345881742  0.9515440420072491  0.03196251390480846  1.0000
  N   N8        1.0  0.783714799444418  0.5484581312334952  0.9680352535481376  1.0000
  N   N9        1.0  0.4396478981903869  0.2140110298577297  0.38463559233903044  1.0000
  N   N10       1.0  0.43964779376439383  0.2859877252445671  0.6153672417409553  1.0000
  N   N11       1.0  0.5603536904400244  0.7859857011441702  0.6153661833692607  1.0000
  N   N12       1.0  0.560351348558079  0.7140099240027311  0.38463481508308206  1.0000
  N   N13       1.0  0.29621967140572986  0.5221601086364344  0.4959759994011889  1.0000
  N   N14       1.0  0.29621981592647023  0.9778400964197826  0.5040242949338418  1.0000
  N   N15       1.0  0.7037819172263654  0.4778421550758196  0.5040259986167255  1.0000
  N   N16       1.0  0.7037805495522351  0.022158529165004395  0.49597438204929734  1.0000
  O   O1        1.0  0.2069073928814689  0.425732500767687  0.46958736715679805  1.0000
  O   O2        1.0  0.20690724423688078  0.07426715513091861  0.5304143602100523  1.0000
  O   O3        1.0  0.7930990883671714  0.57426703144489  0.5304123231318768  1.0000
  O   O4        1.0  0.7930931212416823  0.9257305522082645  0.46958403565773915  1.0000
  O   O5        1.0  0.3751497645535196  0.5540254039824503  0.5814788256662878  1.0000
  O   O6        1.0  0.3751487599194192  0.9459738966260502  0.41852116159159175  1.0000
  O   O7        1.0  0.6248530472323282  0.44597502323869515  0.41852261012074615  1.0000
  O   O8        1.0  0.6248540518673665  0.05402472895895729  0.5814775153911427  1.0000
  O   O9        1.0  0.30059127713991535  0.584293955415326  0.43668119372395603  1.0000
  O   O10       1.0  0.3005913152641142  0.9157053321594898  0.5633188180578229  1.0000
  O   O11       1.0  0.6994078651842487  0.4157092265423259  0.5633210854097044  1.0000
  O   O12       1.0  0.6994090502143351  0.0842942000525539  0.4366808722318537  1.0000
