data_image0
_chemical_formula_structural       Zn2Mo8H40C28N12O32
_chemical_formula_sum              "Zn2 Mo8 H40 C28 N12 O32"
_cell_length_a       9.760466218078147
_cell_length_b       11.583256596164698
_cell_length_c       12.347046055218701
_cell_angle_alpha    91.05765670778503
_cell_angle_beta     102.99254287656638
_cell_angle_gamma    96.20599982261447

_space_group_name_H-M_alt    "P 1"
_space_group_IT_number       1

loop_
  _space_group_symop_operation_xyz
  'x, y, z'

loop_
  _atom_site_type_symbol
  _atom_site_label
  _atom_site_symmetry_multiplicity
  _atom_site_fract_x
  _atom_site_fract_y
  _atom_site_fract_z
  _atom_site_occupancy
  Zn  Zn1       1.0  0.5772763053585307  0.20077811580198104  0.2765359854778353  1.0000
  Zn  Zn2       1.0  0.42272398752035667  0.7992213297613874  0.7234683145770049  1.0000
  Mo  Mo1       1.0  0.1391077490447898  0.562646802800934  0.114958373437517  1.0000
  Mo  Mo2       1.0  0.8608919818057147  0.4373561449362596  0.8850386088184408  1.0000
  Mo  Mo3       1.0  0.9419378055375562  0.3690625664880685  0.26196616523780863  1.0000
  Mo  Mo4       1.0  0.058053757409041416  0.6309273353094015  0.7380355895442463  1.0000
  Mo  Mo5       1.0  0.7602845366474967  0.5466623708532978  0.09381001510228515  1.0000
  Mo  Mo6       1.0  0.2397202517192341  0.4533318789200039  0.9061852553779418  1.0000
  Mo  Mo7       1.0  0.9642903612068779  0.7401863751477861  0.9601356884726329  1.0000
  Mo  Mo8       1.0  0.035709369643626615  0.2598165725894077  0.0398612937833249  1.0000
  H   H1        1.0  0.5084205407421507  0.32929253326214786  0.09394387671393642  1.0000
  H   H2        1.0  0.4915847513296542  0.6707051807154443  0.9060556023189861  1.0000
  H   H3        1.0  0.3582242600513297  0.26267877974911613  0.10523339173972351  1.0000
  H   H4        1.0  0.6417772023468302  0.7373215481942595  0.8947662733055638  1.0000
  H   H5        1.0  0.08363964978217811  0.27311964585556586  0.6058545044704645  1.0000
  H   H6        1.0  0.9163615602424925  0.726878951263281  0.3941426512749615  1.0000
  H   H7        1.0  0.9805787639983947  0.1588325680588696  0.5181082231980625  1.0000
  H   H8        1.0  0.019419419293562588  0.8411668997838999  0.481890035141177  1.0000
  H   H9        1.0  0.34058605255950875  0.13214104117050604  0.9783238506942525  1.0000
  H   H10       1.0  0.6594142403193786  0.8678584043928622  0.021680449360587804  1.0000
  H   H11       1.0  0.4700663750486243  0.4845081807268841  0.24199006723574706  1.0000
  H   H12       1.0  0.5299379873745523  0.5154904123578987  0.7580068355422753  1.0000
  H   H13       1.0  0.7577081016399845  0.5476672191173578  0.5563780894845536  1.0000
  H   H14       1.0  0.24229360479643697  0.4523348600923284  0.4436176044843876  1.0000
  H   H15       1.0  0.5987675856071774  0.6360402920286178  0.39435130837080107  1.0000
  H   H16       1.0  0.4012350483940565  0.36396091318432156  0.6056453417589793  1.0000
  H   H17       1.0  0.20182220213273178  0.0866555988968827  0.6189350608182238  1.0000
  H   H18       1.0  0.7981754837055774  0.9133403894102656  0.3810638492504879  1.0000
  H   H19       1.0  0.1752769574705937  0.13677991447901414  0.7478991394628453  1.0000
  H   H20       1.0  0.8247196772209122  0.8632160760245638  0.25209958491264933  1.0000
  H   H21       1.0  0.8303578816526525  0.36803301593251797  0.6452847917234976  1.0000
  H   H22       1.0  0.1696460537850584  0.6319699230189714  0.3547129333052935  1.0000
  H   H23       1.0  0.7089422308120062  0.17681963455532204  0.7725804260721388  1.0000
  H   H24       1.0  0.2910584338547366  0.8231824238537868  0.22742237262681902  1.0000
  H   H25       1.0  0.5514323143699045  0.21024421620089837  0.9011644907991041  1.0000
  H   H26       1.0  0.44856952815133877  0.7897587041464436  0.09884015326650092  1.0000
  H   H27       1.0  0.7669520538601161  0.0439552152398477  0.5879347998673268  1.0000
  H   H28       1.0  0.23304792832197313  0.9560494658771006  0.41206388164146546  1.0000
  H   H29       1.0  0.855069300651394  0.9183381156866305  0.7430472391288562  1.0000
  H   H30       1.0  0.14492400182011517  0.0816639683183524  0.256951019529545  1.0000
  H   H31       1.0  0.9611618151671735  0.0391557874494879  0.8204833383314565  1.0000
  H   H32       1.0  0.03883556726766103  0.9608454185246842  0.17951562352038047  1.0000
  H   H33       1.0  0.1020070795054266  0.922413037412042  0.7190852884374692  1.0000
  H   H34       1.0  0.8979886349145828  0.07758380920172671  0.2809181501063662  1.0000
  H   H35       1.0  0.9855595033315511  0.9444519709783922  0.5924181014372678  1.0000
  H   H36       1.0  0.0144344774570015  0.05554750053963888  0.40758103422319175  1.0000
  H   H37       1.0  0.9451509559128295  0.2377386452389629  0.7456744629615386  1.0000
  H   H38       1.0  0.05485168225602178  0.7622625497530894  0.254325427356342  1.0000
  H   H39       1.0  0.24196798429807842  0.9253154707858825  0.9059640054986389  1.0000
  H   H40       1.0  0.7580344098325114  0.0746839729398516  0.09403985589559483  1.0000
  C   C1        1.0  0.024296148284825802  0.1868881785565861  0.6056555255500484  1.0000
  C   C2        1.0  0.9757030861539348  0.8131112870897608  0.3943429184824012  1.0000
  C   C3        1.0  0.5405820841022331  0.46657828749463437  0.3195534048943145  1.0000
  C   C4        1.0  0.45941937517021364  0.5334220481144031  0.6804438300098922  1.0000
  C   C5        1.0  0.6902529875512542  0.49791060062767656  0.4852921311954717  1.0000
  C   C6        1.0  0.30974532453220144  0.5020897262393049  0.5147094069112654  1.0000
  C   C7        1.0  0.1197324941724247  0.09997966953689293  0.6647047127214876  1.0000
  C   C8        1.0  0.8802651906239802  0.900016321325481  0.3352933873001974  1.0000
  C   C9        1.0  0.6030595850722661  0.015054551997288002  0.7365554201321772  1.0000
  C   C10       1.0  0.3969413257165471  0.9849492525676882  0.26344502758448135  1.0000
  C   C11       1.0  0.4922920836406347  0.12531085314113  0.8788473314486183  1.0000
  C   C12       1.0  0.5077095117166337  0.8746903236055629  0.12115885355226651  1.0000
  C   C13       1.0  0.816283187888409  0.08322534491212961  0.671286375091384  1.0000
  C   C14       1.0  0.18371654504590404  0.9167775977146135  0.32871222725862737  1.0000
  C   C15       1.0  0.5041266439669911  0.03628137500334821  0.8064543624020359  1.0000
  C   C16       1.0  0.4958759983694704  0.9637198097678092  0.19354876810395183  1.0000
  C   C17       1.0  0.6713102008832833  0.3810684394763372  0.45427252427575837  1.0000
  C   C18       1.0  0.32868495984357793  0.6189318888694757  0.5457300768454019  1.0000
  C   C19       1.0  0.9164048251518366  0.0016776535400637998  0.7355132614708779  1.0000
  C   C20       1.0  0.08359045498939116  0.998323556826968  0.2644853289945388  1.0000
  C   C21       1.0  0.03378801665651573  0.9843077485637084  0.6757696400513779  1.0000
  C   C22       1.0  0.9662022538727585  0.015695218941317503  0.32422567096570293  1.0000
  C   C23       1.0  0.9006582535506668  0.20071032719729937  0.660771510593115  1.0000
  C   C24       1.0  0.09934253053044981  0.799292613233021  0.33922727745010656  1.0000
  C   C25       1.0  0.7347140526563294  0.2774251137781151  0.5013487964704382  1.0000
  C   C26       1.0  0.2652829569487452  0.7225734819055418  0.4986508566902613  1.0000
  C   C27       1.0  0.3282921127035365  0.977180866746984  0.8812340508502672  1.0000
  C   C28       1.0  0.6717115818216329  0.022820313272525507  0.11877007539595046  1.0000
  N   N1        1.0  0.4006158111948679  0.9456413632154149  0.8090020936329196  1.0000
  N   N2        1.0  0.5993868332254023  0.054359816445298706  0.1910026569671217  1.0000
  N   N3        1.0  0.3813426829433339  0.0856277336226654  0.9241866205265978  1.0000
  N   N4        1.0  0.6186620648124475  0.9143734390899779  0.0758193115068764  1.0000
  N   N5        1.0  0.5781527727497818  0.36376936569573803  0.3514484453973098  1.0000
  N   N6        1.0  0.4218443646048868  0.6362300915673487  0.6485536774838536  1.0000
  N   N7        1.0  0.6065645555490065  0.5494964564041851  0.3993619584029915  1.0000
  N   N8        1.0  0.39343665447566417  0.4505021407146542  0.6006351973424345  1.0000
  N   N9        1.0  0.8134921154041308  0.28763882037477356  0.6054299652982778  1.0000
  N   N10       1.0  0.18650854822070784  0.7123632405895607  0.3945720233536534  1.0000
  N   N11       1.0  0.7027301908120549  0.10068145102250983  0.727425098972148  1.0000
  N   N12       1.0  0.29726688821930486  0.8993249726186934  0.2725739146628213  1.0000
  O   O1        1.0  0.4611940271316541  0.26047938708355634  0.12339019581236241  1.0000
  O   O2        1.0  0.538807943139183  0.7395243948432153  0.8766169179737133  1.0000
  O   O3        1.0  0.7106070295878409  0.18473736859986897  0.4414725277695837  1.0000
  O   O4        1.0  0.28939350941311665  0.8152638231193662  0.5585294213029641  1.0000
  O   O5        1.0  0.5913510997350782  0.9157559882696161  0.6879567820274701  1.0000
  O   O6        1.0  0.4086487619907331  0.0842478133813458  0.3120451000900388  1.0000
  O   O7        1.0  0.7867818202376213  0.2747828568878107  0.23153531197781524  1.0000
  O   O8        1.0  0.21321572743205763  0.7252122953921332  0.7684530279001648  1.0000
  O   O9        1.0  0.6209335206390492  0.4375014557828791  0.06437620310261852  1.0000
  O   O10       1.0  0.3790742955022992  0.5624919207112669  0.9356187748308216  1.0000
  O   O11       1.0  0.6887061420453192  0.6688411377739243  0.12135994155713804  1.0000
  O   O12       1.0  0.31131330753702  0.3311452175187526  0.8786499088120934  1.0000
  O   O13       1.0  0.8196301678489418  0.8130651698175982  0.9642564930475146  1.0000
  O   O14       1.0  0.18036345469649717  0.18693165563679767  0.0357546745801613  1.0000
  O   O15       1.0  0.10918200171492747  0.8411934088109878  0.9988927117778132  1.0000
  O   O16       1.0  0.8908156320514918  0.1588095305429462  0.0011079493268582076  1.0000
  O   O17       1.0  0.2812558324847103  0.6675225916491884  0.1529403204725099  1.0000
  O   O18       1.0  0.7187534489513753  0.33248811317327653  0.8470738944371236  1.0000
  O   O19       1.0  0.12041566299175342  0.5054255994139822  0.24478347066145292  1.0000
  O   O20       1.0  0.8795822627171999  0.49457215038037106  0.7552082281428056  1.0000
  O   O21       1.0  0.9808800202497281  0.658188000499095  0.10238137704102711  1.0000
  O   O22       1.0  0.019121192900655615  0.3418105889540826  0.8976182088454722  1.0000
  O   O23       1.0  0.9266416784293907  0.4204740828446276  0.05492856132826056  1.0000
  O   O24       1.0  0.07335736993645982  0.5795314876004056  0.9450643037375315  1.0000
  O   O25       1.0  0.8521747426351426  0.5098413851545942  0.23900619504399154  1.0000
  O   O26       1.0  0.14782627021364905  0.4901485224272691  0.7609891305066938  1.0000
  O   O27       1.0  0.005259560089335518  0.3663333931857339  0.4022326867902636  1.0000
  O   O28       1.0  0.9947237141391125  0.6336574056491315  0.5977643818374148  1.0000
  O   O29       1.0  0.0582511354506039  0.2787132026969559  0.1965467525360083  1.0000
  O   O30       1.0  0.9417466198139904  0.7212906135677384  0.8034515180069803  1.0000
  O   O31       1.0  0.7805310983198979  0.5664386275654465  0.9371840975334322  1.0000
  O   O32       1.0  0.21946665277707925  0.4335651989201424  0.06281093282144921  1.0000
