data_image0
_chemical_formula_structural       Er2H28C24N6O20
_chemical_formula_sum              "Er2 H28 C24 N6 O20"
_cell_length_a       7.508626745210162
_cell_length_b       11.858350949513822
_cell_length_c       12.83014666741511
_cell_angle_alpha    110.47085303700668
_cell_angle_beta     98.0288276584854
_cell_angle_gamma    96.24895575034411

_space_group_name_H-M_alt    "P 1"
_space_group_IT_number       1

loop_
  _space_group_symop_operation_xyz
  'x, y, z'

loop_
  _atom_site_type_symbol
  _atom_site_label
  _atom_site_symmetry_multiplicity
  _atom_site_fract_x
  _atom_site_fract_y
  _atom_site_fract_z
  _atom_site_occupancy
  Er  Er1       1.0  0.25155594436726153  0.011667306342225498  0.9802061113964626  1.0000
  Er  Er2       1.0  0.748384688714239  0.9883314988728388  0.01978416765344076  1.0000
  H   H1        1.0  0.9508112190617339  0.8719972810354546  0.5663044279291894  1.0000
  H   H2        1.0  0.049224658890779004  0.12803489391270514  0.43371791077557015  1.0000
  H   H3        1.0  0.9653657733878019  0.7282803742645141  0.5803015072678406  1.0000
  H   H4        1.0  0.0346918431943024  0.27174051820777834  0.4197063989978815  1.0000
  H   H5        1.0  0.7366813061009337  0.7680291571211341  0.7107596220544322  1.0000
  H   H6        1.0  0.26329555912315067  0.23194517558959393  0.28920105926416534  1.0000
  H   H7        1.0  0.7205120224623798  0.9080173252223817  0.6934291059030214  1.0000
  H   H8        1.0  0.279465333960971  0.09195737317475051  0.3065512930647287  1.0000
  H   H9        1.0  0.3871275912545684  0.9093253276543648  0.36379831228451553  1.0000
  H   H10       1.0  0.6128913388024698  0.09066615684641728  0.6361919491038108  1.0000
  H   H11       1.0  0.255865908158448  0.7722593726801961  0.2569904386912895  1.0000
  H   H12       1.0  0.7441560927823047  0.22772323390630328  0.7430222285901422  1.0000
  H   H13       1.0  0.5184125288303817  0.7542296697154139  0.14985790149234635  1.0000
  H   H14       1.0  0.4815926128291821  0.2457766479171681  0.8501223729854814  1.0000
  H   H15       1.0  0.633153711581876  0.8982141203817944  0.24844926035657264  1.0000
  H   H16       1.0  0.3668247749738925  0.10180267961740697  0.7515391143772163  1.0000
  H   H17       1.0  0.36327809638371616  0.3981726432507882  0.24864559219775356  1.0000
  H   H18       1.0  0.6367413745100661  0.6018255074229443  0.7514016660792251  1.0000
  H   H19       1.0  0.5166389555949067  0.38722383931573034  0.3634127447359958  1.0000
  H   H20       1.0  0.48342711564465896  0.612775531145644  0.6366116422199539  1.0000
  H   H21       1.0  0.6388523285199311  0.43025532502446134  0.1598065176384083  1.0000
  H   H22       1.0  0.3611324950445648  0.5697354444206723  0.840194228550679  1.0000
  H   H23       1.0  0.7768740430089948  0.39692109899359446  0.26554849734181823  1.0000
  H   H24       1.0  0.22314011703805642  0.6030502752547591  0.734435238304286  1.0000
  H   H25       1.0  0.17906372796412737  0.24983680639345346  0.017424068016566655  1.0000
  H   H26       1.0  0.8208646309474332  0.7501800281637541  0.9825738870295524  1.0000
  H   H27       1.0  0.013718044094836991  0.17338509904908508  0.917942879427315  1.0000
  H   H28       1.0  0.9862188623618665  0.8266264621903261  0.08205653207285471  1.0000
  C   C1        1.0  0.675282753691242  0.6094827682127216  0.44790397262477194  1.0000
  C   C2        1.0  0.32476417493691656  0.3905325638449995  0.5521007806010161  1.0000
  C   C3        1.0  0.6314500410956968  0.8107491391766501  0.44250696070558593  1.0000
  C   C4        1.0  0.36862125422732117  0.1892823356845312  0.5574905122160203  1.0000
  C   C5        1.0  0.4463574541868525  0.6230185211178279  0.29693754327989547  1.0000
  C   C6        1.0  0.5536811598996819  0.3769727170549898  0.7030698625479418  1.0000
  C   C7        1.0  0.8770842570381634  0.7962441083377386  0.5816516746950599  1.0000
  C   C8        1.0  0.1229533365464377  0.2037746112901431  0.4183593352507202  1.0000
  C   C9        1.0  0.8129654210388965  0.8422418729662198  0.6944292019463276  1.0000
  C   C10       1.0  0.1870170528669703  0.1577426074718602  0.3055652482014466  1.0000
  C   C11       1.0  0.9683508009835792  0.906924152649516  0.7927583127228669  1.0000
  C   C12       1.0  0.031607738346160395  0.0930636321237728  0.20723903847224528  1.0000
  C   C13       1.0  0.39387619645476946  0.8228091384588012  0.29676285542775804  1.0000
  C   C14       1.0  0.6061396793704149  0.1771874128389541  0.7032420168937961  1.0000
  C   C15       1.0  0.4972740120022436  0.8430193346957822  0.20873950681754389  1.0000
  C   C16       1.0  0.502701520031934  0.15698554979925913  0.7912460857147536  1.0000
  C   C17       1.0  0.39882592515088783  0.9013489329960507  0.13627217247747564  1.0000
  C   C18       1.0  0.601123098243711  0.09864712372242217  0.8637213267516373  1.0000
  C   C19       1.0  0.5038091899599237  0.42385927220705355  0.2958731547851983  1.0000
  C   C20       1.0  0.496215029927633  0.5761538071554282  0.7041687338628364  1.0000
  C   C21       1.0  0.6375908653166535  0.37950380912430864  0.21721968779925757  1.0000
  C   C22       1.0  0.3623976851128318  0.6204903737425836  0.78279202856352  1.0000
  C   C23       1.0  0.5873854264993739  0.2447400842185701  0.1420456261419929  1.0000
  C   C24       1.0  0.4125669284491521  0.7552460441604936  0.8579426087038798  1.0000
  N   N1        1.0  0.539965769520407  0.5573742580203459  0.3508016166626078  1.0000
  N   N2        1.0  0.4600747316467419  0.4426240223959964  0.6492177514257448  1.0000
  N   N3        1.0  0.7222243113893044  0.736226971210378  0.48680332914883445  1.0000
  N   N4        1.0  0.27782770883759866  0.2637670199243515  0.5131777056181477  1.0000
  N   N5        1.0  0.4878524458762215  0.7496871522421671  0.35130465270840716  1.0000
  N   N6        1.0  0.5121870299214349  0.250312668228993  0.6486924452302105  1.0000
  O   O1        1.0  0.11958463566397629  0.9511503519937533  0.7797355625058201  1.0000
  O   O2        1.0  0.8803698713606566  0.048854710696609495  0.2202670838201257  1.0000
  O   O3        1.0  0.9445541830640989  0.9166949893519739  0.8939927284304826  1.0000
  O   O4        1.0  0.055403067342417976  0.08328675757265097  0.10598994322730701  1.0000
  O   O5        1.0  0.4177182014241225  0.19916904201779317  0.10867387597651398  1.0000
  O   O6        1.0  0.58222568163373  0.8008333703940735  0.891320347532094  1.0000
  O   O7        1.0  0.7178087687205377  0.18823855267427797  0.11533681713650876  1.0000
  O   O8        1.0  0.28215642139047487  0.8117461290304103  0.8846431079616934  1.0000
  O   O9        1.0  0.4959464831748263  0.9651185024950234  0.0944222375593638  1.0000
  O   O10       1.0  0.5039951615078166  0.03489120211114739  0.9055733744778749  1.0000
  O   O11       1.0  0.22717050273148226  0.8897311931752654  0.11354927734685556  1.0000
  O   O12       1.0  0.7727750510034639  0.1102427222722824  0.8864449879475985  1.0000
  O   O13       1.0  0.33429398569873564  0.5730181381934756  0.2080412605351397  1.0000
  O   O14       1.0  0.6657717509371678  0.4269878057765055  0.7919782530852117  1.0000
  O   O15       1.0  0.7504206991007862  0.5478257235150821  0.4944149468326415  1.0000
  O   O16       1.0  0.24967791054800867  0.4521945049937273  0.5056016000659227  1.0000
  O   O17       1.0  0.6758554809764945  0.9224171191060436  0.48139510187384355  1.0000
  O   O18       1.0  0.3241996536473692  0.0775787215941506  0.5185869284094552  1.0000
  O   O19       1.0  0.14693802218719293  0.18361386333913995  0.9432523471879153  1.0000
  O   O20       1.0  0.8529989198984467  0.8164002683866368  0.05674730376541237  1.0000
