data_image0
_chemical_formula_structural       Zn2H44C40N4O8
_chemical_formula_sum              "Zn2 H44 C40 N4 O8"
_cell_length_a       7.889126408935431
_cell_length_b       8.010764908761299
_cell_length_c       14.819695849314245
_cell_angle_alpha    89.99890337291667
_cell_angle_beta     90.00114688768957
_cell_angle_gamma    92.86109202583448

_space_group_name_H-M_alt    "P 1"
_space_group_IT_number       1

loop_
  _space_group_symop_operation_xyz
  'x, y, z'

loop_
  _atom_site_type_symbol
  _atom_site_label
  _atom_site_symmetry_multiplicity
  _atom_site_fract_x
  _atom_site_fract_y
  _atom_site_fract_z
  _atom_site_occupancy
  Zn  Zn1       1.0  0.9725677311883698  0.7765555335878888  0.999928789466878  1.0000
  Zn  Zn2       1.0  0.0274485380706722  0.22343673790169305  0.4999295852171031  1.0000
  H   H1        1.0  0.6004033905923194  0.6364811846482895  0.7598588186024741  1.0000
  H   H2        1.0  0.3995804692819717  0.3635033860083967  0.2598550293033739  1.0000
  H   H3        1.0  0.6833219414050403  0.44227292823218545  0.7879715378345296  1.0000
  H   H4        1.0  0.31665029871847133  0.5577118173478512  0.2879809810684577  1.0000
  H   H5        1.0  0.7578978053455497  0.5514212515634473  0.6894639280014445  1.0000
  H   H6        1.0  0.24210191723494745  0.4485833236076716  0.1894717270357944  1.0000
  H   H7        1.0  0.0035784742214702075  0.7171819038338257  0.7031489302636942  1.0000
  H   H8        1.0  0.9964113638315195  0.28281584770557094  0.20314221195249618  1.0000
  H   H9        1.0  0.38326382094638217  0.8804175352686132  0.7953145770149348  1.0000
  H   H10       1.0  0.6167324447888657  0.11959226652280822  0.2953265024447944  1.0000
  H   H11       1.0  0.26383814060983457  0.04275485678701331  0.7510766375855482  1.0000
  H   H12       1.0  0.7361687434274697  0.9572440431488973  0.2510977140987762  1.0000
  H   H13       1.0  0.26659993982034524  0.848450336603648  0.6924193057874105  1.0000
  H   H14       1.0  0.7333873927232517  0.15155897644425662  0.1924226782020568  1.0000
  H   H15       1.0  0.6823967232243361  0.468096573581825  0.2182100385673778  1.0000
  H   H16       1.0  0.3175785796617204  0.5319042412551057  0.7182160000188347  1.0000
  H   H17       1.0  0.6369428903268781  0.6671639841717864  0.2619498436879795  1.0000
  H   H18       1.0  0.3630270009330018  0.33281783695176875  0.7619523492256092  1.0000
  H   H19       1.0  0.79535057431179  0.5509748970118978  0.3146446955803981  1.0000
  H   H20       1.0  0.2046299488674705  0.44903531427520005  0.8146489989266286  1.0000
  H   H21       1.0  0.0190793007686025  0.7475045991424524  0.2976310806456368  1.0000
  H   H22       1.0  0.9809259732331623  0.25250649361188243  0.7976376241924115  1.0000
  H   H23       1.0  0.31051020974334154  0.0632464461166506  0.210137873083589  1.0000
  H   H24       1.0  0.6895149627020557  0.9367740226969873  0.7101333131966001  1.0000
  H   H25       1.0  0.38574899863885276  0.8603591052163967  0.22606549814440058  1.0000
  H   H26       1.0  0.6142536878662097  0.13965430132682852  0.7260720640478624  1.0000
  H   H27       1.0  0.24666699916032533  0.9433884709424804  0.3070605798263699  1.0000
  H   H28       1.0  0.7533665181424494  0.05662268165067273  0.8070593892399813  1.0000
  H   H29       1.0  0.9524073790252812  0.1490506986455955  0.9474595911731143  1.0000
  H   H30       1.0  0.047594759897336296  0.8509641822934173  0.4474711340600379  1.0000
  H   H31       1.0  0.745548286815186  0.3744407804947159  0.9465139467513239  1.0000
  H   H32       1.0  0.25444062299549586  0.6255602178934867  0.446522677535107  1.0000
  H   H33       1.0  0.37266735645384574  0.0061414007864542  0.050756695287987  1.0000
  H   H34       1.0  0.6273376372184455  0.9938715406726432  0.5507731315584152  1.0000
  H   H35       1.0  0.6035483851893841  0.807457655742674  0.0572456578283749  1.0000
  H   H36       1.0  0.3964432757684263  0.19253116474524037  0.557253396108848  1.0000
  H   H37       1.0  0.5781734924867692  0.5495407624158661  0.9553773496943663  1.0000
  H   H38       1.0  0.42182015948815615  0.45044251890204395  0.4553883835073407  1.0000
  H   H39       1.0  0.3501691172565273  0.7507143771505658  0.9557576612019716  1.0000
  H   H40       1.0  0.6498393838707128  0.24929281981712856  0.455765172508471  1.0000
  H   H41       1.0  0.9908471652352872  0.39662672054394954  0.0429689191488336  1.0000
  H   H42       1.0  0.009159199094817407  0.6033627603828935  0.5429769172839655  1.0000
  H   H43       1.0  0.19741161208823843  0.17117915050662455  0.04152189823252431  1.0000
  H   H44       1.0  0.8025983186610046  0.8288054278470441  0.5415298167709182  1.0000
  C   C1        1.0  0.7166858279632958  0.5659639836073043  0.7593571037764377  1.0000
  C   C2        1.0  0.2833045415963369  0.43402568502764893  0.2593641461675702  1.0000
  C   C3        1.0  0.8487111753617282  0.6573528256554584  0.8173875192937458  1.0000
  C   C4        1.0  0.1512838752493906  0.34263624988943076  0.3173833458417263  1.0000
  C   C5        1.0  0.9898864085071819  0.7387771445478252  0.7752391926474687  1.0000
  C   C6        1.0  0.010106408383244102  0.26122827432206464  0.2752364201233561  1.0000
  C   C7        1.0  0.11532867284814326  0.8458921637590961  0.8158690944412825  1.0000
  C   C8        1.0  0.8846734555945301  0.15411828969545383  0.3158713440509118  1.0000
  C   C9        1.0  0.2655869495531461  0.9065944087445817  0.7593339921303865  1.0000
  C   C10       1.0  0.7344039310879393  0.09340900808422962  0.2593413728602769  1.0000
  C   C11       1.0  0.739541241424021  0.581516981766484  0.2494316965201335  1.0000
  C   C12       1.0  0.26044167142745767  0.4184866557743235  0.7494396182623717  1.0000
  C   C13       1.0  0.8676894349821963  0.6651548334029301  0.18603386499341917  1.0000
  C   C14       1.0  0.1323138753893858  0.3348474028497535  0.686041325390903  1.0000
  C   C15       1.0  0.006968750218582903  0.7566538015559987  0.2246652323876788  1.0000
  C   C16       1.0  0.9930234978862058  0.24337703913173675  0.7246714250740567  1.0000
  C   C17       1.0  0.12862904271141667  0.8620381423612005  0.18037695377825  1.0000
  C   C18       1.0  0.8713770183487525  0.13797555803245842  0.6803727679583671  1.0000
  C   C19       1.0  0.27512878715153005  0.9374632744262642  0.23494052390457645  1.0000
  C   C20       1.0  0.7248858209263034  0.0625549935072272  0.7349403174512543  1.0000
  C   C21       1.0  0.8232240189326986  0.12590803092152214  0.972234842648099  1.0000
  C   C22       1.0  0.17677995817474107  0.8740973173030471  0.4722400843306715  1.0000
  C   C23       1.0  0.7057106913366551  0.24973958875389718  0.9703684701487844  1.0000
  C   C24       1.0  0.29429796554031634  0.7502571378756927  0.4703641398812408  1.0000
  C   C25       1.0  0.5382116235839192  0.21154475350957824  0.9987502859542516  1.0000
  C   C26       1.0  0.46179561603548774  0.7884535218122084  0.49875137037702905  1.0000
  C   C27       1.0  0.49989786972690087  0.04754746254209861  0.0287722160068924  1.0000
  C   C28       1.0  0.5001194888825393  0.9524451262125526  0.5287708783115832  1.0000
  C   C29       1.0  0.6272850354251317  0.933925922379956  0.0314409321102858  1.0000
  C   C30       1.0  0.37272494963261227  0.06607022985672022  0.5314464013848834  1.0000
  C   C31       1.0  0.4085729833614166  0.338849170228194  0.9980181318405102  1.0000
  C   C32       1.0  0.5914251192969642  0.6611427636799122  0.4980341020171863  1.0000
  C   C33       1.0  0.44983071256019963  0.50601163068297  0.9745756774198996  1.0000
  C   C34       1.0  0.5501613298358945  0.49397724545339394  0.4745977265779544  1.0000
  C   C35       1.0  0.32346919407919467  0.6208260221475754  0.9750237938236879  1.0000
  C   C36       1.0  0.6765320682034995  0.3791717040147803  0.47503761760399493  1.0000
  C   C37       1.0  0.12217068209609748  0.4224892621155335  0.022256598422949  1.0000
  C   C38       1.0  0.8778364809615053  0.5775084035779802  0.5222686847890755  1.0000
  C   C39       1.0  0.23913974835323865  0.2980685177199619  0.0220770452677286  1.0000
  C   C40       1.0  0.7608532244429682  0.7019227224924695  0.5220987030646853  1.0000
  N   N1        1.0  0.7866144003600579  0.9708060702069264  0.0032169780279787  1.0000
  N   N2        1.0  0.2133957858689327  0.029189761461857703  0.5032150807746518  1.0000
  N   N3        1.0  0.16180562210836058  0.5813159530123145  0.9983421158949639  1.0000
  N   N4        1.0  0.8381955870934727  0.41869100097346035  0.4983464332519887  1.0000
  O   O1        1.0  0.819140719333717  0.6540944860242491  0.9025207061703426  1.0000
  O   O2        1.0  0.18085436084601264  0.3458780564547227  0.4025181608996462  1.0000
  O   O3        1.0  0.11468255969434436  0.8981872223813526  0.8975385028729334  1.0000
  O   O4        1.0  0.8853080002450822  0.10183913811909663  0.3975507669755843  1.0000
  O   O5        1.0  0.8354883648921497  0.6492783622462854  0.1016845449705528  1.0000
  O   O6        1.0  0.16452793010402897  0.3506805916249861  0.6016955506438251  1.0000
  O   O7        1.0  0.12916538067007363  0.8988505410825527  0.0961962191419801  1.0000
  O   O8        1.0  0.8708547415098166  0.10114861611547354  0.5961978208499019  1.0000
