data_image0
_chemical_formula_structural       Cu2H18C16S2N4Cl2O6
_chemical_formula_sum              "Cu2 H18 C16 S2 N4 Cl2 O6"
_cell_length_a       8.291694678719619
_cell_length_b       8.270273954667596
_cell_length_c       9.036422135357684
_cell_angle_alpha    98.81945451874381
_cell_angle_beta     105.06540174076805
_cell_angle_gamma    114.66481524617228

_space_group_name_H-M_alt    "P 1"
_space_group_IT_number       1

loop_
  _space_group_symop_operation_xyz
  'x, y, z'

loop_
  _atom_site_type_symbol
  _atom_site_label
  _atom_site_symmetry_multiplicity
  _atom_site_fract_x
  _atom_site_fract_y
  _atom_site_fract_z
  _atom_site_occupancy
  Cu  Cu1       1.0  0.71109494395553  0.5033362066663329  0.5997521642676916  1.0000
  Cu  Cu2       1.0  0.28890357784156623  0.4966665396878227  0.40024911015586895  1.0000
  H   H1        1.0  0.6727822692533749  0.8340490176645047  0.7706227139580051  1.0000
  H   H2        1.0  0.32721215439516266  0.16594536032695825  0.22937420566285024  1.0000
  H   H3        1.0  0.9081478418714539  0.08776778635756699  0.4881414190843785  1.0000
  H   H4        1.0  0.09184929061248691  0.9122321655675805  0.5118558154179027  1.0000
  H   H5        1.0  0.02335048572489738  0.33368907605457565  0.5788878002013718  1.0000
  H   H6        1.0  0.9766529466183301  0.6663108975973485  0.42111643331899273  1.0000
  H   H7        1.0  0.7886366563263109  0.276797411198622  0.9340133193814568  1.0000
  H   H8        1.0  0.21136742580790716  0.7232039500735891  0.06598794233882181  1.0000
  H   H9        1.0  0.7722649655166905  0.4949248560608766  0.1586886142483195  1.0000
  H   H10       1.0  0.22773397729919514  0.5050737041424042  0.8413077359803155  1.0000
  H   H11       1.0  0.6318617514360768  0.053167717416350485  0.5760799720110797  1.0000
  H   H12       1.0  0.36813853084230885  0.9468336265557011  0.4239148717380202  1.0000
  H   H13       1.0  0.8464004840970463  0.12444786524888227  0.7339857542214149  1.0000
  H   H14       1.0  0.15359325985011202  0.8755451187261512  0.26601080935905225  1.0000
  H   H15       1.0  0.6864070339326956  0.9507007862226756  0.04995762012775623  1.0000
  H   H16       1.0  0.3136034076111898  0.0493033719356291  0.950045515767144  1.0000
  H   H17       1.0  0.7312673164380783  0.7739993954391977  0.2462189124050695  1.0000
  H   H18       1.0  0.26873662638470824  0.22599917361731056  0.7537785999173892  1.0000
  C   C1        1.0  0.6993482160432906  0.7669342223843643  0.8618084422596441  1.0000
  C   C2        1.0  0.30065268638609405  0.23306574044480033  0.13819188237332716  1.0000
  C   C3        1.0  0.7483875759050704  0.5233337245221319  0.9219782184925907  1.0000
  C   C4        1.0  0.25161192724102927  0.47666344174597697  0.0780169569389386  1.0000
  C   C5        1.0  0.8853067707068689  0.20655482821528884  0.5257914098550316  1.0000
  C   C6        1.0  0.11469413172250849  0.7934451346138757  0.4742089147779396  1.0000
  C   C7        1.0  0.769161669158862  0.36357271739171176  0.8579655931214278  1.0000
  C   C8        1.0  0.23083981354099592  0.636425855766376  0.1420357752747634  1.0000
  C   C9        1.0  0.7535230629007401  0.5762462463017499  0.07788884707284169  1.0000
  C   C10       1.0  0.2464745304825087  0.4237495280007123  0.9221079003551651  1.0000
  C   C11       1.0  0.777112346439594  0.16919056479871125  0.6397484225431072  1.0000
  C   C12       1.0  0.22288719658702402  0.8308066099975874  0.3602511900090661  1.0000
  C   C13       1.0  0.7047346277487349  0.8290422649118055  0.016754347495130127  1.0000
  C   C14       1.0  0.2952719444188077  0.17095909865497563  0.9832463859918975  1.0000
  C   C15       1.0  0.7316567382305477  0.7324091088758988  0.12584435896857105  1.0000
  C   C16       1.0  0.2683473339335407  0.26759225026426486  0.8741557934715446  1.0000
  S   S1        1.0  0.7580167624557534  0.2293931131317492  0.3442540190721887  1.0000
  S   S2        1.0  0.24197806915694997  0.7706096393747756  0.6557530394619705  1.0000
  N   N1        1.0  0.7629345836342553  0.32979102539236743  0.7122045633475481  1.0000
  N   N2        1.0  0.23706745939581714  0.6702061538305486  0.2877956302515444  1.0000
  N   N3        1.0  0.7216383373193624  0.6185840438229988  0.8163349877740986  1.0000
  N   N4        1.0  0.278357445731949  0.38141312220133017  0.18366264392755474  1.0000
  Cl  Cl1       1.0  0.672733476734166  0.7231843589271845  0.4956135434399016  1.0000
  Cl  Cl2       1.0  0.3272690039000565  0.2768239635739604  0.5043883363885372  1.0000
  O   O1        1.0  0.7325402643948846  0.39717750474064656  0.39631633129064875  1.0000
  O   O2        1.0  0.2674500181400816  0.6028210591579181  0.6036879687952492  1.0000
  O   O3        1.0  0.5764427383113925  0.057984114260825885  0.2675553204666841  1.0000
  O   O4        1.0  0.4235533433030341  0.9420186404590041  0.7324520285909345  1.0000
  O   O5        1.0  0.8802296968019832  0.2703295943615771  0.24858788679566857  1.0000
  O   O6        1.0  0.11976213402743242  0.7296773228128258  0.7514146406452085  1.0000
