data_image0
_chemical_formula_structural       Nd2H46C28O18
_chemical_formula_sum              "Nd2 H46 C28 O18"
_cell_length_a       8.617911682010838
_cell_length_b       8.864684547595582
_cell_length_c       11.770917155723422
_cell_angle_alpha    108.71289761176668
_cell_angle_beta     89.99983342800616
_cell_angle_gamma    90.00011802967224

_space_group_name_H-M_alt    "P 1"
_space_group_IT_number       1

loop_
  _space_group_symop_operation_xyz
  'x, y, z'

loop_
  _atom_site_type_symbol
  _atom_site_label
  _atom_site_symmetry_multiplicity
  _atom_site_fract_x
  _atom_site_fract_y
  _atom_site_fract_z
  _atom_site_occupancy
  Nd  Nd1       1.0  0.4568303013376678  0.011245750703651003  0.9951330655335439  1.0000
  Nd  Nd2       1.0  0.9568302730041509  0.9887530464251458  0.004866112638282565  1.0000
  H   H1        1.0  0.07875298675300262  0.8478685395843257  0.6662565521839808  1.0000
  H   H2        1.0  0.5787452781589905  0.1521310751678868  0.3337385489717305  1.0000
  H   H3        1.0  0.0918765658675085  0.6706770008946917  0.6994851854242297  1.0000
  H   H4        1.0  0.5918728383396044  0.32932499535255033  0.30051133642290034  1.0000
  H   H5        1.0  0.3230350815414127  0.7804683154378438  0.5413211131769343  1.0000
  H   H6        1.0  0.8230281809396516  0.21953155521931217  0.4586760746911124  1.0000
  H   H7        1.0  0.3490121125297562  0.6093483950470499  0.582871463786013  1.0000
  H   H8        1.0  0.8490034112976799  0.3906526487259967  0.4171285122308319  1.0000
  H   H9        1.0  0.07866043047201292  0.6646681651426434  0.4307692691459691  1.0000
  H   H10       1.0  0.5786521746006414  0.33532896693503733  0.5692303052110574  1.0000
  H   H11       1.0  0.0933307631491118  0.5010180153000547  0.48376389841708783  1.0000
  H   H12       1.0  0.5933230569791449  0.4989803092961297  0.5162367940712896  1.0000
  H   H13       1.0  0.3325527009774873  0.5830616074142085  0.31919090879294026  1.0000
  H   H14       1.0  0.8325453353562295  0.4169334779439282  0.6808067535152417  1.0000
  H   H15       1.0  0.34930241614254254  0.42708689217847257  0.3800842033904529  1.0000
  H   H16       1.0  0.8492979361429961  0.5729082309699932  0.6199125826821188  1.0000
  H   H17       1.0  0.11145632591679089  0.4615628080674342  0.1981715333391421  1.0000
  H   H18       1.0  0.6114533774871944  0.538440302911269  0.8018303246586241  1.0000
  H   H19       1.0  0.0771112805689214  0.3290965590999164  0.27933245269623075  1.0000
  H   H20       1.0  0.5771112487435205  0.6709053179067156  0.7206691687824216  1.0000
  H   H21       1.0  0.5688325338691201  0.26449614523328085  0.8141036052905902  1.0000
  H   H22       1.0  0.06883494065087352  0.7354985087596474  0.18589961476133246  1.0000
  H   H23       1.0  0.3746512530429271  0.8935301183508813  0.3887238345981458  1.0000
  H   H24       1.0  0.8746516378767594  0.10647451352546972  0.6112778387916719  1.0000
  H   H25       1.0  0.17392280770300766  0.850958948899013  0.36707366201616043  1.0000
  H   H26       1.0  0.6739231957825923  0.14904539773610986  0.6329300715683741  1.0000
  H   H27       1.0  0.3190302709964001  0.18078774726242128  0.4073745303300028  1.0000
  H   H28       1.0  0.8190287321498887  0.819215640752496  0.5926261002856348  1.0000
  H   H29       1.0  0.11834937616893629  0.1373983186542418  0.397878929448339  1.0000
  H   H30       1.0  0.6183467298351745  0.8626060086689551  0.6021223701710168  1.0000
  H   H31       1.0  0.340031425355562  0.08587518008064882  0.5871575012291286  1.0000
  H   H32       1.0  0.8400307931139325  0.9141282510536185  0.41284224532937924  1.0000
  H   H33       1.0  0.1392101256805844  0.049166445813611404  0.5809872746505887  1.0000
  H   H34       1.0  0.6392083851539995  0.9508355258371637  0.41901338714685454  1.0000
  H   H35       1.0  0.2906333782419209  0.3763251473949012  0.623226195901438  1.0000
  H   H36       1.0  0.7906322835375833  0.6236793623542243  0.3767764775071356  1.0000
  H   H37       1.0  0.0888095208156585  0.3416285074050123  0.6154204216175216  1.0000
  H   H38       1.0  0.5888084675612077  0.6583745416043743  0.38458316887379584  1.0000
  H   H39       1.0  0.0996806124509746  0.2495500575564903  0.7958690854445718  1.0000
  H   H40       1.0  0.5996827832756678  0.7504530386615615  0.2041327942177275  1.0000
  H   H41       1.0  0.17180263518156383  0.44442305922365216  0.8268222013241483  1.0000
  H   H42       1.0  0.6717975601093685  0.5555788693456448  0.1731826275544534  1.0000
  H   H43       1.0  0.3261469996666762  0.7218893199884635  0.025751330749656593  1.0000
  H   H44       1.0  0.8261474707832335  0.2781116783345966  0.9742495327450341  1.0000
  H   H45       1.0  0.4099543529758307  0.6374796667388836  0.9010317729846091  1.0000
  H   H46       1.0  0.9099538101317961  0.36252145344590764  0.09896809088101578  1.0000
  C   C1        1.0  0.2588160912638955  0.8438908774989785  0.7858619641631248  1.0000
  C   C2        1.0  0.7588135041225  0.1561088958575212  0.21413618728515613  1.0000
  C   C3        1.0  0.16330236001938664  0.7599250131556019  0.6768185736190161  1.0000
  C   C4        1.0  0.6632983572900952  0.24007703906494982  0.3231795076146469  1.0000
  C   C5        1.0  0.2591946468174626  0.6864595678844694  0.5639680286856716  1.0000
  C   C6        1.0  0.7591868708693355  0.31354136328006627  0.4360321126091831  1.0000
  C   C7        1.0  0.1630345683677064  0.5884327865781387  0.4571014318808223  1.0000
  C   C8        1.0  0.6630265750575219  0.41156443449571606  0.5428988326244449  1.0000
  C   C9        1.0  0.2640405946567199  0.49894776924610784  0.35019396491125565  1.0000
  C   C10       1.0  0.7640335264238018  0.5010472637917827  0.6498021326487018  1.0000
  C   C11       1.0  0.1694435219904307  0.389955888440646  0.24661294181396434  1.0000
  C   C12       1.0  0.6694420740514601  0.6100425483746862  0.7533867651979731  1.0000
  C   C13       1.0  0.26253804904265376  0.2641029841718066  0.15591441725176478  1.0000
  C   C14       1.0  0.7625388261892923  0.7358955861511163  0.8440842730381986  1.0000
  C   C15       1.0  0.29221166332052206  0.900322065582678  0.22184679987209668  1.0000
  C   C16       1.0  0.7922113759034488  0.09967766570272119  0.7781555171743972  1.0000
  C   C17       1.0  0.26636178188585546  0.9290578162519837  0.354429777185352  1.0000
  C   C18       1.0  0.7663596367593327  0.07094666306584678  0.6455729408879093  1.0000
  C   C19       1.0  0.2306491109125091  0.1030326985773229  0.4270541114391405  1.0000
  C   C20       1.0  0.7306478115537304  0.8969717359660976  0.5729486723505132  1.0000
  C   C21       1.0  0.22840006567264481  0.12683498840017648  0.5616257760543987  1.0000
  C   C22       1.0  0.7283980870890829  0.8731682691979187  0.4383758667468242  1.0000
  C   C23       1.0  0.19973653325396162  0.29897222287026887  0.6401946874369954  1.0000
  C   C24       1.0  0.6997345061370979  0.7010286169634908  0.359806408675979  1.0000
  C   C25       1.0  0.19440785178569797  0.3186973447617945  0.7745576052317344  1.0000
  C   C26       1.0  0.6944074738503474  0.6813022471130668  0.22544573720061575  1.0000
  C   C27       1.0  0.3419852228187565  0.2683741739531343  0.8215608548604006  1.0000
  C   C28       1.0  0.8419851350180566  0.7316220469953408  0.17844047144356517  1.0000
  O   O1        1.0  0.19491181959445217  0.8895714090214782  0.8905609487997166  1.0000
  O   O2        1.0  0.6949118709985029  0.11043071640909119  0.10943538344216816  1.0000
  O   O3        1.0  0.4024704281357998  0.8681588188842753  0.7758466256946617  1.0000
  O   O4        1.0  0.9024665905934127  0.1318387023860694  0.22415319820554191  1.0000
  O   O5        1.0  0.19570977701629744  0.13248738310084457  0.09503406834882357  1.0000
  O   O6        1.0  0.6957129088286393  0.8675098453697315  0.9049678268399289  1.0000
  O   O7        1.0  0.40520955707984296  0.2850714095287614  0.14016119458424464  1.0000
  O   O8        1.0  0.9052113888299688  0.7149286145259596  0.8598333058290633  1.0000
  O   O9        1.0  0.40689270888917417  0.966854747176697  0.19092551732572347  1.0000
  O   O10       1.0  0.9068944817703725  0.0331475936615888  0.80907296106718  1.0000
  O   O11       1.0  0.1993910870485749  0.8063435022526947  0.14449155285482357  1.0000
  O   O12       1.0  0.699387209099534  0.1936513154247237  0.8555114269537397  1.0000
  O   O13       1.0  0.47186484038294907  0.31401000524100897  0.782482342708384  1.0000
  O   O14       1.0  0.9718621827033188  0.6859827386482493  0.2175212270902377  1.0000
  O   O15       1.0  0.34089541155907443  0.19009942811069183  0.8918829405916068  1.0000
  O   O16       1.0  0.8409015659201274  0.809893269099895  0.10811495232901784  1.0000
  O   O17       1.0  0.424526254621334  0.7156372494821283  0.979871999287404  1.0000
  O   O18       1.0  0.924527020350972  0.2843662708003336  0.02012843719620608  1.0000
