data_image0
_chemical_formula_structural       Nd4H112C128N24Cl4O40
_chemical_formula_sum              "Nd4 H112 C128 N24 Cl4 O40"
_cell_length_a       15.894999519167293
_cell_length_b       17.307607818584383
_cell_length_c       17.3072065237464
_cell_angle_alpha    89.9961880777821
_cell_angle_beta     89.9994879748986
_cell_angle_gamma    89.99989204751928

_space_group_name_H-M_alt    "P 1"
_space_group_IT_number       1

loop_
  _space_group_symop_operation_xyz
  'x, y, z'

loop_
  _atom_site_type_symbol
  _atom_site_label
  _atom_site_symmetry_multiplicity
  _atom_site_fract_x
  _atom_site_fract_y
  _atom_site_fract_z
  _atom_site_occupancy
  Nd  Nd1       1.0  0.24997326972346906  0.1970569240936726  0.8029533071170574  1.0000
  Nd  Nd2       1.0  0.999955681024744  0.6970728540098747  0.6971019441495513  1.0000
  Nd  Nd3       1.0  0.7499806363110508  0.8029443114984005  0.1970407057571322  1.0000
  Nd  Nd4       1.0  0.4999938362015826  0.3029343006707563  0.30289867432011863  1.0000
  H   H1        1.0  0.2959275991611605  0.3053678029561625  0.4678757984835685  1.0000
  H   H2        1.0  0.045940704964557696  0.0320891056457739  0.8053574813089313  1.0000
  H   H3        1.0  0.7959445230400275  0.6945981083271136  0.5321028140100665  1.0000
  H   H4        1.0  0.5459509050323774  0.9678928416603937  0.19463070302845856  1.0000
  H   H5        1.0  0.9540556762326486  0.805408077967961  0.032051284964588  1.0000
  H   H6        1.0  0.7040018412347067  0.46790195631391635  0.3053895709634702  1.0000
  H   H7        1.0  0.4540706234503631  0.19460666860376108  0.9679306445708844  1.0000
  H   H8        1.0  0.20402315345346977  0.5321351814345405  0.6946181089341507  1.0000
  H   H9        1.0  0.3788690747529627  0.4039909726530837  0.515826188293637  1.0000
  H   H10       1.0  0.12885464384458337  0.9841537782683574  0.9039930363050528  1.0000
  H   H11       1.0  0.8788614985036104  0.5960048385988088  0.48414942831579566  1.0000
  H   H12       1.0  0.6289004501890857  0.0158447796254393  0.09600486403739689  1.0000
  H   H13       1.0  0.871135580332826  0.904027319297235  0.9840980015272364  1.0000
  H   H14       1.0  0.6210802677089404  0.5158522249355356  0.40406570951996196  1.0000
  H   H15       1.0  0.37114296359401777  0.09598526172626261  0.0158580332259319  1.0000
  H   H16       1.0  0.12107746812497305  0.48418274653215587  0.5959386096415996  1.0000
  H   H17       1.0  0.3514209551166728  0.4383161015747348  0.6105706633067597  1.0000
  H   H18       1.0  0.10142896753982458  0.8894128198815777  0.9383253535763242  1.0000
  H   H19       1.0  0.8514288363730101  0.5616682019638832  0.3894046021249834  1.0000
  H   H20       1.0  0.6014484903548903  0.11058116360572261  0.06167392872679759  1.0000
  H   H21       1.0  0.8985584650014076  0.938376036860497  0.8893512420248155  1.0000
  H   H22       1.0  0.6485270019039857  0.6105949442426635  0.4383834078663255  1.0000
  H   H23       1.0  0.39854738478675955  0.0616249407566301  0.11060341151334539  1.0000
  H   H24       1.0  0.1485505216633527  0.3894434458413514  0.5616253071392022  1.0000
  H   H25       1.0  0.4977362079878275  0.4077162995697919  0.6056419175540383  1.0000
  H   H26       1.0  0.24773424253090323  0.8943710676571826  0.9077240377312705  1.0000
  H   H27       1.0  0.9977427210113702  0.5923203270132618  0.3943228951364474  1.0000
  H   H28       1.0  0.7477597701556035  0.1056711934027135  0.09229541509879617  1.0000
  H   H29       1.0  0.7522835385794195  0.9076351826949035  0.8943132291249467  1.0000
  H   H30       1.0  0.5022276858685615  0.6056705130660235  0.4076958022995072  1.0000
  H   H31       1.0  0.25227621874304157  0.0923521837781536  0.10563165273445917  1.0000
  H   H32       1.0  0.002245236451635399  0.39435080049063503  0.5922655847740401  1.0000
  H   H33       1.0  0.44796812240864625  0.33839850109581704  0.6682114293074831  1.0000
  H   H34       1.0  0.19799509961853795  0.83180382236192  0.8384083785910761  1.0000
  H   H35       1.0  0.9479530808378627  0.6616509223448974  0.3317890387949517  1.0000
  H   H36       1.0  0.6979820808289928  0.16819750257769778  0.1616270862740805  1.0000
  H   H37       1.0  0.8021241149893185  0.838398883422606  0.8317142365474339  1.0000
  H   H38       1.0  0.5520650150363549  0.6682285021047605  0.3384033042113757  1.0000
  H   H39       1.0  0.3021053527623607  0.1615987959160492  0.16823716763124708  1.0000
  H   H40       1.0  0.052061260440758886  0.3317805912343418  0.6615542057065795  1.0000
  H   H41       1.0  0.5194581015623284  0.22727507378872502  0.6501789918178673  1.0000
  H   H42       1.0  0.2694180814297481  0.8498717663817742  0.7272971199954839  1.0000
  H   H43       1.0  0.0194237551131806  0.772738118610036  0.34984869999235  1.0000
  H   H44       1.0  0.7693989901796171  0.1501282789173857  0.2727215778555915  1.0000
  H   H45       1.0  0.7305425088191555  0.7272512683876329  0.8497979811154506  1.0000
  H   H46       1.0  0.48056635584562457  0.6501644837597881  0.22727881414644455  1.0000
  H   H47       1.0  0.23054634422779688  0.272736134915128  0.15018001419932145  1.0000
  H   H48       1.0  0.9805306910560245  0.34982075024952053  0.7726890309551564  1.0000
  H   H49       1.0  0.6069192140115404  0.11712509651930961  0.3571240256441683  1.0000
  H   H50       1.0  0.35690848390257907  0.1428874129087703  0.6171644313769205  1.0000
  H   H51       1.0  0.10687614279479618  0.8828804322476954  0.6428994786161368  1.0000
  H   H52       1.0  0.8568522857978991  0.8571194118634722  0.3828916794869315  1.0000
  H   H53       1.0  0.6430896091478076  0.6171545002774437  0.14284967255855457  1.0000
  H   H54       1.0  0.3931459828793037  0.3571179033810523  0.11715907669600509  1.0000
  H   H55       1.0  0.1430448504030295  0.38283363326789305  0.8571342440873548  1.0000
  H   H56       1.0  0.8931130592118066  0.6428617043178377  0.8828406901981934  1.0000
  H   H57       1.0  0.6691435699537037  0.0075557491703293  0.4306892567321014  1.0000
  H   H58       1.0  0.4191469018059522  0.06935166609065388  0.5076053237514202  1.0000
  H   H59       1.0  0.169121749748335  0.992443893295807  0.5693308456550952  1.0000
  H   H60       1.0  0.919085089055997  0.9306602503455469  0.4924433403109703  1.0000
  H   H61       1.0  0.5808887537241745  0.5075508656987254  0.0693073331045611  1.0000
  H   H62       1.0  0.33090610980353563  0.4306684508557055  0.007572477280355398  1.0000
  H   H63       1.0  0.08084872188400989  0.49243622085116817  0.9306759407862939  1.0000
  H   H64       1.0  0.8308892606853746  0.5693049097075472  0.9924318474526571  1.0000
  H   H65       1.0  0.6558248550720477  0.0024486060636164  0.574218710126182  1.0000
  H   H66       1.0  0.40582928901773835  0.9258474520078296  0.502478431134584  1.0000
  H   H67       1.0  0.155806302156499  0.9975377707235326  0.4258003469075787  1.0000
  H   H68       1.0  0.9057836385249941  0.0741743105752093  0.49755069733540574  1.0000
  H   H69       1.0  0.5941988610550126  0.5024754517010948  0.9257726419711643  1.0000
  H   H70       1.0  0.34418815303022404  0.5742077977640322  0.0024969272587540992  1.0000
  H   H71       1.0  0.0941627109896501  0.4975254784709053  0.0742070549434359  1.0000
  H   H72       1.0  0.8441790962387329  0.4257643842289625  0.997502087831009  1.0000
  H   H73       1.0  0.5878967508109554  0.1108616473925821  0.6447842531568426  1.0000
  H   H74       1.0  0.33788545532293307  0.8552697388645926  0.6108757904682063  1.0000
  H   H75       1.0  0.08786022799910848  0.8891375589543247  0.35523998591229133  1.0000
  H   H76       1.0  0.8378476317811517  0.1447365427833205  0.38913598703649643  1.0000
  H   H77       1.0  0.6621770750756965  0.6108699572131258  0.855221842304445  1.0000
  H   H78       1.0  0.41214100279887583  0.6447580769861146  0.11090289849826719  1.0000
  H   H79       1.0  0.16214046204023447  0.38913143185872917  0.1447653832634543  1.0000
  H   H80       1.0  0.9121111201151277  0.35521514253735387  0.8890799559647959  1.0000
  H   H81       1.0  0.09919391499013128  0.1195109306485662  0.6603789065366141  1.0000
  H   H82       1.0  0.8491474766038252  0.8396099931403355  0.6195890706967049  1.0000
  H   H83       1.0  0.5991972261971411  0.8804853670679053  0.339644661531139  1.0000
  H   H84       1.0  0.34919020380901594  0.16036969059086204  0.3804312814205061  1.0000
  H   H85       1.0  0.15080436776530348  0.6195942552567006  0.8395781542816534  1.0000
  H   H86       1.0  0.9008399215611503  0.6603782378154438  0.1195915415862032  1.0000
  H   H87       1.0  0.6508374845454483  0.3804042650794273  0.1603976089770924  1.0000
  H   H88       1.0  0.4008478722198632  0.33962504588881604  0.8803942938629701  1.0000
  H   H89       1.0  0.18638406863410487  0.23666596257641723  0.4091018636057696  1.0000
  H   H90       1.0  0.936388944509332  0.09086765664773108  0.7366492602195649  1.0000
  H   H91       1.0  0.6864109785887321  0.7632972503368478  0.5908955636866153  1.0000
  H   H92       1.0  0.43639982657825266  0.9091205426536534  0.2633385938098982  1.0000
  H   H93       1.0  0.06363832209426326  0.7366804745934418  0.09085182547254077  1.0000
  H   H94       1.0  0.8135618470371851  0.4091074590975269  0.23668212451092774  1.0000
  H   H95       1.0  0.5636279350901177  0.2633251310284664  0.9091310121079557  1.0000
  H   H96       1.0  0.3135798576234733  0.5909081092594449  0.7633350531376449  1.0000
  H   H97       1.0  0.06935803402281239  0.14108946470140182  0.4131113713604151  1.0000
  H   H98       1.0  0.819364557308944  0.0868726959888306  0.6410792819332015  1.0000
  H   H99       1.0  0.569393596113187  0.8588785738352769  0.5869112879096859  1.0000
  H   H100      1.0  0.31938016765854366  0.9131145517455366  0.35891531486091566  1.0000
  H   H101      1.0  0.1806463064079509  0.6410826616151228  0.0868348105892167  1.0000
  H   H102      1.0  0.9305770939669101  0.41310011144400965  0.14109878204950377  1.0000
  H   H103      1.0  0.6806444939556896  0.35891234022868457  0.9131337733694946  1.0000
  H   H104      1.0  0.4306111734171622  0.5869008089013051  0.8588966306991208  1.0000
  H   H105      1.0  0.025858896028694296  0.08335982497193581  0.5392522561027562  1.0000
  H   H106      1.0  0.7758446010735298  0.9607325635292483  0.5833934831698997  1.0000
  H   H107      1.0  0.5258804633623342  0.9166308223818335  0.4607869393352714  1.0000
  H   H108      1.0  0.27588219098936406  0.039251292708002  0.41662342862039026  1.0000
  H   H109      1.0  0.22409982527054947  0.5833459854894301  0.960698546500282  1.0000
  H   H110      1.0  0.9740777187014442  0.539218788794834  0.08332309668183058  1.0000
  H   H111      1.0  0.724118313396488  0.41664605180580583  0.03926390127903549  1.0000
  H   H112      1.0  0.4741158990373791  0.4607705008206579  0.9166482682402515  1.0000
  C   C1        1.0  0.273511470879903  0.29229067739780135  0.5271054105984732  1.0000
  C   C2        1.0  0.023501937354211598  0.9728642859732092  0.792297599958104  1.0000
  C   C3        1.0  0.7735157301191932  0.7076827838112435  0.4728837867988389  1.0000
  C   C4        1.0  0.5235265067408149  0.027115966938815506  0.20769654731374487  1.0000
  C   C5        1.0  0.9765317880386702  0.7923732342420635  0.9728470100438711  1.0000
  C   C6        1.0  0.726463625235027  0.5271075479625439  0.2923628765167479  1.0000
  C   C7        1.0  0.47653757686376247  0.2076368508560975  0.027135312173165  1.0000
  C   C8        1.0  0.22646039562446418  0.47292377250127543  0.7076538631923626  1.0000
  C   C9        1.0  0.36955454523518927  0.38701490435593666  0.5770949111170651  1.0000
  C   C10       1.0  0.11954871691086309  0.9228911181309769  0.8870322365944288  1.0000
  C   C11       1.0  0.8695519318220092  0.6129693673976108  0.4228848272077954  1.0000
  C   C12       1.0  0.6195678109963295  0.0771080339771828  0.1129605404155214  1.0000
  C   C13       1.0  0.8804803425202649  0.8870657106537508  0.9228327187699816  1.0000
  C   C14       1.0  0.6304215902392443  0.5771131251785774  0.387084000886631  1.0000
  C   C15       1.0  0.38047388617823685  0.11294338756595582  0.0771180389668515  1.0000
  C   C16       1.0  0.1304237837562425  0.42292009645152023  0.6129260192375767  1.0000
  C   C17       1.0  0.4543282569173357  0.35813286947113454  0.6077567386411216  1.0000
  C   C18       1.0  0.2043365595480608  0.8922476771471111  0.8581599627590036  1.0000
  C   C19       1.0  0.9543126700013217  0.6418807209366622  0.3922298111633394  1.0000
  C   C20       1.0  0.7043452454788264  0.1077663486505998  0.14185233755191004  1.0000
  C   C21       1.0  0.7957343712907204  0.8580922627799695  0.8921791715611176  1.0000
  C   C22       1.0  0.5456705170589585  0.6077764004919787  0.35813989556035597  1.0000
  C   C23       1.0  0.2957225260934635  0.14189849435385332  0.10777170770585799  1.0000
  C   C24       1.0  0.045659281046141593  0.39223963670563233  0.6418378896669807  1.0000
  C   C25       1.0  0.5193917109820558  0.2363379327209429  0.5869402933921037  1.0000
  C   C26       1.0  0.26935883514916975  0.9131031959386109  0.7363588711058782  1.0000
  C   C27       1.0  0.0193391548346682  0.7636769933243174  0.4130821988369107  1.0000
  C   C28       1.0  0.7693443641748771  0.0868974272789345  0.26365867160738776  1.0000
  C   C29       1.0  0.7306881511133837  0.7363232086313687  0.9130487873866426  1.0000
  C   C30       1.0  0.4806657785607697  0.5869162731701107  0.23634939459063278  1.0000
  C   C31       1.0  0.23066808162585056  0.2636757501654188  0.0869257396775254  1.0000
  C   C32       1.0  0.9806193778193799  0.4130701162747242  0.7636172941090962  1.0000
  C   C33       1.0  0.5567458765378673  0.1745989097622598  0.5421810702731377  1.0000
  C   C34       1.0  0.3067104581783298  0.9578497023333982  0.6746130066063356  1.0000
  C   C35       1.0  0.056683324331544306  0.8254257733266781  0.4578428470864678  1.0000
  C   C36       1.0  0.8066854140189433  0.0421514332317585  0.3254123173023658  1.0000
  C   C37       1.0  0.693325932338922  0.6746026504736448  0.9578259847613992  1.0000
  C   C38       1.0  0.44332230313334253  0.5421501851458712  0.17461432716865488  1.0000
  C   C39       1.0  0.1932860388665318  0.3253957952709854  0.042163295285845885  1.0000
  C   C40       1.0  0.9432733259543651  0.4578339581647625  0.8253578696422463  1.0000
  C   C41       1.0  0.5602127794827537  0.17671059497632774  0.4583332545089575  1.0000
  C   C42       1.0  0.31017473283911556  0.04168546675595761  0.676742018425571  1.0000
  C   C43       1.0  0.06015571068565609  0.8233071486721715  0.5416912122698676  1.0000
  C   C44       1.0  0.8101459586642007  0.9583168181368011  0.3232890548388667  1.0000
  C   C45       1.0  0.6898028429311863  0.6767287391803478  0.04163879071919749  1.0000
  C   C46       1.0  0.43982756836443565  0.4583245532433011  0.17672318934022968  1.0000
  C   C47       1.0  0.18975911236628917  0.3232668240233211  0.95834416275207  1.0000
  C   C48       1.0  0.9397834741074432  0.541657284634873  0.8232611700136302  1.0000
  C   C49       1.0  0.602886198042114  0.11454784553347962  0.41984713296629644  1.0000
  C   C50       1.0  0.35287458706101654  0.08018155145434491  0.6145907284290784  1.0000
  C   C51       1.0  0.10284876216204  0.8854646236328209  0.5801764042902633  1.0000
  C   C52       1.0  0.8528232695686596  0.9198281695434929  0.38545674866600876  1.0000
  C   C53       1.0  0.6471345837668778  0.6145739035744742  0.08013482589071687  1.0000
  C   C54       1.0  0.3971490773429807  0.4198297139125771  0.11458463507437949  1.0000
  C   C55       1.0  0.1470910996892272  0.3854148007309064  0.919847901793986  1.0000
  C   C56       1.0  0.8971244349717294  0.5801504647286321  0.8854104764110386  1.0000
  C   C57       1.0  0.6371786046155988  0.05409151936300561  0.461300521842432  1.0000
  C   C58       1.0  0.3871756465148266  0.0387474189935162  0.554137379699412  1.0000
  C   C59       1.0  0.13715591730539958  0.9459110678195226  0.5387186883989017  1.0000
  C   C60       1.0  0.8871236591935983  0.961265131115205  0.44590808112579333  1.0000
  C   C61       1.0  0.6128492204633956  0.5541082608726314  0.03870337134659959  1.0000
  C   C62       1.0  0.36285552389175985  0.4612672904809045  0.054127078810473996  1.0000
  C   C63       1.0  0.1128146490028783  0.445883969796995  0.9612836834091567  1.0000
  C   C64       1.0  0.8628354132028446  0.5387089034525305  0.9458706266994739  1.0000
  C   C65       1.0  0.6308567295334624  0.0515662375798271  0.5423870856310627  1.0000
  C   C66       1.0  0.38084254427833747  0.9576607507722059  0.5515992101025515  1.0000
  C   C67       1.0  0.13083356426639628  0.9484328939694964  0.4576315990541743  1.0000
  C   C68       1.0  0.8808037255733294  0.042352388655672306  0.44843128021841483  1.0000
  C   C69       1.0  0.6191819857711278  0.5515834106358357  0.9576102434083679  1.0000
  C   C70       1.0  0.36917630944845564  0.5423634981090257  0.051605173083053985  1.0000
  C   C71       1.0  0.11914624395218709  0.4484163202673842  0.042372714333985984  1.0000
  C   C72       1.0  0.869155081024985  0.45761441831130156  0.9483872801162576  1.0000
  C   C73       1.0  0.5918360295282312  0.11187369994606662  0.5817867461432584  1.0000
  C   C74       1.0  0.3418111492850072  0.9182541424199046  0.6118934853662806  1.0000
  C   C75       1.0  0.09179449465453618  0.8881393663237845  0.418235726625923  1.0000
  C   C76       1.0  0.84177472189846  0.08175444315347848  0.3881286599823852  1.0000
  C   C77       1.0  0.6582308738635587  0.6118784032482054  0.9182244822759955  1.0000
  C   C78       1.0  0.4082152990864927  0.5817580062791734  0.1119017051651952  1.0000
  C   C79       1.0  0.15819172750146748  0.38811779266679025  0.0817633538037299  1.0000
  C   C80       1.0  0.908180264932639  0.4182198424394628  0.8880782925607632  1.0000
  C   C81       1.0  0.11638320837727889  0.14581389629728383  0.605362727588229  1.0000
  C   C82       1.0  0.8663451548575196  0.8946213280242504  0.6458715963670087  1.0000
  C   C83       1.0  0.6163910732304032  0.8541748604091454  0.394656654435792  1.0000
  C   C84       1.0  0.3663857320357521  0.10536063703519011  0.3541422581622342  1.0000
  C   C85       1.0  0.13364396083164107  0.6458814575242185  0.8945920057841688  1.0000
  C   C86       1.0  0.8836438761529519  0.6053559101541666  0.14586804706151205  1.0000
  C   C87       1.0  0.6336657105237008  0.35411882622135243  0.10538043217850658  1.0000
  C   C88       1.0  0.38364882375189063  0.39464913664925666  0.8541254414368636  1.0000
  C   C89       1.0  0.18424600414805065  0.20018587380916136  0.605558244576997  1.0000
  C   C90       1.0  0.9342115184796853  0.8944241702036706  0.7002486716523464  1.0000
  C   C91       1.0  0.6842583854380421  0.7998050760470788  0.3944472885958489  1.0000
  C   C92       1.0  0.4342513637108566  0.10555998754267651  0.29976520107384624  1.0000
  C   C93       1.0  0.06580559043590031  0.7002859219391055  0.8944032702883007  1.0000
  C   C94       1.0  0.8158109586230465  0.6055696718817246  0.2002710910017029  1.0000
  C   C95       1.0  0.5658280780214611  0.29971736876937893  0.10557897157155337  1.0000
  C   C96       1.0  0.31579504316688656  0.39444531510738295  0.799736823559243  1.0000
  C   C97       1.0  0.20865148565089697  0.23373655040992253  0.5320471867727434  1.0000
  C   C98       1.0  0.9586416061366517  0.967931748378774  0.7337674219803603  1.0000
  C   C99       1.0  0.7086676270261519  0.7662439567505855  0.4679598789019579  1.0000
  C   C100      1.0  0.45866808475153675  0.03205352264021849  0.26623642685108  1.0000
  C   C101      1.0  0.04140696111944209  0.7338381063075302  0.9679132513214126  1.0000
  C   C102      1.0  0.7913560101222002  0.5320610183481164  0.23382151220370417  1.0000
  C   C103      1.0  0.5414138716030691  0.26616927125859746  0.0320749695621885  1.0000
  C   C104      1.0  0.2913509652942777  0.46795689993575007  0.7661946929507124  1.0000
  C   C105      1.0  0.167365898155488  0.21082811494228793  0.46402674316879466  1.0000
  C   C106      1.0  0.9173592411556867  0.03594759687929639  0.7108422635230552  1.0000
  C   C107      1.0  0.6673838505899993  0.7891437975065473  0.5359818187531288  1.0000
  C   C108      1.0  0.4173823440857234  0.9640406353079812  0.2891549920500508  1.0000
  C   C109      1.0  0.082679193701729  0.7108895812410978  0.03592750777666249  1.0000
  C   C110      1.0  0.8326119324501632  0.46403963560796074  0.21087940546804157  1.0000
  C   C111      1.0  0.5826751426384147  0.2891171466552791  0.9640569061390921  1.0000
  C   C112      1.0  0.33262477181040134  0.5359735885068205  0.7891341484566323  1.0000
  C   C113      1.0  0.1015785852407447  0.15766708536003904  0.46618799904637603  1.0000
  C   C114      1.0  0.8515752899583332  0.03379141208422001  0.6576803587150122  1.0000
  C   C115      1.0  0.6016039999714308  0.8423084081323325  0.5338338165798503  1.0000
  C   C116      1.0  0.3515966152867378  0.966196357011313  0.3423203282093894  1.0000
  C   C117      1.0  0.1484414496287698  0.6577008472985711  0.033762856443729596  1.0000
  C   C118      1.0  0.8983806705381523  0.4661831802808153  0.1576861922419894  1.0000
  C   C119      1.0  0.6484423024921708  0.3423034549369888  0.966214659618842  1.0000
  C   C120      1.0  0.3984043234069218  0.5338206850393378  0.8423129526604  1.0000
  C   C121      1.0  0.07646156816680619  0.12578337959602243  0.5374987647938809  1.0000
  C   C122      1.0  0.8264382928094348  0.962480050065274  0.6258183183770853  1.0000
  C   C123      1.0  0.5764832048460206  0.8742014019649176  0.46253076893918876  1.0000
  C   C124      1.0  0.32647189333655996  0.037504873573347204  0.37419470950832323  1.0000
  C   C125      1.0  0.17354676798802154  0.6258145787052456  0.9624492134722258  1.0000
  C   C126      1.0  0.923511297476601  0.5374829230075946  0.12578891035983727  1.0000
  C   C127      1.0  0.6735609554993615  0.3741879466600509  0.037519428702687194  1.0000
  C   C128      1.0  0.4235322699213454  0.462512809844739  0.8742007829296978  1.0000
  N   N1        1.0  0.0593661962792851  0.20466853226686513  0.7927910210493463  1.0000
  N   N2        1.0  0.8093994781990829  0.7071960598059377  0.7047483408426202  1.0000
  N   N3        1.0  0.5593992739875943  0.7953180121665326  0.20724732043137095  1.0000
  N   N4        1.0  0.3094182250149514  0.29284493877450063  0.2952503808659087  1.0000
  N   N5        1.0  0.19054572281723384  0.7048478429870499  0.7071135696914652  1.0000
  N   N6        1.0  0.9405650754447448  0.7929685069880393  0.20474224594239834  1.0000
  N   N7        1.0  0.6905821336246162  0.2951708293441158  0.2928913327277769  1.0000
  N   N8        1.0  0.44058292824127676  0.20700061731900382  0.7952738861683812  1.0000
  N   N9        1.0  0.48776485557968385  0.29829950295986424  0.559010689707506  1.0000
  N   N10       1.0  0.23774353243467058  0.9410287654262746  0.798322433867362  1.0000
  N   N11       1.0  0.987713443450346  0.7017094057968976  0.44100851898866  1.0000
  N   N12       1.0  0.7377460758328451  0.05897711325420122  0.2016867023447091  1.0000
  N   N13       1.0  0.7623891179056344  0.7982406887620712  0.9409424909746846  1.0000
  N   N14       1.0  0.5122899180039866  0.559016048419494  0.2983081981013739  1.0000
  N   N15       1.0  0.26236441153772455  0.2017570594138505  0.05902426346696641  1.0000
  N   N16       1.0  0.0122471759931031  0.4409809803093339  0.7016692853019748  1.0000
  N   N17       1.0  0.3044812747900991  0.3301016131462762  0.5838797964295352  1.0000
  N   N18       1.0  0.054482624442833597  0.916094323881495  0.8301142444439691  1.0000
  N   N19       1.0  0.8044679161898854  0.6698741055855637  0.4160964341655386  1.0000
  N   N20       1.0  0.5545049281454268  0.08388934154399412  0.16988311406608148  1.0000
  N   N21       1.0  0.9456021715421625  0.830201868383057  0.9160533516971511  1.0000
  N   N22       1.0  0.6955247234232544  0.5838900163108889  0.33018524337331456  1.0000
  N   N23       1.0  0.44559993766300465  0.1698094264623862  0.08392286977930039  1.0000
  N   N24       1.0  0.1955093930539178  0.41614482469642416  0.669835795903623  1.0000
  Cl  Cl1       1.0  0.24995709394667637  0.08000681687460091  0.9199396845982688  1.0000
  Cl  Cl2       1.0  0.9998896792559006  0.5800594206346261  0.5800534405952718  1.0000
  Cl  Cl3       1.0  0.7499710177357171  0.9200007738460843  0.0800687730207201  1.0000
  Cl  Cl4       1.0  0.49996421059105234  0.4199887580703034  0.4199015311782118  1.0000
  O   O1        1.0  0.104429385050004  0.2655586294777876  0.7882704605940274  1.0000
  O   O2        1.0  0.8544938639964954  0.7117203287493226  0.7656238019967674  1.0000
  O   O3        1.0  0.6044744962960209  0.7344330366877544  0.21175710884939747  1.0000
  O   O4        1.0  0.354504401904741  0.2882865020805667  0.2343751268936813  1.0000
  O   O5        1.0  0.14543711294179215  0.7657169178476765  0.7116399022332516  1.0000
  O   O6        1.0  0.8954732454796781  0.7885355215981349  0.2656299327321463  1.0000
  O   O7        1.0  0.6454812407820184  0.23429720992129427  0.2883959952869687  1.0000
  O   O8        1.0  0.39549042070721185  0.21148221480475368  0.7343911918777051  1.0000
  O   O9        1.0  0.22303524204276204  0.2179326100831815  0.6678517761054862  1.0000
  O   O10       1.0  0.97299916601726  0.8321387968308899  0.7180160158001241  1.0000
  O   O11       1.0  0.7230495210683968  0.7820709832822389  0.3321528590454008  1.0000
  O   O12       1.0  0.47303591102201636  0.1678504932070979  0.2819992703636841  1.0000
  O   O13       1.0  0.027003104708157394  0.7180380254240647  0.8321166469798695  1.0000
  O   O14       1.0  0.777073469322218  0.6678862194352037  0.2180230536799641  1.0000
  O   O15       1.0  0.5270382367352723  0.281960132683608  0.16787400402328959  1.0000
  O   O16       1.0  0.2770446407766016  0.33213287915936723  0.7819990472262005  1.0000
  O   O17       1.0  0.09971161634400968  0.14037627661450364  0.8006712146907589  1.0000
  O   O18       1.0  0.8497137340773121  0.6993368809899112  0.6404376532519862  1.0000
  O   O19       1.0  0.5997333152239078  0.8596148190809388  0.1993847056697788  1.0000
  O   O20       1.0  0.34973939150046357  0.30077742574326294  0.3595497555307786  1.0000
  O   O21       1.0  0.15024006905479578  0.640545207090149  0.6991440512634808  1.0000
  O   O22       1.0  0.9002445219721266  0.8009036087306215  0.14043887663922305  1.0000
  O   O23       1.0  0.6502712390603946  0.35947122579604246  0.300820737973865  1.0000
  O   O24       1.0  0.4002636554659276  0.19904478594253314  0.8595741218164432  1.0000
  O   O25       1.0  0.9814027286332487  0.2067461220065994  0.7892597187072637  1.0000
  O   O26       1.0  0.7314346932322592  0.7106979856360383  0.706865005139953  1.0000
  O   O27       1.0  0.4814370044050591  0.7932269749756387  0.21077167695376176  1.0000
  O   O28       1.0  0.23145535501638648  0.28930732606384174  0.29314996096974255  1.0000
  O   O29       1.0  0.2685060704549045  0.7069629097790441  0.7107197680741563  1.0000
  O   O30       1.0  0.018521631206176895  0.7892986013946129  0.20684645011651526  1.0000
  O   O31       1.0  0.7685425204702411  0.2930579374720708  0.28928969167112933  1.0000
  O   O32       1.0  0.5185445602351777  0.2106417925786275  0.7931708513082611  1.0000
  O   O33       1.0  0.5254982145986203  0.2319609928907198  0.4206507241738676  1.0000
  O   O34       1.0  0.27543394144212385  0.0793358872186403  0.7320017046176515  1.0000
  O   O35       1.0  0.025441522270362796  0.768057388994592  0.5793774955518527  1.0000
  O   O36       1.0  0.77541961998336  0.9206606807998695  0.2680198327014054  1.0000
  O   O37       1.0  0.7244581573473637  0.7320077699689451  0.0793170664890752  1.0000
  O   O38       1.0  0.47453259329277125  0.42065254522449175  0.23198740620748032  1.0000
  O   O39       1.0  0.22442874495938978  0.26798426576265655  0.9206748460272249  1.0000
  O   O40       1.0  0.9744839246814648  0.5793338542511607  0.7679995558564058  1.0000
