data_image0
_chemical_formula_structural       Zn2H21C24N9O8
_chemical_formula_sum              "Zn2 H21 C24 N9 O8"
_cell_length_a       10.036048682272185
_cell_length_b       10.923588480355326
_cell_length_c       13.985374452887905
_cell_angle_alpha    90.10122830141366
_cell_angle_beta     81.32873716644445
_cell_angle_gamma    89.02968935383247

_space_group_name_H-M_alt    "P 1"
_space_group_IT_number       1

loop_
  _space_group_symop_operation_xyz
  'x, y, z'

loop_
  _atom_site_type_symbol
  _atom_site_label
  _atom_site_symmetry_multiplicity
  _atom_site_fract_x
  _atom_site_fract_y
  _atom_site_fract_z
  _atom_site_occupancy
  Zn  Zn1       1.0  0.6430187557312266  0.512814761019392  0.4963697378019559  1.0000
  Zn  Zn2       1.0  0.3431418952895697  0.5191822901271053  0.5039479807578999  1.0000
  H   H1        1.0  0.17472813990516298  0.4166548462761169  0.29689926639602504  1.0000
  H   H2        1.0  0.3481916364791218  0.5013146933424579  0.03412824588841091  1.0000
  H   H3        1.0  0.2997742003194759  0.9088498369930916  0.5973198887400812  1.0000
  H   H4        1.0  0.30047641297598915  0.1359758947069096  0.5917078747087673  1.0000
  H   H5        1.0  0.8163473266432391  0.12669881980194475  0.4085645791326726  1.0000
  H   H6        1.0  0.733279465110698  0.883780916419923  0.3283578601216846  1.0000
  H   H7        1.0  0.8214785898530651  0.8988026080585954  0.4294678980720121  1.0000
  H   H8        1.0  0.767450878878357  0.4631488177388121  0.9974019358513216  1.0000
  H   H9        1.0  0.6900191811511931  0.45974997866046874  0.8940126856199412  1.0000
  H   H10       1.0  0.7171614212250647  0.5406484177257769  0.6738228955730391  1.0000
  H   H11       1.0  0.8412543602892343  0.6258056843205821  0.716643686398875  1.0000
  H   H12       1.0  0.8307544780020208  0.3379499838269738  0.3378778404340467  1.0000
  H   H13       1.0  0.9271875625364389  0.3361147964472551  0.2311835973102419  1.0000
  H   H14       1.0  0.8032562736662285  0.5723212770936071  0.2648702474293785  1.0000
  H   H15       1.0  0.9455116805010917  0.6499378639002842  0.25025304539708776  1.0000
  H   H16       1.0  0.1493523879756751  0.68679060859899  0.29003290874631193  1.0000
  H   H17       1.0  0.18376390052659994  0.5978711008626689  0.1926330706830157  1.0000
  H   H18       1.0  0.6908186690041944  0.20790102536633984  0.286820046296242  1.0000
  H   H19       1.0  0.644503529313404  0.070807788660133  0.261932233132967  1.0000
  H   H20       1.0  0.019218291683927205  0.5397164383480018  0.7332050722039938  1.0000
  H   H21       1.0  0.18636580968178862  0.5578813234922039  0.6807767031035254  1.0000
  C   C1        1.0  0.4947697752920277  0.7483705286079143  0.512600119565505  1.0000
  C   C2        1.0  0.5444506646947076  0.5034527961173865  0.2104900253707527  1.0000
  C   C3        1.0  0.6039341376649787  0.948974724034734  0.4632397846921137  1.0000
  C   C4        1.0  0.4968396024739477  0.8846576806056845  0.5130408073789923  1.0000
  C   C5        1.0  0.38670872936514666  0.9557855900461762  0.5587165407693391  1.0000
  C   C6        1.0  0.3865438357496346  0.0834117477707537  0.555023044185539  1.0000
  C   C7        1.0  0.4950059687477264  0.14789127006498154  0.5034403968765773  1.0000
  C   C8        1.0  0.6019797876386123  0.07634979620637951  0.4573355412478294  1.0000
  C   C9        1.0  0.7320148013214551  0.07876351578878633  0.38422618217110477  1.0000
  C   C10       1.0  0.7368166408608019  0.9347011187227352  0.3957984539171163  1.0000
  C   C11       1.0  0.07921228511679598  0.5220846391734781  0.42473032445786174  1.0000
  C   C12       1.0  0.5271762244939922  0.5140617253823621  0.31476886638284896  1.0000
  C   C13       1.0  0.0451994247388114  0.5479836081595055  0.5877447242335095  1.0000
  C   C14       1.0  0.8999284661431376  0.5435718702898172  0.5863298809538267  1.0000
  C   C15       1.0  0.9434548029901038  0.5121995691319583  0.4242031850080964  1.0000
  C   C16       1.0  0.9579016286725732  0.48302911655017067  0.3154195985253097  1.0000
  C   C17       1.0  0.11895245958982768  0.5027924872534157  0.3167842731499491  1.0000
  C   C18       1.0  0.4932988963503249  0.2839814880585223  0.4989678286515726  1.0000
  C   C19       1.0  0.4580415772555711  0.5030300394316641  0.693149277717147  1.0000
  C   C20       1.0  0.44672247348820093  0.4967003140816288  0.7960744844732588  1.0000
  C   C21       1.0  0.4416901784163301  0.49388894578714115  0.9834935164614506  1.0000
  C   C22       1.0  0.5616395808622485  0.48800290440637173  0.021252569163515016  1.0000
  C   C23       1.0  0.5568714196550529  0.495467369000032  0.12274408739720147  1.0000
  C   C24       1.0  0.44021182181229784  0.49468994129242116  0.8843660927942238  1.0000
  N   N1        1.0  0.13581663974333943  0.5350325915904931  0.5063281961841142  1.0000
  N   N2        1.0  0.8490476904945083  0.5200254943948721  0.5044731131341251  1.0000
  N   N3        1.0  0.6855300787927662  0.48073295245895054  0.9651897457620464  1.0000
  N   N4        1.0  0.818400601246303  0.5570381118920694  0.6732195734350768  1.0000
  N   N5        1.0  0.9251068807958234  0.35594178275808724  0.30279157975039794  1.0000
  N   N6        1.0  0.906129352119919  0.5645315143514295  0.24778357637946163  1.0000
  N   N7        1.0  0.1869396744211187  0.603497800686462  0.2650356717224582  1.0000
  N   N8        1.0  0.7206979441766208  0.1178157483777014  0.2857382586842903  1.0000
  N   N9        1.0  0.08500866631536041  0.566193268001541  0.6749454069545919  1.0000
  O   O1        1.0  0.6032614478288139  0.6927008465106893  0.525640129186101  1.0000
  O   O2        1.0  0.38571200918116944  0.6993369089758233  0.4972138670130164  1.0000
  O   O3        1.0  0.6297468746762931  0.5494510004353546  0.3509554908973556  1.0000
  O   O4        1.0  0.41279891875288405  0.4866520989645267  0.3597651276345317  1.0000
  O   O5        1.0  0.6055734016609264  0.3351788191579388  0.4675784869077263  1.0000
  O   O6        1.0  0.3814560430714167  0.3391776362765313  0.5268960322995326  1.0000
  O   O7        1.0  0.5733077644073249  0.4751818721854803  0.6445546239547825  1.0000
  O   O8        1.0  0.3548787444044024  0.5365993823523282  0.6560809409501331  1.0000
