data_image0
_chemical_formula_structural       Ag4H8C24N16Cl4O16
_chemical_formula_sum              "Ag4 H8 C24 N16 Cl4 O16"
_cell_length_a       6.826949188232757
_cell_length_b       10.845766038461925
_cell_length_c       12.446530742538949
_cell_angle_alpha    89.99917952527238
_cell_angle_beta     89.99932445673728
_cell_angle_gamma    89.99933216342042

_space_group_name_H-M_alt    "P 1"
_space_group_IT_number       1

loop_
  _space_group_symop_operation_xyz
  'x, y, z'

loop_
  _atom_site_type_symbol
  _atom_site_label
  _atom_site_symmetry_multiplicity
  _atom_site_fract_x
  _atom_site_fract_y
  _atom_site_fract_z
  _atom_site_occupancy
  Ag  Ag1       1.0  0.8703136923199323  0.25000052916081467  0.0921546568162199  1.0000
  Ag  Ag2       1.0  0.3703226750686354  0.2500016009072751  0.40784423429809646  1.0000
  Ag  Ag3       1.0  0.1296941727585903  0.7499971614685421  0.907840662430772  1.0000
  Ag  Ag4       1.0  0.6296851899580601  0.7499979337331695  0.5921542986843563  1.0000
  H   H1        1.0  0.7280190973453032  0.09732304807902639  0.8742944938537109  1.0000
  H   H2        1.0  0.2280240125699748  0.4026681965991088  0.6257004331441609  1.0000
  H   H3        1.0  0.2719842798024601  0.5973315262894873  0.12570593928620616  1.0000
  H   H4        1.0  0.7719898051353623  0.9026698441433395  0.3743002168999397  1.0000
  H   H5        1.0  0.27198144387707396  0.9026645003440237  0.12570403922690332  1.0000
  H   H6        1.0  0.7719779933155311  0.5973313380561436  0.37429890329388377  1.0000
  H   H7        1.0  0.7280221204233186  0.4026643202414705  0.8742974143443051  1.0000
  H   H8        1.0  0.2280180598567441  0.09733061249603736  0.6257007263869739  1.0000
  C   C1        1.0  0.5162788806906704  0.0749334492094462  0.21114425914329626  1.0000
  C   C2        1.0  0.0162959694612184  0.425073114163112  0.28885289387425683  1.0000
  C   C3        1.0  0.48371319414752634  0.5749368288839208  0.7888564527229394  1.0000
  C   C4        1.0  0.9837071786352355  0.9250658192596715  0.711149084284429  1.0000
  C   C5        1.0  0.48369529435028374  0.9250679296248518  0.7888502567524542  1.0000
  C   C6        1.0  0.9837075011902883  0.5749282645243453  0.7111464425475947  1.0000
  C   C7        1.0  0.5163019947343271  0.4250645497342091  0.21114609740812545  1.0000
  C   C8        1.0  0.016284573665039697  0.0749401695314589  0.28885426933011626  1.0000
  C   C9        1.0  0.5081464809438431  0.036018732182185396  0.10189561080285613  1.0000
  C   C10       1.0  0.0081575582499696  0.46398051452585054  0.39810320150631645  1.0000
  C   C11       1.0  0.491852175921963  0.5360193303333747  0.898106388824047  1.0000
  C   C12       1.0  0.9918404727134489  0.9639795702506146  0.6018966855191081  1.0000
  C   C13       1.0  0.49183208842881493  0.9639798805466029  0.8981029222796267  1.0000
  C   C14       1.0  0.9918473772102487  0.5360171760745018  0.6018969383705086  1.0000
  C   C15       1.0  0.5081556890612546  0.4639792822485731  0.1018969647845438  1.0000
  C   C16       1.0  0.0081600682942806  0.0360264185150001  0.3981058646304164  1.0000
  C   C17       1.0  0.6277413010548399  0.053866358836259585  0.9309430008103164  1.0000
  C   C18       1.0  0.1277378434155096  0.4461320733345245  0.5690598026504432  1.0000
  C   C19       1.0  0.3722628833912792  0.5538648947510225  0.0690619904291836  1.0000
  C   C20       1.0  0.8722561247153636  0.9461292881859791  0.4309451271594327  1.0000
  C   C21       1.0  0.3722416626750019  0.9461248776798713  0.06906115636105882  1.0000
  C   C22       1.0  0.8722597681377381  0.5538656172992305  0.4309395338132164  1.0000
  C   C23       1.0  0.6277435168690816  0.44613002978100963  0.9309389528968668  1.0000
  C   C24       1.0  0.1277502753987534  0.0538757785129462  0.5690606367239043  1.0000
  N   N1        1.0  0.5233598386544784  0.10775194661092508  0.3003978188234272  1.0000
  N   N2        1.0  0.023379464391581506  0.39225456498503763  0.19959687829158676  1.0000
  N   N3        1.0  0.4766330914126229  0.6077513165447711  0.6995984674263341  1.0000
  N   N4        1.0  0.9766301525298645  0.8922467733275351  0.8004006876846221  1.0000
  N   N5        1.0  0.476637772890868  0.8922521981940222  0.6995966969796754  1.0000
  N   N6        1.0  0.9766269358090582  0.6077486577292744  0.8004024581093604  1.0000
  N   N7        1.0  0.5233806326946607  0.3922491400599312  0.30040408271518265  1.0000
  N   N8        1.0  0.0233674589287389  0.10775737141122481  0.19960186248580672  1.0000
  N   N9        1.0  0.6351229147307224  0.089662808519634  0.0332058481913222  1.0000
  N   N10       1.0  0.13513204055575304  0.4103299774233661  0.4667929501754032  1.0000
  N   N11       1.0  0.3648703512207021  0.5896715017848065  0.9667954837549434  1.0000
  N   N12       1.0  0.864874310931235  0.9103301714849933  0.533206801107454  1.0000
  N   N13       1.0  0.36485418989317253  0.9103330381647792  0.9667918814763541  1.0000
  N   N14       1.0  0.8648655709801362  0.5896677131971516  0.5332079931617245  1.0000
  N   N15       1.0  0.6351345842134962  0.41032618879569316  0.03320706643208381  1.0000
  N   N16       1.0  0.1351262301108633  0.0896730512308892  0.466794945622553  1.0000
  Cl  Cl1       1.0  0.1684046291433532  0.2500022005826921  0.8723687037461333  1.0000
  Cl  Cl2       1.0  0.668405133843443  0.24999870025512647  0.6276314276013722  1.0000
  Cl  Cl3       1.0  0.8315973767510413  0.7499991781299756  0.1276282223702339  1.0000
  Cl  Cl4       1.0  0.3315968720248251  0.7500017564122886  0.37236871226766516  1.0000
  O   O1        1.0  0.9570816694427223  0.2500037120354576  0.8984176012128415  1.0000
  O   O2        1.0  0.4570840824378877  0.25000153162989136  0.601584688892885  1.0000
  O   O3        1.0  0.042929125159133705  0.7499976666517011  0.10157852143849772  1.0000
  O   O4        1.0  0.54290913472326  0.7500016911392532  0.39841384411376174  1.0000
  O   O5        1.0  0.2796142750479262  0.25000373312054336  0.9727376796788151  1.0000
  O   O6        1.0  0.7796125527040304  0.25000373054117386  0.5272609322731514  1.0000
  O   O7        1.0  0.72038333652322  0.7499985676534561  0.027256032699021705  1.0000
  O   O8        1.0  0.22039531232289283  0.7499976481500709  0.4727359938243581  1.0000
  O   O9        1.0  0.21361334053117528  0.36012201397151955  0.8105297579088457  1.0000
  O   O10       1.0  0.7136130907026655  0.1398859324146926  0.689466065177193  1.0000
  O   O11       1.0  0.7863866197805365  0.8601183033060025  0.18946660111738822  1.0000
  O   O12       1.0  0.2863924254029655  0.6398894159642623  0.31053464169119854  1.0000
  O   O13       1.0  0.78638720057954  0.639874754619498  0.18947118542458705  1.0000
  O   O14       1.0  0.28638745039070557  0.860110836163095  0.31053648502970793  1.0000
  O   O15       1.0  0.21361245647876356  0.13988768549144479  0.8105327352899253  1.0000
  O   O16       1.0  0.7136125099369154  0.36011749479744287  0.6894687118751792  1.0000
