data_image0
_chemical_formula_structural       Cd4H40C60O24
_chemical_formula_sum              "Cd4 H40 C60 O24"
_cell_length_a       7.031249055009198
_cell_length_b       12.429865495099364
_cell_length_c       15.529528183737304
_cell_angle_alpha    89.99981556298114
_cell_angle_beta     103.07144693993814
_cell_angle_gamma    90.00044520422435

_space_group_name_H-M_alt    "P 1"
_space_group_IT_number       1

loop_
  _space_group_symop_operation_xyz
  'x, y, z'

loop_
  _atom_site_type_symbol
  _atom_site_label
  _atom_site_symmetry_multiplicity
  _atom_site_fract_x
  _atom_site_fract_y
  _atom_site_fract_z
  _atom_site_occupancy
  Cd  Cd1       1.0  0.48388269347376683  0.19300714606046648  0.7996950878261662  1.0000
  Cd  Cd2       1.0  0.6847560376971487  0.8072728883638334  0.2002712789972422  1.0000
  Cd  Cd3       1.0  0.1847501992396445  0.69273154499691  0.2002716743159284  1.0000
  Cd  Cd4       1.0  0.9838812297899935  0.3069901567461527  0.7996920123180477  1.0000
  H   H1        1.0  0.7967982669309991  0.1269956397415868  0.11008627032627777  1.0000
  H   H2        1.0  0.6880782156470887  0.8727870869367607  0.8899369360546462  1.0000
  H   H3        1.0  0.18807442827822743  0.6272161680263153  0.8899344893605063  1.0000
  H   H4        1.0  0.29679482392760553  0.3730108930457163  0.11009095871059325  1.0000
  H   H5        1.0  0.08060704712931252  0.11289150360489941  0.2364324422763461  1.0000
  H   H6        1.0  0.8456345246909436  0.8870090784372452  0.7635921221873476  1.0000
  H   H7        1.0  0.345639307719118  0.61299456937288  0.7635912349370745  1.0000
  H   H8        1.0  0.5806124864813074  0.3871143817997832  0.23643373400019402  1.0000
  H   H9        1.0  0.46736642352103536  0.1097221200037239  0.056139872741518125  1.0000
  H   H10       1.0  0.412471599146791  0.8905122346996492  0.9438295622482402  1.0000
  H   H11       1.0  0.9124718828968383  0.6094901665256528  0.9438310337976151  1.0000
  H   H12       1.0  0.9673646078079372  0.39027491383093604  0.056137192443827616  1.0000
  H   H13       1.0  0.18265003962009982  0.12882290913732666  0.9305396036927154  1.0000
  H   H14       1.0  0.2535435728967883  0.8711176393779068  0.06945134102067393  1.0000
  H   H15       1.0  0.7535382739774262  0.6288836015364011  0.06945283429104882  1.0000
  H   H16       1.0  0.6826421275768055  0.37117255423459017  0.9305382785629068  1.0000
  H   H17       1.0  0.5184702911238475  0.2516958093919115  0.3538154885605637  1.0000
  H   H18       1.0  0.16745653288724338  0.7485542147658533  0.6460938943922445  1.0000
  H   H19       1.0  0.6674543217742154  0.7514394826168527  0.6460992551643303  1.0000
  H   H20       1.0  0.018471036991151404  0.24830772032478174  0.35381190992029604  1.0000
  H   H21       1.0  0.4461028984050088  0.24536382334692064  0.503610177909046  1.0000
  H   H22       1.0  0.9447763528638478  0.7545096094332635  0.4963745034732557  1.0000
  H   H23       1.0  0.4447843553422004  0.7454859002531149  0.4963781158000346  1.0000
  H   H24       1.0  0.9461036578573074  0.2546288867247455  0.5036074641265318  1.0000
  H   H25       1.0  0.31278460270871733  0.07838495271334268  0.5553015218811839  1.0000
  H   H26       1.0  0.7584982610834815  0.9211426495413731  0.4448117298242382  1.0000
  H   H27       1.0  0.2585040503296625  0.5788482383088932  0.44481038901629  1.0000
  H   H28       1.0  0.812774441313948  0.42160616399420553  0.555300481180595  1.0000
  H   H29       1.0  0.2543634267060355  0.9169202450732356  0.45734823496055566  1.0000
  H   H30       1.0  0.79697750840473  0.08259283260496629  0.5427824185177672  1.0000
  H   H31       1.0  0.2969907194280522  0.41739987540337603  0.5427861263008327  1.0000
  H   H32       1.0  0.7543648201565104  0.5830737919365703  0.45734859990595594  1.0000
  H   H33       1.0  0.6707556484305998  0.08005964861535379  0.6905276981750321  1.0000
  H   H34       1.0  0.9800039104607806  0.9214716475671239  0.3091896753314033  1.0000
  H   H35       1.0  0.4800038491372831  0.5785456928711668  0.3091941744886456  1.0000
  H   H36       1.0  0.1707484568114026  0.41994639236801856  0.6905247989043419  1.0000
  H   H37       1.0  0.523247171774102  0.9943362562533836  0.720691792286438  1.0000
  H   H38       1.0  0.8012984139838791  0.0064525697325521  0.27912243401237913  1.0000
  H   H39       1.0  0.3013097197727461  0.4935565139537772  0.2791244640827558  1.0000
  H   H40       1.0  0.023238844449807106  0.505665361612472  0.7206911219543815  1.0000
  C   C1        1.0  0.7989230285502844  0.14377853874502478  0.9370538150893001  1.0000
  C   C2        1.0  0.8630432056755455  0.8562402948711282  0.06300635943129863  1.0000
  C   C3        1.0  0.3630483945716493  0.6437606431406522  0.06300929888163863  1.0000
  C   C4        1.0  0.29891790820585135  0.35622303458220717  0.9370519349054549  1.0000
  C   C5        1.0  0.9718453048495804  0.1315425268035852  0.012208834531485016  1.0000
  C   C6        1.0  0.9609320168803349  0.8684406915907772  0.9878399322679319  1.0000
  C   C7        1.0  0.460926824217495  0.6315593276822042  0.9878405499918589  1.0000
  C   C8        1.0  0.4718403473977162  0.36846114105557587  0.012206939819215307  1.0000
  C   C9        1.0  0.9436452357281271  0.12472403460846947  0.09854657273660916  1.0000
  C   C10       1.0  0.8464255700355424  0.8751912948432192  0.9014933271724745  1.0000
  C   C11       1.0  0.3464246677112612  0.6248142096846294  0.9014944022515582  1.0000
  C   C12       1.0  0.44364328854602775  0.37528157360392095  0.09854561336198496  1.0000
  C   C13       1.0  0.10371007024898661  0.115652781717742  0.16941402465059954  1.0000
  C   C14       1.0  0.9356120860214219  0.8842939030949495  0.8306111980980906  1.0000
  C   C15       1.0  0.4356125225603123  0.6157082540497214  0.8306124337674706  1.0000
  C   C16       1.0  0.6037125545785357  0.3843526717474575  0.16941308847591335  1.0000
  C   C17       1.0  0.29434777535549733  0.11064673380791129  0.15539992290927535  1.0000
  C   C18       1.0  0.14019433550797802  0.8894289694215588  0.8446115612243691  1.0000
  C   C19       1.0  0.6401960936838406  0.6105662166518044  0.8446131812731825  1.0000
  C   C20       1.0  0.7943517869868659  0.3893579952481899  0.15539848670132278  1.0000
  C   C21       1.0  0.32154073894582785  0.1161192729381639  0.06860213160733512  1.0000
  C   C22       1.0  0.25421414347156474  0.8839840903743337  0.931378958475982  1.0000
  C   C23       1.0  0.7542130534203795  0.6160136517626922  0.9313809163678717  1.0000
  C   C24       1.0  0.8215417563842635  0.38388431777130444  0.06860169007786962  1.0000
  C   C25       1.0  0.16160268696773275  0.1272418568023213  0.9978667811002286  1.0000
  C   C26       1.0  0.1650410730941587  0.8727869503798191  0.0021502192591925  1.0000
  C   C27       1.0  0.6650357525574722  0.6272125706817492  0.0021510706409416246  1.0000
  C   C28       1.0  0.6616006368634971  0.3727628958438914  0.9978654093412945  1.0000
  C   C29       1.0  0.4653555606301937  0.09870233405884221  0.23051586752380632  1.0000
  C   C30       1.0  0.23600108701912603  0.901483362311879  0.7694760333383076  1.0000
  C   C31       1.0  0.7360026853644897  0.5985141539968949  0.769477023825765  1.0000
  C   C32       1.0  0.9653553510991913  0.4013028322746379  0.2305139677908557  1.0000
  C   C33       1.0  0.42849325564487384  0.0880446725634556  0.3217758516398278  1.0000
  C   C34       1.0  0.10779975875168192  0.9119218376301103  0.6782472720307171  1.0000
  C   C35       1.0  0.6078012168774265  0.5880698611032712  0.6782495626577474  1.0000
  C   C36       1.0  0.9285004888694816  0.4119607675011138  0.3217740442881834  1.0000
  C   C37       1.0  0.46184157316843516  0.17824593047359363  0.37708635033986593  1.0000
  C   C38       1.0  0.0867229855354168  0.8217825540329926  0.6228871880231  1.0000
  C   C39       1.0  0.5867241834786867  0.6782076690725062  0.6228892218520488  1.0000
  C   C40       1.0  0.9618432261390382  0.32175942966091486  0.3770835568642498  1.0000
  C   C41       1.0  0.4193473514599688  0.17490371752071351  0.4606872196640311  1.0000
  C   C42       1.0  0.9605628876506813  0.8249600372562822  0.539309382048373  1.0000
  C   C43       1.0  0.46056703464259396  0.6750289304266488  0.5393102029725373  1.0000
  C   C44       1.0  0.9193475881940644  0.3250930733359921  0.460684916315735  1.0000
  C   C45       1.0  0.3426105740337492  0.0814535670608052  0.48960384086161235  1.0000
  C   C46       1.0  0.8541704394509395  0.9182054435008524  0.5104593651447547  1.0000
  C   C47       1.0  0.3541762665396817  0.5817815704490172  0.5104593085949747  1.0000
  C   C48       1.0  0.8426091321396997  0.41854116411887793  0.48960370248963175  1.0000
  C   C49       1.0  0.3115823902584935  0.9909220194123233  0.43526867267252123  1.0000
  C   C50       1.0  0.8767645181886223  0.0087144464366986  0.5648011988622275  1.0000
  C   C51       1.0  0.37676849163546683  0.4912769094769302  0.5648044143368482  1.0000
  C   C52       1.0  0.8115813373748963  0.509074769256813  0.43527026343657144  1.0000
  C   C53       1.0  0.3548419153345392  0.9930799898715177  0.35149196017482626  1.0000
  C   C54       1.0  0.00371002011412  0.006665697566049301  0.6485774149733745  1.0000
  C   C55       1.0  0.5037110307173123  0.4933269163766028  0.6485805569497959  1.0000
  C   C56       1.0  0.8548466752017917  0.5069213495527478  0.3514928648801857  1.0000
  C   C57       1.0  0.32713260202034894  0.8941891918306127  0.2948822426786678  1.0000
  C   C58       1.0  0.03173617084017621  0.1054865035294625  0.7052131963284796  1.0000
  C   C59       1.0  0.5317300252041974  0.3945116335838393  0.7052165003729558  1.0000
  C   C60       1.0  0.8271299160901081  0.6058114527424223  0.2948840629035703  1.0000
  O   O1        1.0  0.8240445527793058  0.1798716542142174  0.862091500617574  1.0000
  O   O2        1.0  0.962898489574741  0.8200669993063698  0.13797075135212825  1.0000
  O   O3        1.0  0.4629041612141123  0.6799332631779931  0.13797236011312466  1.0000
  O   O4        1.0  0.3240389507410981  0.3201279191805567  0.8620909510294656  1.0000
  O   O5        1.0  0.6292778218205938  0.12061056543790019  0.9455477225140928  1.0000
  O   O6        1.0  0.6849469244054591  0.8795619801241656  0.054436357110454046  1.0000
  O   O7        1.0  0.1849503397550336  0.6204430465479476  0.05444239382340042  1.0000
  O   O8        1.0  0.12927885134786274  0.3793950639417075  0.945545126203662  1.0000
  O   O9        1.0  0.6362089250025135  0.10622814699527787  0.22131138097866918  1.0000
  O   O10       1.0  0.41607842564876313  0.8942680491939327  0.7786085595782242  1.0000
  O   O11       1.0  0.916081578264823  0.6057318208707088  0.7786116228937633  1.0000
  O   O12       1.0  0.1362028456921962  0.39377482317279083  0.22130801868803482  1.0000
  O   O13       1.0  0.409973114397289  0.8902755431438649  0.23001062211098144  1.0000
  O   O14       1.0  0.17938196897265613  0.10981015022650097  0.7700488133257866  1.0000
  O   O15       1.0  0.6793757670260803  0.3901899735386323  0.7700508347592604  1.0000
  O   O16       1.0  0.9099646422283884  0.6097305517187195  0.2300099069465561  1.0000
  O   O17       1.0  0.21748841400182786  0.8198212565555492  0.3136584632352851  1.0000
  O   O18       1.0  0.9026204879412633  0.17952784953073578  0.686487978913505  1.0000
  O   O19       1.0  0.40261926323108815  0.3204671468207252  0.6864956047220832  1.0000
  O   O20       1.0  0.7174823366074676  0.6801772266642274  0.31366103356756275  1.0000
  O   O21       1.0  0.537171619053325  0.0676086869892032  0.6974110827223898  1.0000
  O   O22       1.0  0.8394417875663863  0.9332228915032131  0.30228594462961683  1.0000
  O   O23       1.0  0.3394415715994726  0.566785017062564  0.3022885261295017  1.0000
  O   O24       1.0  0.03716750956122891  0.4323927234843268  0.6974123314637739  1.0000
