data_image0
_chemical_formula_structural       Zn2H19C26N3O8
_chemical_formula_sum              "Zn2 H19 C26 N3 O8"
_cell_length_a       9.74862900301388
_cell_length_b       10.897246277473105
_cell_length_c       11.094685643843862
_cell_angle_alpha    83.84722312688292
_cell_angle_beta     90.66908606432594
_cell_angle_gamma    92.39021375761244

_space_group_name_H-M_alt    "P 1"
_space_group_IT_number       1

loop_
  _space_group_symop_operation_xyz
  'x, y, z'

loop_
  _atom_site_type_symbol
  _atom_site_label
  _atom_site_symmetry_multiplicity
  _atom_site_fract_x
  _atom_site_fract_y
  _atom_site_fract_z
  _atom_site_occupancy
  Zn  Zn1       1.0  0.6379484542426539  0.5066154891524803  0.5020435301016805  1.0000
  Zn  Zn2       1.0  0.3539305544526457  0.49933617236097666  0.4993169344114109  1.0000
  H   H1        1.0  0.6732363134960052  0.060927773212227976  0.641257404813125  1.0000
  H   H2        1.0  0.8143214988961773  0.4259179803350007  0.1279672144198969  1.0000
  H   H3        1.0  0.8220673941932545  0.5961536694083517  0.8875498956858866  1.0000
  H   H4        1.0  0.8188419568017764  0.4315247200143233  0.8996188723444478  1.0000
  H   H5        1.0  0.1149534034517572  0.31414401148174415  0.47689287460053736  1.0000
  H   H6        1.0  0.8547205539527098  0.3158324982236421  0.4783112155328413  1.0000
  H   H7        1.0  0.8978422320770464  0.7952009584844433  0.4571447826775883  1.0000
  H   H8        1.0  0.13237724205396256  0.7399210562937667  0.6416064634883087  1.0000
  H   H9        1.0  0.7167381756945373  0.9599989016104047  0.4192878541690207  1.0000
  H   H10       1.0  0.3115531901313915  0.9464781573803831  0.35722770472204257  1.0000
  H   H11       1.0  0.2672659756381748  0.04698230631736779  0.5810018721672564  1.0000
  H   H12       1.0  0.45761198144857934  0.879803136953015  0.6953206147559571  1.0000
  H   H13       1.0  0.27913690581638667  0.5023329143802044  0.8842537443115436  1.0000
  H   H14       1.0  0.2758315572928182  0.49750974543104565  0.10945911420856902  1.0000
  H   H15       1.0  0.8193157251220242  0.5904508799724795  0.11448765868188103  1.0000
  H   H16       1.0  0.8776804622670724  0.7167108069872936  0.7182879888694487  1.0000
  H   H17       1.0  0.7557698189697105  0.76844904976371  0.6249128851723571  1.0000
  H   H18       1.0  0.1530622279482401  0.793087420970906  0.48479779768219816  1.0000
  H   H19       1.0  0.5268273637680565  0.12746799211047494  0.3042978039148495  1.0000
  C   C1        1.0  0.4996306363115508  0.5080410681628607  0.7360489387882013  1.0000
  C   C2        1.0  0.36668782912858683  0.026917316923920995  0.5443914031552242  1.0000
  C   C3        1.0  0.47262690661138856  0.9368111682563977  0.6086894584845484  1.0000
  C   C4        1.0  0.496898939287469  0.8819414588105944  0.484155434674662  1.0000
  C   C5        1.0  0.6191516583956513  0.508428057389814  0.9401002868548293  1.0000
  C   C6        1.0  0.4991023050023387  0.5070683304792566  0.8706449870054346  1.0000
  C   C7        1.0  0.37510545635611686  0.5036525665299862  0.9356194513009374  1.0000
  C   C8        1.0  0.3732790265174443  0.5011836558697595  0.06160233313203632  1.0000
  C   C9        1.0  0.49542327665439245  0.5032513004189738  0.1310757989767808  1.0000
  C   C10       1.0  0.6173380981628965  0.5068757659498431  0.0661810123179336  1.0000
  C   C11       1.0  0.7725161672677316  0.5087244006061908  0.07782284076093055  1.0000
  C   C12       1.0  0.4995177050251128  0.7463563420193395  0.4790819199947408  1.0000
  C   C13       1.0  0.7746718246374371  0.5114279421072397  0.9350309250020106  1.0000
  C   C14       1.0  0.07347957928580938  0.5988359577705608  0.5218147099903306  1.0000
  C   C15       1.0  0.06136794402215169  0.39786668813318465  0.4886433795092844  1.0000
  C   C16       1.0  0.9181719543133794  0.3988586286058507  0.48874752970971985  1.0000
  C   C17       1.0  0.9306601376394709  0.60089222741572  0.5174415991545163  1.0000
  C   C18       1.0  0.9295136557953825  0.7378218697605518  0.5396041403622222  1.0000
  C   C19       1.0  0.09230048027576028  0.7310163086610899  0.5498298459884199  1.0000
  C   C20       1.0  0.4927783959604994  0.5018690648536507  0.26567086501415826  1.0000
  C   C21       1.0  0.4866285568095775  0.26081794429481414  0.5206692838137175  1.0000
  C   C22       1.0  0.6170701508177671  0.9803106409050102  0.4552506590133022  1.0000
  C   C23       1.0  0.5929751902395565  0.03448250536786189  0.5781533134721215  1.0000
  C   C24       1.0  0.48644109500432353  0.12523711329232867  0.5149000161233988  1.0000
  C   C25       1.0  0.5115270041375268  0.07046795531975647  0.39083667516376874  1.0000
  C   C26       1.0  0.3910158898808406  0.9728043082819227  0.42118374492042693  1.0000
  N   N1        1.0  0.14244912061253248  0.49961695925940564  0.5046475885335795  1.0000
  N   N2        1.0  0.8496721655687763  0.5027475989403173  0.5019223695781393  1.0000
  N   N3        1.0  0.8591956129161173  0.7754919370019949  0.6422588435926715  1.0000
  O   O1        1.0  0.6160801223098957  0.49960344143134705  0.6869070236240733  1.0000
  O   O2        1.0  0.38470894797511324  0.5172937671311572  0.6803814559337342  1.0000
  O   O3        1.0  0.6156479984321876  0.6968003580311972  0.49667441266183243  1.0000
  O   O4        1.0  0.3853303503069796  0.6892234733522216  0.46308271999649275  1.0000
  O   O5        1.0  0.6083479249491432  0.5183548760171419  0.3180898448360453  1.0000
  O   O6        1.0  0.3767241011125008  0.48443699588651157  0.3177732165236123  1.0000
  O   O7        1.0  0.603855180666706  0.31761949650396554  0.5109158998110105  1.0000
  O   O8        1.0  0.3715846271708259  0.3102609140081539  0.5303394234889256  1.0000
