data_image0
_chemical_formula_structural       Ca6H60C36O48
_chemical_formula_sum              "Ca6 H60 C36 O48"
_cell_length_a       11.185103303590289
_cell_length_b       11.219174727934094
_cell_length_c       12.975
_cell_angle_alpha    76.0245783585481
_cell_angle_beta     75.98113827070317
_cell_angle_gamma    61.45169053062775

_space_group_name_H-M_alt    "P 1"
_space_group_IT_number       1

loop_
  _space_group_symop_operation_xyz
  'x, y, z'

loop_
  _atom_site_type_symbol
  _atom_site_label
  _atom_site_symmetry_multiplicity
  _atom_site_fract_x
  _atom_site_fract_y
  _atom_site_fract_z
  _atom_site_occupancy
  Ca  Ca1       1.0  0.5367094247208186  0.7327389402669553  0.9748506567827208  1.0000
  Ca  Ca2       1.0  0.26722297524489846  0.4638473517753923  0.5250812589873206  1.0000
  Ca  Ca3       1.0  0.46329197071411693  0.2672603569697785  0.025149352713249622  1.0000
  Ca  Ca4       1.0  0.7327765772061099  0.5361519454613415  0.47491990608120466  1.0000
  Ca  Ca5       1.0  0.9999997055703886  0.5000001615842535  0.9999999506700378  1.0000
  Ca  Ca6       1.0  0.49999969784278153  0.0  0.5000002943116116  1.0000
  H   H1        1.0  0.7541446029932857  0.19182256764387526  0.12670887298355643  1.0000
  H   H2        1.0  0.8077491868299234  0.24562448177300672  0.373371126409431  1.0000
  H   H3        1.0  0.24585725092941155  0.8081757036610853  0.8732912550084608  1.0000
  H   H4        1.0  0.19224990713332354  0.7543758413955004  0.6266291494501458  1.0000
  H   H5        1.0  0.9645185462785902  0.750333670203162  0.17936941877117366  1.0000
  H   H6        1.0  0.2507251283165459  0.0351956154630599  0.3206751029097178  1.0000
  H   H7        1.0  0.03548422913607397  0.24966460110179875  0.8206305167910203  1.0000
  H   H8        1.0  0.7492748871386682  0.9648047077054471  0.6793257512329449  1.0000
  H   H9        1.0  0.19626231512078363  0.9830601377045625  0.0874522458577616  1.0000
  H   H10       1.0  0.01647057305068241  0.8049706927968998  0.41243929239565363  1.0000
  H   H11       1.0  0.8037404602938806  0.016938133600398  0.9125461482786152  1.0000
  H   H12       1.0  0.9835285209125644  0.1950296303716073  0.5875609834639307  1.0000
  H   H13       1.0  0.6000256325725813  0.9724273807915083  0.8962911749524523  1.0000
  H   H14       1.0  0.027425163407791317  0.39967634519930334  0.6036794624306836  1.0000
  H   H15       1.0  0.3999743828826325  0.027572942376998803  0.10370890847730149  1.0000
  H   H16       1.0  0.9725739305554554  0.6003239779692038  0.39632004271598487  1.0000
  H   H17       1.0  0.745881257592295  0.8426634261996  0.9161115769197681  1.0000
  H   H18       1.0  0.15768278263235663  0.25425359393005925  0.5838667328957571  1.0000
  H   H19       1.0  0.2541187578629192  0.1573368969689071  0.08388850650998593  1.0000
  H   H20       1.0  0.8423163113308902  0.745746729238448  0.41613431367673565  1.0000
  H   H21       1.0  0.7140527050453188  0.454063040440019  0.0923373715839659  1.0000
  H   H22       1.0  0.5460002681847271  0.2860020786301121  0.4076889890804836  1.0000
  H   H23       1.0  0.28594731040989524  0.5459372827284882  0.9076619411328795  1.0000
  H   H24       1.0  0.45399974727048703  0.7139982445384023  0.5923103236363618  1.0000
  H   H25       1.0  0.559314552548713  0.4805105356601658  0.12734567726000284  1.0000
  H   H26       1.0  0.5201622241377066  0.44033094363557984  0.3725186531697346  1.0000
  H   H27       1.0  0.4406845414145337  0.5194897875083413  0.8726545985995744  1.0000
  H   H28       1.0  0.47983641133777866  0.5596704054647007  0.6274807334808942  1.0000
  H   H29       1.0  0.5743463695047097  0.852674468457181  0.14672336043678777  1.0000
  H   H30       1.0  0.14761306861165482  0.4256375487582389  0.3530767546620411  1.0000
  H   H31       1.0  0.4256527244585371  0.14732585471132612  0.8532769154227896  1.0000
  H   H32       1.0  0.8523860253515921  0.5743627744102682  0.6469235211975359  1.0000
  H   H33       1.0  0.44414897495202893  0.8257653039384181  0.19462002935121353  1.0000
  H   H34       1.0  0.17426657339591867  0.5557492942217763  0.3052382571703306  1.0000
  H   H35       1.0  0.5558501190112182  0.174235019230089  0.8053802465083635  1.0000
  H   H36       1.0  0.8257325205673282  0.4442510289467307  0.6947620186892466  1.0000
  H   H37       1.0  0.5293737144834196  0.6420240008839002  0.7595541363081679  1.0000
  H   H38       1.0  0.3577524283409089  0.47086369918260124  0.7404099864486966  1.0000
  H   H39       1.0  0.47062630097178737  0.35797632228460696  0.24044594712158585  1.0000
  H   H40       1.0  0.6422471241100993  0.5291355980541326  0.2595896371940185  1.0000
  H   H41       1.0  0.6294457157177858  0.5194877356447947  0.8333003242492296  1.0000
  H   H42       1.0  0.4804621507195107  0.3706742798601398  0.6666852368526435  1.0000
  H   H43       1.0  0.3705538367332223  0.48051156159193914  0.1666992993934784  1.0000
  H   H44       1.0  0.5195364847559744  0.6293270692401407  0.3333149205108938  1.0000
  H   H45       1.0  0.8142001231172176  0.6366511961797698  0.8314687518668792  1.0000
  H   H46       1.0  0.3630201585659947  0.18598706770934834  0.6684322323275753  1.0000
  H   H47       1.0  0.18579804935406233  0.36334912698874433  0.1685317164225211  1.0000
  H   H48       1.0  0.6369798568892194  0.8140132554591589  0.33156708038927  1.0000
  H   H49       1.0  0.8045514154385244  0.49986166079467154  0.885193880263941  1.0000
  H   H50       1.0  0.5002123175515649  0.19539486208340412  0.6147565719015163  1.0000
  H   H51       1.0  0.19544721552051672  0.5001376364420623  0.11480593580859023  1.0000
  H   H52       1.0  0.49978677641168184  0.8046054610851101  0.3852437039580606  1.0000
  H   H53       1.0  0.10762448751977871  0.4708616473190546  0.7646231436278228  1.0000
  H   H54       1.0  0.5289705922820146  0.8925955256745369  0.7353460603308976  1.0000
  H   H55       1.0  0.8923750694476738  0.5291397017812259  0.23537605059298264  1.0000
  H   H56       1.0  0.471028501681232  0.1074047974939702  0.26465421552867957  1.0000
  H   H57       1.0  0.1774950784922211  0.3175679474742594  0.8252600926028464  1.0000
  H   H58       1.0  0.6825598686947671  0.8225018149630756  0.6745899343737279  1.0000
  H   H59       1.0  0.8225035569832643  0.6824334016260211  0.1747400647606838  1.0000
  H   H60       1.0  0.31743922526847257  0.1774985082054314  0.3254095707729336  1.0000
  C   C1        1.0  0.9756074853589141  0.1027686118040734  0.10899009132897676  1.0000
  C   C2        1.0  0.896842395689596  0.0248542231740245  0.39098948295712443  1.0000
  C   C3        1.0  0.024392988584061585  0.8972306854326604  0.8910093398839082  1.0000
  C   C4        1.0  0.10315623978588921  0.975147125926256  0.609010674406406  1.0000
  C   C5        1.0  0.8493407506743792  0.09722652835711192  0.13117700476823294  1.0000
  C   C6        1.0  0.9025362328636747  0.1506283290941042  0.36888762530734454  1.0000
  C   C7        1.0  0.15066432621198092  0.9027707170160754  0.868822664430354  1.0000
  C   C8        1.0  0.09746240261181077  0.8493730200061762  0.6311125320561929  1.0000
  C   C9        1.0  0.84435844865191  0.971026983919039  0.1550669797889484  1.0000
  C   C10       1.0  0.029230008318386104  0.1554450787763528  0.3450006905254171  1.0000
  C   C11       1.0  0.1556447852505229  0.028970261454148303  0.8449323035563765  1.0000
  C   C12       1.0  0.9707690856448533  0.8445552443921615  0.6549995853341601  1.0000
  C   C13       1.0  0.9669503265778443  0.8491165370624998  0.16009616411311361  1.0000
  C   C14       1.0  0.1514986392359319  0.0329960177380926  0.3399747848860741  1.0000
  C   C15       1.0  0.03305152734485261  0.15088173424246074  0.8399031931659949  1.0000
  C   C16       1.0  0.8485004547273147  0.9670043054304147  0.6600262616864115  1.0000
  C   C17       1.0  0.09356912929357723  0.8535731846918253  0.1349528773110151  1.0000
  C   C18       1.0  0.14668098386313497  0.9068693144560243  0.3651384807711793  1.0000
  C   C19       1.0  0.9064341091252927  0.1464261125449084  0.865046747325309  1.0000
  C   C20       1.0  0.853319031592079  0.09313100871248281  0.6348600612327575  1.0000
  C   C21       1.0  0.09718926588127619  0.9804470894743889  0.10927635922789854  1.0000
  C   C22       1.0  0.019320825940674576  0.9035965920947149  0.3906929320491416  1.0000
  C   C23       1.0  0.9028125880414208  0.0195511818305718  0.8907222273383013  1.0000
  C   C24       1.0  0.9806782680225722  0.0964037310737993  0.6093081145233441  1.0000
  C   C25       1.0  0.9814938977765165  0.237745325743262  0.0762550011027728  1.0000
  C   C26       1.0  0.7616686305196723  0.0187345401379062  0.4236410243947831  1.0000
  C   C27       1.0  0.018507497658419022  0.7622539714934717  0.9237442376802891  1.0000
  C   C28       1.0  0.23833138493554168  0.981265783030601  0.5763606004607881  1.0000
  C   C29       1.0  0.708894920442532  0.9686960669269028  0.16740942468350545  1.0000
  C   C30       1.0  0.031475689463150006  0.2906690422732439  0.332544183601435  1.0000
  C   C31       1.0  0.2911064749924109  0.0313032303098311  0.8325905848124722  1.0000
  C   C32       1.0  0.9685234045000967  0.7093312808952632  0.6674560922581423  1.0000
  C   C33       1.0  0.22580792815754336  0.7248833806680324  0.12605761871945736  1.0000
  C   C34       1.0  0.2751486526157336  0.7744461447040791  0.3739398222913906  1.0000
  C   C35       1.0  0.774194847257128  0.2751148906369281  0.8739423168427366  1.0000
  C   C36       1.0  0.7248495153391018  0.22555212660088134  0.6260595339941021  1.0000
  O   O1        1.0  0.8721194888164019  0.3481653367230919  0.060969216717509864  1.0000
  O   O2        1.0  0.650833709214062  0.1277131169742702  0.43903291296521746  1.0000
  O   O3        1.0  0.12788144361432774  0.6518329345818688  0.9390311037043306  1.0000
  O   O4        1.0  0.34916400476945614  0.8722882321260101  0.5609666661152347  1.0000
  O   O5        1.0  0.09670421005991868  0.24159256989840835  0.05983020458447901  1.0000
  O   O6        1.0  0.7581567820709764  0.903725859498323  0.43986350319566714  1.0000
  O   O7        1.0  0.9032971853750169  0.7584067273383256  0.9401690341985898  1.0000
  O   O8        1.0  0.241843691871992  0.0962734377384109  0.5601413230075849  1.0000
  O   O9        1.0  0.33167623802374635  0.7330200455732196  0.0712170950113062  1.0000
  O   O10       1.0  0.26640024581431737  0.6690562772156312  0.4285484519144093  1.0000
  O   O11       1.0  0.6683279173706467  0.2669771997999604  0.9287835373300127  1.0000
  O   O12       1.0  0.733597009681432  0.33094609781642964  0.5714525500958133  1.0000
  O   O13       1.0  0.22399631937120287  0.6104047835874624  0.1740659127506846  1.0000
  O   O14       1.0  0.390209716668103  0.7756526404711297  0.32582681606977815  1.0000
  O   O15       1.0  0.7760050805801768  0.389596565512818  0.8259328966104745  1.0000
  O   O16       1.0  0.6097902942706668  0.224345630833831  0.6741736967818854  1.0000
  O   O17       1.0  0.6031844813138747  0.08217200549507452  0.151010459431987  1.0000
  O   O18       1.0  0.9176523628061233  0.39615124362141785  0.3489307908444133  1.0000
  O   O19       1.0  0.39681737712526655  0.9178283176734326  0.8489900098510289  1.0000
  O   O20       1.0  0.08234765264909075  0.6038490795470892  0.6510685218724319  1.0000
  O   O21       1.0  0.7043360352105451  0.8526118866189237  0.19322766454648402  1.0000
  O   O22       1.0  0.14787226074345486  0.2953452393023568  0.3065360187229942  1.0000
  O   O23       1.0  0.29566674020412614  0.1473863846860368  0.8067730417286187  1.0000
  O   O24       1.0  0.8521268332197849  0.7046550838661505  0.6934642571365829  1.0000
  O   O25       1.0  0.6501844612460204  0.8707780605536402  0.9052779324053121  1.0000
  O   O26       1.0  0.12943401977098998  0.3497196233617714  0.5944975783316836  1.0000
  O   O27       1.0  0.3498155542091935  0.1292222626148671  0.09472215102444183  1.0000
  O   O28       1.0  0.8705655371964551  0.6502817257385091  0.4055016158891149  1.0000
  O   O29       1.0  0.6192356203011257  0.5280860698486052  0.10934017452558464  1.0000
  O   O30       1.0  0.4722015614043329  0.3807786819092201  0.39068478987463345  1.0000
  O   O31       1.0  0.3807643951540882  0.47191425331990194  0.8906599089041692  1.0000
  O   O32       1.0  0.527798454050881  0.619221641259287  0.6093145228422119  1.0000
  O   O33       1.0  0.49469802505943516  0.8509509030756776  0.12534507153075233  1.0000
  O   O34       1.0  0.14921169101165088  0.5051041721634135  0.37443584544295316  1.0000
  O   O35       1.0  0.5053015273915732  0.1490483941610563  0.8746553228248716  1.0000
  O   O36       1.0  0.8507883244435561  0.4948961510050935  0.6255642379868007  1.0000
  O   O37       1.0  0.5403057710512088  0.608085151844854  0.8360055248368923  1.0000
  O   O38       1.0  0.39188200769945786  0.4598975144427726  0.6639436219986692  1.0000
  O   O39       1.0  0.4596937813997997  0.3919141453918797  0.1639948695187314  1.0000
  O   O40       1.0  0.6081175492679949  0.5401038346575078  0.3360555722221292  1.0000
  O   O41       1.0  0.7974264545905284  0.5846436367245929  0.902503998458748  1.0000
  O   O42       1.0  0.4150947481507998  0.2028041413603248  0.5973893384403013  1.0000
  O   O43       1.0  0.2025712548765455  0.41535566051214096  0.09749678075652211  1.0000
  O   O44       1.0  0.5849052673044142  0.7971961818081823  0.402609974276544  1.0000
  O   O45       1.0  0.12060418331074634  0.4147729312641033  0.8363952925103747  1.0000
  O   O46       1.0  0.5851060576913909  0.8796256961787066  0.6634595839136425  1.0000
  O   O47       1.0  0.879395373656699  0.5852284178361771  0.1636046724233395  1.0000
  O   O48       1.0  0.41489395776382304  0.12037462698980052  0.3365397288032029  1.0000
