data_image0
_chemical_formula_structural       Zn2P2H20C12N6O12
_chemical_formula_sum              "Zn2 P2 H20 C12 N6 O12"
_cell_length_a       5.1801915518810135
_cell_length_b       9.81421658305024
_cell_length_c       10.723638501367816
_cell_angle_alpha    86.89343025382529
_cell_angle_beta     83.91289117550791
_cell_angle_gamma    74.46389724509923

_space_group_name_H-M_alt    "P 1"
_space_group_IT_number       1

loop_
  _space_group_symop_operation_xyz
  'x, y, z'

loop_
  _atom_site_type_symbol
  _atom_site_label
  _atom_site_symmetry_multiplicity
  _atom_site_fract_x
  _atom_site_fract_y
  _atom_site_fract_z
  _atom_site_occupancy
  Zn  Zn1       1.0  0.3137845498867263  0.3177654014091758  0.04352618680001541  1.0000
  Zn  Zn2       1.0  0.6862094584005117  0.6822356421669441  0.9564752723422529  1.0000
  P   P1        1.0  0.7955858107254413  0.3653073635760721  0.8904117033996998  1.0000
  P   P2        1.0  0.2044071883656001  0.6346957956603703  0.1095896896173585  1.0000
  H   H1        1.0  0.9402013046530013  0.3119160001780585  0.6868320742604582  1.0000
  H   H2        1.0  0.059796078460642645  0.6880860796949976  0.3131700999602316  1.0000
  H   H3        1.0  0.7036700804282315  0.8358601726958312  0.23644093639578054  1.0000
  H   H4        1.0  0.2963283814958899  0.1641397618596585  0.7635575719620676  1.0000
  H   H5        1.0  0.6523008230801607  0.5456345043672286  0.38155461164090104  1.0000
  H   H6        1.0  0.34770155307560185  0.45436539382641433  0.6184427788639512  1.0000
  H   H7        1.0  0.517435414886023  0.4052700990892007  0.40245476659435303  1.0000
  H   H8        1.0  0.4825693968782968  0.5947287342148259  0.5975434975421123  1.0000
  H   H9        1.0  0.5859166145412754  0.46342199617615887  0.2569046847243612  1.0000
  H   H10       1.0  0.41408628361615013  0.5365768367730084  0.7430918058460847  1.0000
  H   H11       1.0  0.7632452622491355  0.027496209295428307  0.0776819979213244  1.0000
  H   H12       1.0  0.2367473892400224  0.9725037538527419  0.922314921726482  1.0000
  H   H13       1.0  0.2551297015898866  0.9127552213897515  0.3762303323054894  1.0000
  H   H14       1.0  0.7448711611356484  0.08724366310474352  0.6237709156780014  1.0000
  H   H15       1.0  0.8171907969742517  0.1563808602709855  0.3613630339446844  1.0000
  H   H16       1.0  0.1828158236114631  0.8436222050633901  0.6386386450734279  1.0000
  H   H17       1.0  0.8240950804938334  0.23444706131336088  0.20804847864250323  1.0000
  H   H18       1.0  0.17590232038744338  0.7655508239557562  0.7919567192476294  1.0000
  H   H19       1.0  0.06750640074186251  0.40298331271539223  0.2825206165374183  1.0000
  H   H20       1.0  0.9325023426576704  0.5970154768124729  0.7174755967490398  1.0000
  C   C1        1.0  0.5920732595415072  0.03569826559379409  0.1470819055981636  1.0000
  C   C2        1.0  0.4079198095278894  0.9643006767957731  0.8529197120973041  1.0000
  C   C3        1.0  0.3237131808505039  0.9800518594280802  0.30389175450847733  1.0000
  C   C4        1.0  0.6762915787031003  0.0199469961188825  0.696109308619029  1.0000
  C   C5        1.0  0.20348235303821116  0.11324327724565109  0.2575346516949608  1.0000
  C   C6        1.0  0.7965146302628265  0.8867556287820691  0.7424658481475037  1.0000
  C   C7        1.0  0.9326796120662233  0.2098628041471642  0.29274340822896516  1.0000
  C   C8        1.0  0.06730721194846712  0.790133007818369  0.7072568123722719  1.0000
  C   C9        1.0  0.9353804141026173  0.35265782150489144  0.344353859398872  1.0000
  C   C10       1.0  0.06462277944598316  0.6473442297754846  0.6556499035318595  1.0000
  C   C11       1.0  0.026002991084162357  0.33687347797791745  0.4774710373932721  1.0000
  C   C12       1.0  0.9739988630699298  0.663127485460194  0.5225272530459791  1.0000
  N   N1        1.0  0.3754879827089255  0.1462737109561729  0.15885812275239894  1.0000
  N   N2        1.0  0.6245051033999756  0.8537294112087112  0.8411386052795962  1.0000
  N   N3        1.0  0.5672623931384704  0.9346540320382887  0.23367488240340614  1.0000
  N   N4        1.0  0.4327297015418805  0.0653470111829719  0.7663248031728359  1.0000
  N   N5        1.0  0.6568481093556926  0.4482879947725777  0.3461333467787996  1.0000
  N   N6        1.0  0.3431586160155219  0.5517108388863009  0.6538666909236995  1.0000
  O   O1        1.0  0.5865552549993037  0.27869626317004054  0.9009852504157722  1.0000
  O   O2        1.0  0.4134421455179049  0.7213058092887009  0.09901599080790652  1.0000
  O   O3        1.0  0.6564356552856621  0.5226053486036976  0.858183399586615  1.0000
  O   O4        1.0  0.3435642330508201  0.47739563672249835  0.1418159162776433  1.0000
  O   O5        1.0  0.01436353943365984  0.30807754338582793  0.7762340443792154  1.0000
  O   O6        1.0  0.985633443867378  0.6919213626418852  0.22376645546325596  1.0000
  O   O7        1.0  0.9429131726751687  0.34852783651299296  0.008635044665950895  1.0000
  O   O8        1.0  0.0570837232439415  0.65147529377591  0.9913661634951157  1.0000
  O   O9        1.0  0.2604490107296939  0.34435991905499463  0.49250786747184355  1.0000
  O   O10       1.0  0.7395428917832374  0.6556495801029526  0.5074941677386064  1.0000
  O   O11       1.0  0.8522840549748235  0.315139243990629  0.5646036473415209  1.0000
  O   O12       1.0  0.14772320980162593  0.6848585170094664  0.43539455742956096  1.0000
