data_image0
_chemical_formula_structural       HgH16C22Br2N6O2F2
_chemical_formula_sum              "Hg1 H16 C22 Br2 N6 O2 F2"
_cell_length_a       4.188311212963348
_cell_length_b       10.798047402222984
_cell_length_c       13.127872118970842
_cell_angle_alpha    105.04700774668302
_cell_angle_beta     93.6095734659709
_cell_angle_gamma    94.59318895019774

_space_group_name_H-M_alt    "P 1"
_space_group_IT_number       1

loop_
  _space_group_symop_operation_xyz
  'x, y, z'

loop_
  _atom_site_type_symbol
  _atom_site_label
  _atom_site_symmetry_multiplicity
  _atom_site_fract_x
  _atom_site_fract_y
  _atom_site_fract_z
  _atom_site_occupancy
  Hg  Hg1       1.0  0.500004059074243  5.130054035005769e-07  0.4999995945587941  1.0000
  H   H1        1.0  0.005563115883283799  0.06575382369558719  0.10181662434921179  1.0000
  H   H2        1.0  0.9944414864872682  0.9342448181561167  0.8981839884284142  1.0000
  H   H3        1.0  0.1119681036432567  0.10548212532692249  0.30137100950850737  1.0000
  H   H4        1.0  0.888042098666787  0.8945204389497547  0.6986283056879614  1.0000
  H   H5        1.0  0.6200324951596983  0.7832605954256026  0.2541040150906753  1.0000
  H   H6        1.0  0.3799671202648867  0.21673704532366142  0.7458962703554234  1.0000
  H   H7        1.0  0.5119034460934913  0.6113736277302664  0.5768826397555457  1.0000
  H   H8        1.0  0.48810272791768466  0.3886327431050063  0.4231181957325205  1.0000
  H   H9        1.0  0.8382304573231636  0.42363346986610395  0.573738937189546  1.0000
  H   H10       1.0  0.16176536563810368  0.5763689818208632  0.42626004900513687  1.0000
  H   H11       1.0  0.0018944606437756005  0.37371716898950075  0.7430196970131533  1.0000
  H   H12       1.0  0.9980959982135644  0.626282364651601  0.2569777672196664  1.0000
  H   H13       1.0  0.8484106197493658  0.5051557716360477  0.9130138032569233  1.0000
  H   H14       1.0  0.1515812560160796  0.4948389527056917  0.08698338679003827  1.0000
  H   H15       1.0  0.3446899385335414  0.7792829753462769  0.9232194231370341  1.0000
  H   H16       1.0  0.6553128487680198  0.22071853845807252  0.07678178779974588  1.0000
  C   C1        1.0  0.14512646570827312  0.0030754448459759985  0.1361690942964628  1.0000
  C   C2        1.0  0.8548757401041486  0.9969231782407707  0.8638314636475285  1.0000
  C   C3        1.0  0.2015035793911295  0.024602205336698504  0.2457716748249226  1.0000
  C   C4        1.0  0.7985010334808891  0.9753964467166442  0.7542281786508838  1.0000
  C   C5        1.0  0.4839477484911257  0.8471441729354152  0.22020648670339674  1.0000
  C   C6        1.0  0.5160544468198367  0.1528544399496852  0.7797948305424143  1.0000
  C   C7        1.0  0.43179849291857403  0.8273246285508549  0.11055443771923726  1.0000
  C   C8        1.0  0.5682037023923883  0.1726739843342457  0.8894468795265809  1.0000
  C   C9        1.0  0.5786095703278562  0.7201164917303374  0.03670094953260871  1.0000
  C   C10       1.0  0.4213900450967287  0.2798811490189265  0.9632993359134971  1.0000
  C   C11       1.0  0.5916601411787141  0.6312894035915803  0.8418834334146935  1.0000
  C   C12       1.0  0.40833728201891256  0.36870919216691067  0.15811625556021613  1.0000
  C   C13       1.0  0.4998797382916109  0.6559041999075104  0.7449745481450945  1.0000
  C   C14       1.0  0.5001234471708357  0.3440992512435558  0.25502633881838216  1.0000
  C   C15       1.0  0.5848814915992406  0.5848440373328074  0.6488011705327776  1.0000
  C   C16       1.0  0.4151216938632131  0.41515941381825877  0.3511997164306989  1.0000
  C   C17       1.0  0.766133505517132  0.4815335350586167  0.6481620567093741  1.0000
  C   C18       1.0  0.23386232794560163  0.5184689268299962  0.351836170183489  1.0000
  C   C19       1.0  0.8575407694645705  0.4531894022560365  0.7430336251403913  1.0000
  C   C20       1.0  0.14244948506159716  0.5468091576108876  0.2569643807299826  1.0000
  C   C21       1.0  0.7736524478011475  0.5270924633604466  0.8395734517896967  1.0000
  C   C22       1.0  0.22633761289529988  0.4729051329339454  0.16042433641641907  1.0000
  Br  Br1       1.0  0.14696562473599067  0.1856555216169795  0.5234805989206777  1.0000
  Br  Br2       1.0  0.8530419976876757  0.8143460705238609  0.4765176844760786  1.0000
  N   N1        1.0  0.26100382517167725  0.905152602453249  0.06873788985663501  1.0000
  N   N2        1.0  0.738997992981318  0.0948440934884331  0.9312622327588326  1.0000
  N   N3        1.0  0.37006656729318615  0.946318332746628  0.28702684285978813  1.0000
  N   N4        1.0  0.6299358323489486  0.05368125391265719  0.7129739327484614  1.0000
  N   N5        1.0  0.4933970899354065  0.712134586094379  0.9332178289106776  1.0000
  N   N6        1.0  0.5065981200323506  0.2878649442700478  0.06678278219668238  1.0000
  O   O1        1.0  0.7614693539215337  0.6525498698311196  0.07055410644336037  1.0000
  O   O2        1.0  0.23853344388149364  0.3474516541748827  0.9294463451916001  1.0000
  F   F1        1.0  0.31420714281888  0.7563454276829732  0.7477424624176549  1.0000
  F   F2        1.0  0.6857986225299513  0.24365899560392987  0.2522594563455414  1.0000
