data_image0
_chemical_formula_structural       Cu4P4H60C52N12Cl4O12
_chemical_formula_sum              "Cu4 P4 H60 C52 N12 Cl4 O12"
_cell_length_a       9.241625710137424
_cell_length_b       12.062873433461228
_cell_length_c       13.283928773005782
_cell_angle_alpha    90.00163532925893
_cell_angle_beta     89.9985056097992
_cell_angle_gamma    104.12411000833438

_space_group_name_H-M_alt    "P 1"
_space_group_IT_number       1

loop_
  _space_group_symop_operation_xyz
  'x, y, z'

loop_
  _atom_site_type_symbol
  _atom_site_label
  _atom_site_symmetry_multiplicity
  _atom_site_fract_x
  _atom_site_fract_y
  _atom_site_fract_z
  _atom_site_occupancy
  Cu  Cu1       1.0  0.30901797085967786  0.3651607803445174  0.3837641521447567  1.0000
  Cu  Cu2       1.0  0.19094545506209215  0.1348079426868694  0.8837566386000975  1.0000
  Cu  Cu3       1.0  0.6909496108354247  0.6348062957650527  0.6162330647353614  1.0000
  Cu  Cu4       1.0  0.8090306407543862  0.865141989858337  0.11624810587450442  1.0000
  P   P1        1.0  0.6060683032352755  0.5808755942725269  0.1335656863303711  1.0000
  P   P2        1.0  0.8938754189235211  0.9191323092159751  0.6335468062755397  1.0000
  P   P3        1.0  0.39389907002471597  0.4191342705004074  0.8664526092071014  1.0000
  P   P4        1.0  0.10608619368648678  0.08086644969883142  0.36644062480725387  1.0000
  H   H1        1.0  0.6052535167571875  0.5259557680918334  0.3101467787492709  1.0000
  H   H2        1.0  0.894728774041411  0.9740180677346615  0.8101308105973999  1.0000
  H   H3        1.0  0.39473276984207206  0.4740189473136097  0.6898745273194962  1.0000
  H   H4        1.0  0.10525308318672438  0.025942969993856493  0.18985285586727235  1.0000
  H   H5        1.0  0.44186172911508237  0.5679908301918033  0.27477522961412865  1.0000
  H   H6        1.0  0.0581225921031461  0.9319943616625538  0.7747311399753585  1.0000
  H   H7        1.0  0.5581259949734587  0.4319950052162084  0.7252483349536051  1.0000
  H   H8        1.0  0.9418630615836249  0.0679683747980633  0.22525026810893686  1.0000
  H   H9        1.0  0.4254798709469512  0.5738445192057356  0.018047187494701702  1.0000
  H   H10       1.0  0.07447533484583602  0.9261478176767001  0.518041042563496  1.0000
  H   H11       1.0  0.5744884770087139  0.4261516501070374  0.981961321595229  1.0000
  H   H12       1.0  0.9254834557914718  0.07383554723166699  0.4819531634496245  1.0000
  H   H13       1.0  0.6291060545097196  0.34466326470777636  0.20077596942262232  1.0000
  H   H14       1.0  0.8708783043321587  0.15533287197222734  0.7007740127151934  1.0000
  H   H15       1.0  0.3708908066704381  0.6553507795678327  0.7992220005899924  1.0000
  H   H16       1.0  0.12911155510425226  0.8446495331246098  0.2992397655273749  1.0000
  H   H17       1.0  0.47034598636710706  0.23164155272056774  0.22951668668848413  1.0000
  H   H18       1.0  0.029649171834336092  0.2683470321775303  0.7295027509518591  1.0000
  H   H19       1.0  0.5296701980173423  0.7683553115831218  0.7704797773482712  1.0000
  H   H20       1.0  0.9703609214942117  0.731631025914517  0.2704876905818097  1.0000
  H   H21       1.0  0.452130012965064  0.336937631860593  0.5838072265125264  1.0000
  H   H22       1.0  0.04794962210452519  0.1631444536617153  0.08378788472496271  1.0000
  H   H23       1.0  0.5479422228636252  0.6631086781027733  0.4161990239187433  1.0000
  H   H24       1.0  0.9521193178786259  0.8368950213269172  0.9162176128582972  1.0000
  H   H25       1.0  0.6914043262606313  0.2887570324579443  0.6378389047222868  1.0000
  H   H26       1.0  0.8086303479777824  0.21125014263449773  0.1378469574725116  1.0000
  H   H27       1.0  0.30865655813306586  0.711254229496191  0.36215078399244055  1.0000
  H   H28       1.0  0.19141089389598415  0.7887372244338096  0.8621638092121559  1.0000
  H   H29       1.0  0.8668234429439321  0.25247197238191893  0.5020848406759201  1.0000
  H   H30       1.0  0.6331770886522463  0.24749415043753936  0.0021075450685899004  1.0000
  H   H31       1.0  0.13320588292913974  0.747512011298184  0.49789656728838594  1.0000
  H   H32       1.0  0.36685082584259726  0.7524821365865292  0.9979039743825383  1.0000
  H   H33       1.0  0.7940280321713828  0.2632886161267153  0.3235262655678994  1.0000
  H   H34       1.0  0.705960080037144  0.2366833013715208  0.8235406906223731  1.0000
  H   H35       1.0  0.2059793722565715  0.7366911624617601  0.6764611648549987  1.0000
  H   H36       1.0  0.2940720141514745  0.7633092308933341  0.1764670650545312  1.0000
  H   H37       1.0  0.2783229219336363  0.27431752923769187  0.1688019988348586  1.0000
  H   H38       1.0  0.22164870868103034  0.22568154383060346  0.6688030573244249  1.0000
  H   H39       1.0  0.7216498028840378  0.7256854713132059  0.8311989824104842  1.0000
  H   H40       1.0  0.7783144587189382  0.7743086524039099  0.3311903959481981  1.0000
  H   H41       1.0  0.3647881891730406  0.3949152006780352  0.0956497207446816  1.0000
  H   H42       1.0  0.13523711314755357  0.10507067389115578  0.5956514789108383  1.0000
  H   H43       1.0  0.6352317384985966  0.605076516505747  0.9043444848235609  1.0000
  H   H44       1.0  0.8647761428219666  0.8948971047901038  0.4043585349840555  1.0000
  H   H45       1.0  0.03794835388886493  0.47024812334716865  0.4105085473741141  1.0000
  H   H46       1.0  0.462062788094606  0.029807563309375996  0.9105340607093666  1.0000
  H   H47       1.0  0.9620580809330049  0.5298155220295868  0.5894525365162196  1.0000
  H   H48       1.0  0.5379541245432476  0.9702483460691411  0.08950154913092231  1.0000
  H   H49       1.0  0.8699009554142021  0.5395754340231349  0.2907120571832564  1.0000
  H   H50       1.0  0.6300765688557346  0.9604415588740878  0.7907487031292322  1.0000
  H   H51       1.0  0.13006963499388746  0.460430996007652  0.7092347232931503  1.0000
  H   H52       1.0  0.36991300225593443  0.0395733662254685  0.20929518711059106  1.0000
  H   H53       1.0  0.9175434800180041  0.5329298973279747  0.1060605952871896  1.0000
  H   H54       1.0  0.5824389968400537  0.9670574823178413  0.6060854773105149  1.0000
  H   H55       1.0  0.08244258388702258  0.46705080821526224  0.8938922070310016  1.0000
  H   H56       1.0  0.4175568469892426  0.0329300375702459  0.3939561541497909  1.0000
  H   H57       1.0  0.1398511220843375  0.4586438538359872  0.04753955508306261  1.0000
  H   H58       1.0  0.36012099241933976  0.0413392427393973  0.5475604366228454  1.0000
  H   H59       1.0  0.8601357987079011  0.5413428393798227  0.9524343254064648  1.0000
  H   H60       1.0  0.6398751550866423  0.9586525547033419  0.4524661391032439  1.0000
  C   C1        1.0  0.5185080987792644  0.5158625383672373  0.2519056269058382  1.0000
  C   C2        1.0  0.9814703252090451  0.9841226391013366  0.7518815758796438  1.0000
  C   C3        1.0  0.48147693639763384  0.4841250175469867  0.7481156793404652  1.0000
  C   C4        1.0  0.018518901138257597  0.015847787207142996  0.24810434900793155  1.0000
  C   C5        1.0  0.5352279960500894  0.3164234846633462  0.2533866417623898  1.0000
  C   C6        1.0  0.9647626364657214  0.18357142543151633  0.75337995385852  1.0000
  C   C7        1.0  0.464774163251377  0.6835768497729332  0.7466120808141741  1.0000
  C   C8        1.0  0.035240193865767724  0.8164109359801656  0.24662328521537097  1.0000
  C   C9        1.0  0.588292104931618  0.3086535973345548  0.3596121652698018  1.0000
  C   C10       1.0  0.9117182172770696  0.1913576884022135  0.8596126608266703  1.0000
  C   C11       1.0  0.41172662446702185  0.6913578062295683  0.6403835461428004  1.0000
  C   C12       1.0  0.08831176829290394  0.8086416969726785  0.1403950949580164  1.0000
  C   C13       1.0  0.5331798972307666  0.32059974884759856  0.5298674199679568  1.0000
  C   C14       1.0  0.9668671602462312  0.17944309860913416  0.029860494483514806  1.0000
  C   C15       1.0  0.46687491144795246  0.6794295044620426  0.4701320552960767  1.0000
  C   C16       1.0  0.03318839915343115  0.8205784505125991  0.9701480141460976  1.0000
  C   C17       1.0  0.6651082465744764  0.2934174379647629  0.5582640999189152  1.0000
  C   C18       1.0  0.8349274834254387  0.20659708709384714  0.05827005081245322  1.0000
  C   C19       1.0  0.334949448283453  0.7066006807479965  0.4417270944921086  1.0000
  C   C20       1.0  0.1651206536063512  0.7934082276643795  0.9417414688315163  1.0000
  C   C21       1.0  0.7614600685102815  0.2729502472958458  0.48379553615288284  1.0000
  C   C22       1.0  0.7385504455072648  0.22703601253429184  0.9838106274645071  1.0000
  C   C23       1.0  0.2385758490317826  0.7270474063532645  0.5161888830861301  1.0000
  C   C24       1.0  0.2614873299715796  0.772957356458612  0.016200892118547503  1.0000
  C   C25       1.0  0.7212454551547722  0.2797246130159934  0.38325269027566833  1.0000
  C   C26       1.0  0.7787496589713924  0.2202625189814569  0.8832638676949929  1.0000
  C   C27       1.0  0.27876831727653684  0.7202748265399137  0.6167354931334759  1.0000
  C   C28       1.0  0.22127464522005624  0.7797360297436244  0.1167461464982864  1.0000
  C   C29       1.0  0.3200588420120738  0.3677891939142058  0.17066523213021872  1.0000
  C   C30       1.0  0.17993623664907685  0.13220899301903438  0.6706751645209934  1.0000
  C   C31       1.0  0.6799403515958743  0.6322120061258047  0.82932520980161  1.0000
  C   C32       1.0  0.8200596342516491  0.8677819493647475  0.32933334425231925  1.0000
  C   C33       1.0  0.1946420127505348  0.42065464045178663  0.19791727228051315  1.0000
  C   C34       1.0  0.3053708809711678  0.0793749993788211  0.6979401287714568  1.0000
  C   C35       1.0  0.80537526843284  0.5793790172912665  0.8020566085423442  1.0000
  C   C36       1.0  0.6946403615219267  0.9206466987185137  0.3020826832584476  1.0000
  C   C37       1.0  0.053502949551116785  0.46812478043823796  0.3292929482315543  1.0000
  C   C38       1.0  0.4465048929192576  0.0319279593410826  0.8293203034990952  1.0000
  C   C39       1.0  0.9465055939004469  0.5319320118186965  0.6706673827616498  1.0000
  C   C40       1.0  0.5535157629837143  0.9681228029370884  0.17071455345136144  1.0000
  C   C41       1.0  0.9613367463276815  0.5064618934951426  0.2618240160538292  1.0000
  C   C42       1.0  0.5386558099185947  0.9935714160851533  0.7618473649090661  1.0000
  C   C43       1.0  0.03865454050122709  0.49356500522831226  0.7381295396044223  1.0000
  C   C44       1.0  0.4613503579311739  0.006458001019353801  0.23818975026415504  1.0000
  C   C45       1.0  0.9896588018967803  0.5029578612137938  0.15894074792046103  1.0000
  C   C46       1.0  0.510332288654716  0.9970522520438864  0.6589586772502471  1.0000
  C   C47       1.0  0.01033825695938618  0.49704676860928027  0.8410188297120484  1.0000
  C   C48       1.0  0.48967834679409344  0.0029608906703159988  0.34107316814650096  1.0000
  C   C49       1.0  0.10898590476799087  0.4602212566796382  0.12658424118378522  1.0000
  C   C50       1.0  0.3910075804847039  0.03978691951277109  0.6266037708621113  1.0000
  C   C51       1.0  0.8910149504033027  0.5397850720026653  0.8733828643297985  1.0000
  C   C52       1.0  0.6090022244197612  0.9602236586700174  0.37342355777290254  1.0000
  N   N1        1.0  0.43503421258427716  0.39459064209484035  0.24993175123724146  1.0000
  N   N2        1.0  0.064960122955533  0.10540446448563762  0.7499340361972173  1.0000
  N   N3        1.0  0.5649570845842645  0.6054028827894128  0.7500677241387663  1.0000
  N   N4        1.0  0.9350440650749618  0.8945787481799528  0.25007371961146424  1.0000
  N   N5        1.0  0.49622560680004574  0.3285972121374883  0.4329439715899994  1.0000
  N   N6        1.0  0.0038137318286714924  0.17145125835688899  0.9329355221497337  1.0000
  N   N7        1.0  0.5038061464553821  0.6714209937793072  0.5670555037395673  1.0000
  N   N8        1.0  0.9962323498111018  0.8285677553144808  0.0670722337434526  1.0000
  N   N9        1.0  0.16711720266816593  0.4254139160296972  0.2978548847558855  1.0000
  N   N10       1.0  0.3328912318388788  0.074630306152784  0.7978771203243582  1.0000
  N   N11       1.0  0.8328885719159089  0.5746343281314807  0.702116737991844  1.0000
  N   N12       1.0  0.6671296479173846  0.92541446496071  0.2021471974957336  1.0000
  Cl  Cl1       1.0  0.2086065104366454  0.3928061037316509  0.5345423483698468  1.0000
  Cl  Cl2       1.0  0.29120478974827074  0.10701973771276128  0.0345690962977656  1.0000
  Cl  Cl3       1.0  0.7912856810592928  0.6070919093088207  0.4654450820367374  1.0000
  Cl  Cl4       1.0  0.7086783554041246  0.892826960821914  0.9654454339427048  1.0000
  O   O1        1.0  0.7256191524599841  0.6823872403261078  0.16840651534762693  1.0000
  O   O2        1.0  0.7742670804429536  0.8176576993383761  0.6683615760820558  1.0000
  O   O3        1.0  0.27429818476164763  0.31765188841930575  0.8316388814375628  1.0000
  O   O4        1.0  0.22563967271916838  0.18237547361325565  0.331602519472824  1.0000
  O   O5        1.0  0.47565622182368367  0.6225164231574922  0.0787259486073992  1.0000
  O   O6        1.0  0.024250487116518046  0.877446839637507  0.5786878342003803  1.0000
  O   O7        1.0  0.5242746354957575  0.3774541997341672  0.9213074025392347  1.0000
  O   O8        1.0  0.9756656329139302  0.12250500525315292  0.42127626021699893  1.0000
  O   O9        1.0  0.6547339431427017  0.49044048497901827  0.070548832435712  1.0000
  O   O10       1.0  0.8452610925134036  0.009600167209747202  0.5705473296559377  1.0000
  O   O11       1.0  0.3452818359695655  0.5096085816973003  0.9294498906484848  1.0000
  O   O12       1.0  0.15474809477532867  0.9904352296344855  0.4294589212043577  1.0000
