data_image0
_chemical_formula_structural       Co6H28C44N16O24
_chemical_formula_sum              "Co6 H28 C44 N16 O24"
_cell_length_a       13.473990817505767
_cell_length_b       13.474448462020943
_cell_length_c       15.741034076240625
_cell_angle_alpha    88.98410167039572
_cell_angle_beta     88.98096700448312
_cell_angle_gamma    94.49652429503641

_space_group_name_H-M_alt    "P 1"
_space_group_IT_number       1

loop_
  _space_group_symop_operation_xyz
  'x, y, z'

loop_
  _atom_site_type_symbol
  _atom_site_label
  _atom_site_symmetry_multiplicity
  _atom_site_fract_x
  _atom_site_fract_y
  _atom_site_fract_z
  _atom_site_occupancy
  Co  Co1       1.0  0.4151381331147732  0.38864929611639093  0.5168410295658746  1.0000
  Co  Co2       1.0  0.6114305485676327  0.5849292891756336  0.983169386601347  1.0000
  Co  Co3       1.0  0.5849730798015571  0.6114365414171985  0.4831614036043349  1.0000
  Co  Co4       1.0  0.38862573583922005  0.4151468360882546  0.01684704071902131  1.0000
  Co  Co5       1.0  0.6995961957741699  0.3002942871145748  0.2499980392897356  1.0000
  Co  Co6       1.0  0.3003111729041592  0.6996478465105015  0.7499837594018076  1.0000
  H   H1        1.0  0.2591105542503982  0.918968737244015  0.908766739467133  1.0000
  H   H2        1.0  0.0810286304018391  0.7408493291144398  0.5912300452688373  1.0000
  H   H3        1.0  0.7409064829219433  0.08100518483156802  0.09122443133814075  1.0000
  H   H4        1.0  0.9189648590047169  0.259117532754729  0.40877096414325115  1.0000
  H   H5        1.0  0.49440107710110937  0.1993800945289266  0.46139779375731405  1.0000
  H   H6        1.0  0.8006068932839842  0.5056020532190714  0.038584026746072204  1.0000
  H   H7        1.0  0.5056139278215852  0.8006190989651785  0.5385925075997592  1.0000
  H   H8        1.0  0.19939944086289776  0.4943568005868073  0.9614150277010014  1.0000
  H   H9        1.0  0.577358980050569  0.17461945899358972  0.3771438915981805  1.0000
  H   H10       1.0  0.8253675985854231  0.42267266018738076  0.12282493079707284  1.0000
  H   H11       1.0  0.4226409240287907  0.8253758312049727  0.6228459663202842  1.0000
  H   H12       1.0  0.1746301168782836  0.5773107858800657  0.8771536330624203  1.0000
  H   H13       1.0  0.3604115560886498  0.013953643149648101  0.6522037104123797  1.0000
  H   H14       1.0  0.9860479831997394  0.6395563766362429  0.8477952203917811  1.0000
  H   H15       1.0  0.6395919453727927  0.9860534329078875  0.3478075928322611  1.0000
  H   H16       1.0  0.013949887120766391  0.3604334818164857  0.15222139569577564  1.0000
  H   H17       1.0  0.32664231038850733  0.041713128556089905  0.9272481195095355  1.0000
  H   H18       1.0  0.9582674434646493  0.6733537220177795  0.5727483827619937  1.0000
  H   H19       1.0  0.6733653954698083  0.9582763317261537  0.07273854181907782  1.0000
  H   H20       1.0  0.0417082973443925  0.326671585432358  0.42726555839578156  1.0000
  H   H21       1.0  0.3906369830768456  0.2997035502531489  0.7697379061155731  1.0000
  H   H22       1.0  0.7003154603557603  0.6093244678286495  0.7302815640368865  1.0000
  H   H23       1.0  0.6093444325133818  0.7003292479519345  0.23027844346182044  1.0000
  H   H24       1.0  0.2996925501535372  0.390694571436903  0.26972893779757373  1.0000
  H   H25       1.0  0.7125803159034517  0.5136850626807571  0.33978641449722613  1.0000
  H   H26       1.0  0.4862839579423622  0.2874585935432492  0.16021655741199237  1.0000
  H   H27       1.0  0.2874139556415543  0.4863020835000285  0.6601889703275321  1.0000
  H   H28       1.0  0.5137079806133399  0.7124998054323085  0.8398194948265998  1.0000
  C   C1        1.0  0.40188266741446915  0.21046301705116122  0.6167844422699249  1.0000
  C   C2        1.0  0.7895392974461615  0.5980814292396133  0.8831902300046226  1.0000
  C   C3        1.0  0.5981279550343004  0.7895578223713855  0.3831885319352822  1.0000
  C   C4        1.0  0.21046803128674438  0.4019139489546077  0.11680018733764543  1.0000
  C   C5        1.0  0.37862872302945055  0.1612802489077865  0.7024021247822605  1.0000
  C   C6        1.0  0.838718927300917  0.6213332183588703  0.797592953388204  1.0000
  C   C7        1.0  0.6213665621147371  0.8387462219898937  0.2975881008798922  1.0000
  C   C8        1.0  0.1612808137629784  0.37867237512072194  0.20241141440504865  1.0000
  C   C9        1.0  0.3592437651601585  0.0582841461913688  0.7093860226270936  1.0000
  C   C10       1.0  0.9417173844633099  0.6407315572357533  0.7906100978742999  1.0000
  C   C11       1.0  0.640761818878822  0.941741657300767  0.2906110941073409  1.0000
  C   C12       1.0  0.058285361251513707  0.35926364042840936  0.20939688555881736  1.0000
  C   C13       1.0  0.336522060816371  0.013562634291204696  0.7895405568057898  1.0000
  C   C14       1.0  0.9864349127894486  0.6634751957584514  0.7104631220698254  1.0000
  C   C15       1.0  0.6634833748352733  0.9864379179629239  0.21045109813135812  1.0000
  C   C16       1.0  0.013567521624956703  0.3365378417530637  0.28954495534300423  1.0000
  C   C17       1.0  0.3115791481739266  0.9061172160632438  0.7961653535890323  1.0000
  C   C18       1.0  0.09387700640724718  0.6884107396069936  0.7038219934757424  1.0000
  C   C19       1.0  0.6884275019407582  0.0938663605692724  0.20381057747847114  1.0000
  C   C20       1.0  0.9061210040663781  0.31160227583980327  0.2961816816975117  1.0000
  C   C21       1.0  0.3375881491327704  0.0721700151254154  0.8625197871860595  1.0000
  C   C22       1.0  0.9278227512418269  0.6623974108085021  0.6374835115238399  1.0000
  C   C23       1.0  0.6624175263937957  0.9278230918000007  0.13747321097107357  1.0000
  C   C24       1.0  0.07216710354768449  0.3376169099281441  0.36253103309274354  1.0000
  C   C25       1.0  0.3580600138280516  0.17489918197024681  0.855735981174661  1.0000
  C   C26       1.0  0.825109196372651  0.641889728821056  0.6442821705071253  1.0000
  C   C27       1.0  0.641915303837159  0.8251075894760832  0.14426925675499552  1.0000
  C   C28       1.0  0.1748902191847677  0.35812392003226984  0.3557386373758008  1.0000
  C   C29       1.0  0.3626114279448061  0.23525551262186895  0.9355808733567843  1.0000
  C   C30       1.0  0.7647548169537615  0.6373542641959062  0.5644670052625856  1.0000
  C   C31       1.0  0.6373592073891886  0.7647293526774918  0.06446148042343942  1.0000
  C   C32       1.0  0.2352552250117697  0.362654835960086  0.4355829652379911  1.0000
  C   C33       1.0  0.3764791137737618  0.21921805757813928  0.7754313846010421  1.0000
  C   C34       1.0  0.7807893588838725  0.6234767332439048  0.7245822447894384  1.0000
  C   C35       1.0  0.6234920743471761  0.7808050135138417  0.22457563670437256  1.0000
  C   C36       1.0  0.21921079848306144  0.3765362284085257  0.2754322094569518  1.0000
  C   C37       1.0  0.6604452817712384  0.45866853754455417  0.37097337252312473  1.0000
  C   C38       1.0  0.5413008831527577  0.33958626676678694  0.1290156246880372  1.0000
  C   C39       1.0  0.3395539451856989  0.541338665309624  0.6290138309594016  1.0000
  C   C40       1.0  0.4586677921505071  0.6603981431234869  0.8709848232263797  1.0000
  C   C41       1.0  0.5778476412626858  0.320285564102548  0.4082552806596383  1.0000
  C   C42       1.0  0.6796948106709948  0.4221503849083986  0.09172246070766481  1.0000
  C   C43       1.0  0.42214362194876287  0.6797126695723391  0.5917244699677158  1.0000
  C   C44       1.0  0.3203063310916647  0.577817487130126  0.9082555901809786  1.0000
  N   N1        1.0  0.5453884228396789  0.3919702622992602  0.45805000120494566  1.0000
  N   N2        1.0  0.6080336279560683  0.45461603268298495  0.04191973365941951  1.0000
  N   N3        1.0  0.4546494981313742  0.6080591103036852  0.541921340652735  1.0000
  N   N4        1.0  0.39196460011878287  0.5453420897925625  0.9580641626719673  1.0000
  N   N5        1.0  0.6505246262421521  0.3598945959612365  0.3522130800377143  1.0000
  N   N6        1.0  0.6400755488863508  0.3494934651709086  0.14778284032909994  1.0000
  N   N7        1.0  0.3494518741627033  0.6401063292786235  0.647780134028892  1.0000
  N   N8        1.0  0.3599025403066989  0.6504957247623866  0.8521907814370878  1.0000
  N   N9        1.0  0.5991014986928606  0.48017860789410355  0.43317889264086074  1.0000
  N   N10       1.0  0.5198137581038154  0.4009250492423178  0.066798539431467  1.0000
  N   N11       1.0  0.4009231522072056  0.5198646426643094  0.5668045142350168  1.0000
  N   N12       1.0  0.48016674309798196  0.5990573620584526  0.9331903736466035  1.0000
  N   N13       1.0  0.5423934133717409  0.2243297404490932  0.4120383863389564  1.0000
  N   N14       1.0  0.7756419014061964  0.45762742588448896  0.08794540748596093  1.0000
  N   N15       1.0  0.4576110751191322  0.7756566566924905  0.5879546914252742  1.0000
  N   N16       1.0  0.2243576750574547  0.5423389578015189  0.9120301329849243  1.0000
  O   O1        1.0  0.40167766715905623  0.3066130852806523  0.6175583154648053  1.0000
  O   O2        1.0  0.6933958600394657  0.5983180118441139  0.882427777859718  1.0000
  O   O3        1.0  0.5983618840536167  0.6934192310618457  0.38241996863629174  1.0000
  O   O4        1.0  0.30661692515759853  0.40169371460298464  0.11757385514340511  1.0000
  O   O5        1.0  0.4193298478710473  0.1588634309015475  0.5537442648995425  1.0000
  O   O6        1.0  0.8411230345709128  0.5806174344113586  0.9462233877014516  1.0000
  O   O7        1.0  0.5806956723455912  0.8411478624644176  0.4462369140118626  1.0000
  O   O8        1.0  0.15888816227345606  0.419367677296684  0.053753752583851615  1.0000
  O   O9        1.0  0.36261978079278384  0.1932479401676659  0.006588283037871201  1.0000
  O   O10       1.0  0.8067288576275757  0.6373484142131859  0.49344397401440443  1.0000
  O   O11       1.0  0.6373599160858205  0.806692538036238  0.9934366379240134  1.0000
  O   O12       1.0  0.19324517440461617  0.36267595730571145  0.5065928648826984  1.0000
  O   O13       1.0  0.36715022609699594  0.3311128296280614  0.9213794329519589  1.0000
  O   O14       1.0  0.6689015139283185  0.6328240596290371  0.5786838176528806  1.0000
  O   O15       1.0  0.6328086939415912  0.6688769258269859  0.07868586093172072  1.0000
  O   O16       1.0  0.33111822999374846  0.3671754343140136  0.4213737753360435  1.0000
  O   O17       1.0  0.3267265177244242  0.8472569571086765  0.7373949057666707  1.0000
  O   O18       1.0  0.15272712980733155  0.6732742278244644  0.7625906855967985  1.0000
  O   O19       1.0  0.6732525281680708  0.15271360973677872  0.2625839764623238  1.0000
  O   O20       1.0  0.8472727323831111  0.3267447333735872  0.23741672279606266  1.0000
  O   O21       1.0  0.2693095591073273  0.8664416915295661  0.8680423213248221  1.0000
  O   O22       1.0  0.13356796889424058  0.7306770008144807  0.6319436940166555  1.0000
  O   O23       1.0  0.7306994485969157  0.13354412723568743  0.13193610456142585  1.0000
  O   O24       1.0  0.8664418345142338  0.26931166117294947  0.3680537543861108  1.0000
