data_image0
_chemical_formula_structural       Zn4H34C54N4O16F2
_chemical_formula_sum              "Zn4 H34 C54 N4 O16 F2"
_cell_length_a       9.730267381786291
_cell_length_b       11.109264901579426
_cell_length_c       24.39668349889619
_cell_angle_alpha    90.11588689286339
_cell_angle_beta     88.66253322720443
_cell_angle_gamma    89.98344748972785

_space_group_name_H-M_alt    "P 1"
_space_group_IT_number       1

loop_
  _space_group_symop_operation_xyz
  'x, y, z'

loop_
  _atom_site_type_symbol
  _atom_site_label
  _atom_site_symmetry_multiplicity
  _atom_site_fract_x
  _atom_site_fract_y
  _atom_site_fract_z
  _atom_site_occupancy
  Zn  Zn1       1.0  0.6313361279054347  0.5026365108245301  0.5014358307242404  1.0000
  Zn  Zn2       1.0  0.34906279080490077  0.5020584330233576  0.4990990640216991  1.0000
  Zn  Zn3       1.0  0.3667434807094239  0.5046335562726512  0.04271346859177069  1.0000
  Zn  Zn4       1.0  0.6488969436656403  0.503862571671732  0.0462841286818048  1.0000
  H   H1        1.0  0.861338586704974  0.38158269438164183  0.43544965198042723  1.0000
  H   H2        1.0  0.1214648766306965  0.3799889055329119  0.4343178297191201  1.0000
  H   H3        1.0  0.1168357632798873  0.6149708686367533  0.6189736008901434  1.0000
  H   H4        1.0  0.12230871011769301  0.736629336590077  0.5714531282688569  1.0000
  H   H5        1.0  0.8603995390354271  0.7413054557313502  0.5718020943443776  1.0000
  H   H6        1.0  0.8559788383905839  0.61912233858596  0.6192624840715766  1.0000
  H   H7        1.0  0.7258379431872443  0.11164807740411929  0.5016932132361305  1.0000
  H   H8        1.0  0.7211832846278766  0.8877932444672393  0.5026137475427674  1.0000
  H   H9        1.0  0.18413027330952048  0.8909330755247924  0.4598445902140966  1.0000
  H   H10       1.0  0.17446966343481313  0.8997383451265434  0.532847312281703  1.0000
  H   H11       1.0  0.17873061815119937  0.12509547448106417  0.5283899289543683  1.0000
  H   H12       1.0  0.1924589842117257  0.1179621791995373  0.4554457982808913  1.0000
  H   H13       1.0  0.3229445946929559  0.500018891917442  0.8645344577887285  1.0000
  H   H14       1.0  0.76424776742477  0.4923711493727936  0.8732480502721458  1.0000
  H   H15       1.0  0.6765078732266545  0.49817274829544544  0.6800814916859252  1.0000
  H   H16       1.0  0.23509996226029983  0.49294284358637697  0.671492116116056  1.0000
  H   H17       1.0  0.270478089554075  0.5064363201464915  0.3214399875723331  1.0000
  H   H18       1.0  0.28259751220342366  0.5072181613568106  0.21941169280535178  1.0000
  H   H19       1.0  0.8233173675409375  0.4180741043760463  0.2238871654652357  1.0000
  H   H20       1.0  0.8258781456955263  0.5784901953337781  0.22438846689870218  1.0000
  H   H21       1.0  0.8132793662323224  0.5766516921338153  0.3278721163167333  1.0000
  H   H22       1.0  0.809951284159105  0.4161439928088626  0.3268024441453433  1.0000
  H   H23       1.0  0.13830497542021192  0.3837797674463132  0.1087655448129112  1.0000
  H   H24       1.0  0.8781652110110089  0.3828606473805749  0.11105409055348049  1.0000
  H   H25       1.0  0.8785193569653629  0.615374558397143  0.9263882719716747  1.0000
  H   H26       1.0  0.873822592245169  0.7378528121036184  0.973649409500716  1.0000
  H   H27       1.0  0.1359065417129344  0.7423982360728091  0.9725699435284768  1.0000
  H   H28       1.0  0.13940459619670523  0.6200181490856024  0.9249629823752555  1.0000
  H   H29       1.0  0.27516679359047913  0.11366383390674877  0.042582971338269694  1.0000
  H   H30       1.0  0.2797448106846688  0.8897451990429274  0.0416160579926697  1.0000
  H   H31       1.0  0.8164808019667618  0.8926961761693731  0.0853510816166079  1.0000
  H   H32       1.0  0.8268133722599201  0.9013116015012842  0.0123787799622619  1.0000
  H   H33       1.0  0.8224603128896034  0.1265867096595414  0.0170716332000609  1.0000
  H   H34       1.0  0.8078671618587451  0.11976217597812419  0.0899825200303965  1.0000
  C   C1        1.0  0.5006323843558462  0.738446444104021  0.5016810390436461  1.0000
  C   C2        1.0  0.4689116701435623  0.49871041120751153  0.6083183485391217  1.0000
  C   C3        1.0  0.508443865227207  0.2668790930193765  0.4984288686936437  1.0000
  C   C4        1.0  0.4814858767337001  0.502519172020392  0.3927438379550878  1.0000
  C   C5        1.0  0.5002131196362215  0.7402774261530638  0.0427958725305544  1.0000
  C   C6        1.0  0.5296760910304101  0.4998024308132683  0.9364220922860439  1.0000
  C   C7        1.0  0.4928448695500337  0.2686808341464868  0.0462114444568655  1.0000
  C   C8        1.0  0.5092572202117508  0.5046516186456882  0.1521970853951728  1.0000
  C   C9        1.0  0.061292409614722515  0.5640039861562726  0.534940463683995  1.0000
  C   C10       1.0  0.9191929987773264  0.4352312517330007  0.46439142430752156  1.0000
  C   C11       1.0  0.9180063807099541  0.5663476401284342  0.5350260295548708  1.0000
  C   C12       1.0  0.062618340883219  0.43376001793127733  0.4639916315293391  1.0000
  C   C13       1.0  0.07069871530898551  0.6517379296176529  0.5820176228971974  1.0000
  C   C14       1.0  0.9071288674631575  0.6545853502476009  0.5821346914630965  1.0000
  C   C15       1.0  0.5009930636537091  0.8728110003795777  0.5004157769433917  1.0000
  C   C16       1.0  0.5061794488551712  0.13270858546325573  0.4982797124661786  1.0000
  C   C17       1.0  0.3813916079511941  0.9415596951804802  0.49806181625514506  1.0000
  C   C18       1.0  0.6279849105902926  0.0639772893870969  0.5005001526125454  1.0000
  C   C19       1.0  0.3842242792813977  0.06732049447141011  0.496717843909785  1.0000
  C   C20       1.0  0.625305524000943  0.9384175031589521  0.5013221292960139  1.0000
  C   C21       1.0  0.2257862510694366  0.9363228757755808  0.4958932056303951  1.0000
  C   C22       1.0  0.22941181397099086  0.078510175703947  0.4936655388566038  1.0000
  C   C23       1.0  0.4232544534839631  0.49951310126710524  0.843917330346379  1.0000
  C   C24       1.0  0.6723275247416608  0.4960969910881231  0.8487772523941217  1.0000
  C   C25       1.0  0.6819866035334458  0.49710565058826733  0.7926837363291952  1.0000
  C   C26       1.0  0.5659131221597775  0.49843673883609096  0.7585870697373095  1.0000
  C   C27       1.0  0.5762198946570294  0.4983481681039592  0.7007330092499514  1.0000
  C   C28       1.0  0.3270216660257645  0.4961184623862139  0.6959720491685104  1.0000
  C   C29       1.0  0.3174483005149469  0.49767975832205025  0.7520402996133697  1.0000
  C   C30       1.0  0.4336060904184293  0.49887903089434354  0.7860874822248789  1.0000
  C   C31       1.0  0.5405306600095727  0.49832953899220206  0.8748880813748626  1.0000
  C   C32       1.0  0.4588081765166763  0.4974496279755984  0.6698354225635937  1.0000
  C   C33       1.0  0.5032748072056137  0.5032213229801954  0.213339353297151  1.0000
  C   C34       1.0  0.48956878274479015  0.5021952657054456  0.3316483552362257  1.0000
  C   C35       1.0  0.6208346212103847  0.500824053982889  0.24496694353537407  1.0000
  C   C36       1.0  0.369988679481807  0.5045068372368037  0.299968395233762  1.0000
  C   C37       1.0  0.6140323895383658  0.5002066548914142  0.30225371204795687  1.0000
  C   C38       1.0  0.3767183675774746  0.5049495463023065  0.2427867598446838  1.0000
  C   C39       1.0  0.7768652805049071  0.4987106493350026  0.2428274455749246  1.0000
  C   C40       1.0  0.7689007856228046  0.4977085657984546  0.3076474813757812  1.0000
  C   C41       1.0  0.9359963807075715  0.565825690095437  0.010194374467324999  1.0000
  C   C42       1.0  0.07974853380184038  0.4372598996888685  0.0800637563146864  1.0000
  C   C43       1.0  0.0793040646612724  0.5677202943901206  0.009433415430109398  1.0000
  C   C44       1.0  0.9362751245427603  0.4362985808333448  0.08113191643575848  1.0000
  C   C45       1.0  0.925436880572043  0.6528585385851854  0.963093109979333  1.0000
  C   C46       1.0  0.0891084350859401  0.655596002659358  0.9623188351811223  1.0000
  C   C47       1.0  0.499853671044704  0.8746216985046903  0.0441200462237248  1.0000
  C   C48       1.0  0.49475368499508204  0.1344736800902595  0.046405108580501106  1.0000
  C   C49       1.0  0.6194579674025746  0.9432459013258242  0.04685334072008371  1.0000
  C   C50       1.0  0.372932428072609  0.0658806340722862  0.043907110096647294  1.0000
  C   C51       1.0  0.61662389306273  0.0689930099078637  0.0482875068264903  1.0000
  C   C52       1.0  0.3756061527154628  0.9403186632222713  0.043022017425450094  1.0000
  C   C53       1.0  0.7750767571883442  0.9379454033832745  0.0492996313707366  1.0000
  C   C54       1.0  0.7713923228454221  0.0801467363976016  0.0516556818805469  1.0000
  N   N1        1.0  0.13694928454815167  0.49918614022514174  0.4999351088812389  1.0000
  N   N2        1.0  0.8435882359751121  0.503041594119594  0.5004161720968483  1.0000
  N   N3        1.0  0.8610582174017765  0.5016318483689588  0.04556638634652191  1.0000
  N   N4        1.0  0.1545562856257519  0.5045237554059625  0.0436818561754038  1.0000
  O   O1        1.0  0.6169923056529286  0.6858660420834042  0.5038375786521172  1.0000
  O   O2        1.0  0.3839700336505487  0.6862477295773318  0.5005128423208447  1.0000
  O   O3        1.0  0.3552823106155357  0.5001064498980766  0.5833707006702794  1.0000
  O   O4        1.0  0.588263421038434  0.49894741626415845  0.5859233926592466  1.0000
  O   O5        1.0  0.3921127311484511  0.3198178267645062  0.49792163240946513  1.0000
  O   O6        1.0  0.6253378321280749  0.3186224169189558  0.4994736566028237  1.0000
  O   O7        1.0  0.5951627839244509  0.503509389713834  0.4177933018520861  1.0000
  O   O8        1.0  0.3620442935897827  0.5020389670333856  0.4154353756488475  1.0000
  O   O9        1.0  0.3838480188714044  0.6876387868564819  0.0411940489506222  1.0000
  O   O10       1.0  0.6170479042592305  0.6881902174897332  0.0434436226817496  1.0000
  O   O11       1.0  0.6427530730497465  0.49931440927866777  0.961724412840269  1.0000
  O   O12       1.0  0.4098845535797153  0.5019401851689764  0.9584122564454559  1.0000
  O   O13       1.0  0.6092669434669488  0.3212213704298676  0.04779811603132339  1.0000
  O   O14       1.0  0.3762687409130692  0.3207265112187443  0.044079247027440295  1.0000
  O   O15       1.0  0.3961368702148818  0.504549146331712  0.1268742961665481  1.0000
  O   O16       1.0  0.6292380692955462  0.5061218906443729  0.129814904536893  1.0000
  F   F1        1.0  0.19046983276765417  0.49764313848402253  0.7771282276129626  1.0000
  F   F2        1.0  0.8089965829793968  0.49610888250930435  0.7676290162454222  1.0000
