data_image0
_chemical_formula_structural       Zn2H32C40N2O10
_chemical_formula_sum              "Zn2 H32 C40 N2 O10"
_cell_length_a       10.87728184706568
_cell_length_b       16.486893308765843
_cell_length_c       17.63441594386057
_cell_angle_alpha    90.17409515923258
_cell_angle_beta     90.63215575991995
_cell_angle_gamma    89.67403924842118

_space_group_name_H-M_alt    "P 1"
_space_group_IT_number       1

loop_
  _space_group_symop_operation_xyz
  'x, y, z'

loop_
  _atom_site_type_symbol
  _atom_site_label
  _atom_site_symmetry_multiplicity
  _atom_site_fract_x
  _atom_site_fract_y
  _atom_site_fract_z
  _atom_site_occupancy
  Zn  Zn1       1.0  0.5113127111980448  0.4156656380859403  0.5027180561067013  1.0000
  Zn  Zn2       1.0  0.5125204300117475  0.5824926405388808  0.49867556558369586  1.0000
  H   H1        1.0  0.1134386396993108  0.3825776725850433  0.5475501636875464  1.0000
  H   H2        1.0  0.6687548184716691  0.7132682686052547  0.5623788839013173  1.0000
  H   H3        1.0  0.6525289912101685  0.13074457295847  0.5832707259516994  1.0000
  H   H4        1.0  0.6679025117362586  0.866089823961417  0.5685610012623529  1.0000
  H   H5        1.0  0.13011302949760764  0.3837042858441819  0.4484089956678545  1.0000
  H   H6        1.0  0.10449214734931192  0.516819780682674  0.3798108979084773  1.0000
  H   H7        1.0  0.9167688716295148  0.3945014294528661  0.42756392486284506  1.0000
  H   H8        1.0  0.8922272136700188  0.5415765024070893  0.38381919185606245  1.0000
  H   H9        1.0  0.9008945584492027  0.3702193239875342  0.5240371289403782  1.0000
  H   H10       1.0  0.9089881742340185  0.6188943560954244  0.4524301306894714  1.0000
  H   H11       1.0  0.9239960015055289  0.48236824425596575  0.6208965120278903  1.0000
  H   H12       1.0  0.1217885487037549  0.6094835289648374  0.4292575471985671  1.0000
  H   H13       1.0  0.8922589474564903  0.5836175205640047  0.5939813114921932  1.0000
  H   H14       1.0  0.4010839508524172  0.37101565760547567  0.8772354116051915  1.0000
  H   H15       1.0  0.39838930860218374  0.6325386467890226  0.8742146988048773  1.0000
  H   H16       1.0  0.45644774224938817  0.369595110117082  0.7396274851727682  1.0000
  H   H17       1.0  0.4504930227144329  0.6293614827082552  0.7360956599084503  1.0000
  H   H18       1.0  0.3944746679917372  0.37010162737099256  0.1204244545542181  1.0000
  H   H19       1.0  0.41094926288703704  0.6313087170282543  0.12580641402780654  1.0000
  H   H20       1.0  0.026620202966668692  0.5322297506621539  0.7230202873356006  1.0000
  H   H21       1.0  0.16382102036948962  0.5924661890731572  0.7164033733255124  1.0000
  H   H22       1.0  0.1736815700173224  0.48985930312871795  0.7476966802721493  1.0000
  H   H23       1.0  0.44524014940481754  0.3665263488187947  0.2592727625441924  1.0000
  H   H24       1.0  0.9616334745361712  0.7007679269714516  0.5669395094515579  1.0000
  H   H25       1.0  0.0990617135725387  0.7411030789908962  0.6086461222025292  1.0000
  H   H26       1.0  0.007281589785115703  0.6722114984731462  0.6612080317242642  1.0000
  H   H27       1.0  0.46478379958923455  0.6260177083346505  0.2642556564351821  1.0000
  H   H28       1.0  0.3493666710145789  0.1379441971581983  0.42223202217887484  1.0000
  H   H29       1.0  0.33450911657524074  0.8618862342615828  0.4322796785940142  1.0000
  H   H30       1.0  0.36310261819148343  0.2904338238479127  0.4266547630384991  1.0000
  H   H31       1.0  0.3475170810881636  0.7090637689356567  0.4354839508137758  1.0000
  H   H32       1.0  0.6515589206618629  0.2834676036162166  0.5809221502911797  1.0000
  C   C1        1.0  0.4920952997322061  0.49364820099127377  0.3523920263400199  1.0000
  C   C2        1.0  0.38365617271113467  0.502622103483148  0.034077984722330305  1.0000
  C   C3        1.0  0.40884357467060545  0.4260586077561825  0.1523087276981201  1.0000
  C   C4        1.0  0.418464543329506  0.5734090867079046  0.1552352934833152  1.0000
  C   C5        1.0  0.4374545179817062  0.42401424803473026  0.2292215742432901  1.0000
  C   C6        1.0  0.44823749602060303  0.5705979967524114  0.2319736651359179  1.0000
  C   C7        1.0  0.4591350749878417  0.49604550592861335  0.2696399175140556  1.0000
  C   C8        1.0  0.2729315067287246  0.5032945358270168  0.4994957599463135  1.0000
  C   C9        1.0  0.40058310050964974  0.5009258254590421  0.11370989065530779  1.0000
  C   C10       1.0  0.4176661973302061  0.1678783122668364  0.4579989113788868  1.0000
  C   C11       1.0  0.4096625459821298  0.8312574632081322  0.462010111337726  1.0000
  C   C12       1.0  0.9421841633597482  0.5285287293906863  0.577625411381092  1.0000
  C   C13       1.0  0.4246009855635506  0.25188600054490007  0.46018239336823535  1.0000
  C   C14       1.0  0.4167663122549214  0.7471575084564819  0.4628552590069361  1.0000
  C   C15       1.0  0.5870379244984393  0.24807946362219008  0.5467312468441747  1.0000
  C   C16       1.0  0.5966365652195834  0.7494653938686683  0.5351482044312377  1.0000
  C   C17       1.0  0.5869575107947683  0.1639160034219387  0.5478867702168557  1.0000
  C   C18       1.0  0.5959448567723699  0.8335740609813342  0.5379557596050972  1.0000
  C   C19       1.0  0.5007023030627593  0.1219281820172071  0.5025011764108386  1.0000
  C   C20       1.0  0.5009317675067352  0.8764021231920367  0.5002781842898402  1.0000
  C   C21       1.0  0.49847722743257367  0.036152873491012406  0.501597351342916  1.0000
  C   C22       1.0  0.4983822171825453  0.9621952478548934  0.5009098979534343  1.0000
  C   C23       1.0  0.4124485320914176  0.4275015268859335  0.8461804694411086  1.0000
  C   C24       1.0  0.494608487229904  0.49816660280492914  0.6485143100607758  1.0000
  C   C25       1.0  0.7512017757510846  0.5006823908300646  0.5016216726017647  1.0000
  C   C26       1.0  0.08446997318169021  0.4144616070067713  0.4958550928696397  1.0000
  C   C27       1.0  0.07877743429538951  0.5496701246780447  0.4317497737464251  1.0000
  C   C28       1.0  0.9434188449092178  0.4135754583885785  0.4852322811064552  1.0000
  C   C29       1.0  0.9375109197466855  0.5567199380422281  0.4380811159247386  1.0000
  C   C30       1.0  0.0830482230116516  0.5420874232689458  0.5743030867398886  1.0000
  C   C31       1.0  0.13207228068809232  0.5022806651436441  0.49983012322341835  1.0000
  C   C32       1.0  0.891646180552641  0.498819491695663  0.5003136972575746  1.0000
  C   C33       1.0  0.1253715628175982  0.5312763605089756  0.7088657448525666  1.0000
  C   C34       1.0  0.4107206040664337  0.5750387922352829  0.8444942709315626  1.0000
  C   C35       1.0  0.041281803639194  0.6868046963207206  0.6042351455896053  1.0000
  C   C36       1.0  0.4435251556721412  0.4266159553651931  0.7699917942793492  1.0000
  C   C37       1.0  0.4405383117885364  0.5734108283614389  0.7681312858728049  1.0000
  C   C38       1.0  0.45961453187295137  0.4994177742588377  0.7304780443664072  1.0000
  C   C39       1.0  0.39862599818197714  0.5019234379281701  0.8852770800746654  1.0000
  C   C40       1.0  0.3826398158273109  0.5028437628325478  0.9647848148657302  1.0000
  N   N1        1.0  0.5077705464809698  0.2910661865774387  0.503544171262412  1.0000
  N   N2        1.0  0.5088748165970074  0.7072236370109053  0.4983437701047392  1.0000
  O   O1        1.0  0.4824735152121137  0.4255435871462296  0.3858265016282587  1.0000
  O   O2        1.0  0.11867640318701693  0.6256931663784968  0.5731549531186886  1.0000
  O   O3        1.0  0.5262506410668026  0.56000053671697  0.3831981197483998  1.0000
  O   O4        1.0  0.3277647887857285  0.4367123351788252  0.5142156889349536  1.0000
  O   O5        1.0  0.3256669391862985  0.5695139439458501  0.48311459899185394  1.0000
  O   O6        1.0  0.5263249149553246  0.43015682872773914  0.6199741491568387  1.0000
  O   O7        1.0  0.48933774945667363  0.5656841556237353  0.6135389584784363  1.0000
  O   O8        1.0  0.6950594808100166  0.43396689562092666  0.4914455208033246  1.0000
  O   O9        1.0  0.7000654199560616  0.5694841880821073  0.5123721553653127  1.0000
  O   O10       1.0  0.14651159654414414  0.501074335816007  0.6344051938749118  1.0000
