data_image0
_chemical_formula_structural       Mn4H24C16O24
_chemical_formula_sum              "Mn4 H24 C16 O24"
_cell_length_a       7.970739099034037
_cell_length_b       9.161053883205051
_cell_length_c       8.88277833817311
_cell_angle_alpha    90.00070110497506
_cell_angle_beta     89.99986431596521
_cell_angle_gamma    90.00030971488118

_space_group_name_H-M_alt    "P 1"
_space_group_IT_number       1

loop_
  _space_group_symop_operation_xyz
  'x, y, z'

loop_
  _atom_site_type_symbol
  _atom_site_label
  _atom_site_symmetry_multiplicity
  _atom_site_fract_x
  _atom_site_fract_y
  _atom_site_fract_z
  _atom_site_occupancy
  Mn  Mn1       1.0  0.8946321057058239  0.9310752341305033  0.39124625574179833  1.0000
  Mn  Mn2       1.0  0.6053719963016775  0.0689223571808455  0.8912434723416214  1.0000
  Mn  Mn3       1.0  0.39463815100746297  0.5689194302067763  0.6087541481407472  1.0000
  Mn  Mn4       1.0  0.10535404615605158  0.4310724747044503  0.10876362181800661  1.0000
  H   H1        1.0  0.9652094150374635  0.6477617020360356  0.35376963496801755  1.0000
  H   H2        1.0  0.5347947870266623  0.35224090187961815  0.853769444299566  1.0000
  H   H3        1.0  0.4652071000252888  0.8522365658775185  0.6462294949266721  1.0000
  H   H4        1.0  0.03479001547771081  0.1477590590006486  0.14622879193259317  1.0000
  H   H5        1.0  0.9939656386880953  0.6575542735028251  0.5312783174787941  1.0000
  H   H6        1.0  0.5060293875520541  0.34244449852216263  0.03127562514303861  1.0000
  H   H7        1.0  0.4939725182587153  0.842444128427914  0.468720752005531  1.0000
  H   H8        1.0  0.006027500139445899  0.15755969462949082  0.9687215457596853  1.0000
  H   H9        1.0  0.23294290016184496  0.9150567903280586  0.5436788871595937  1.0000
  H   H10       1.0  0.26706201663104406  0.08493870764789341  0.0436802819736144  1.0000
  H   H11       1.0  0.732945802117399  0.584943670021282  0.45631847906423667  1.0000
  H   H12       1.0  0.7670593807887014  0.4150623355494573  0.956319717940808  1.0000
  H   H13       1.0  0.15846736158543703  0.005403856967518499  0.7651219658416794  1.0000
  H   H14       1.0  0.34153821865793793  0.9945953638031071  0.26512678698995273  1.0000
  H   H15       1.0  0.6584734232690294  0.49459013073187214  0.23487263324935978  1.0000
  H   H16       1.0  0.8415323507503414  0.5054056026023728  0.7348793573363681  1.0000
  H   H17       1.0  0.140616898167238  0.2513916036684023  0.5333041733188467  1.0000
  H   H18       1.0  0.35937675500401406  0.7485983131229262  0.0333058570658693  1.0000
  H   H19       1.0  0.6406170348697983  0.24860994192154343  0.46669721796377683  1.0000
  H   H20       1.0  0.8593755744420263  0.7513972785352864  0.9667013755262703  1.0000
  H   H21       1.0  0.09934705454586627  0.2867684893757171  0.7250698912280955  1.0000
  H   H22       1.0  0.4006548688737935  0.7132346217473967  0.22506653945947624  1.0000
  H   H23       1.0  0.5993449721630456  0.2132295891643281  0.2749304609471396  1.0000
  H   H24       1.0  0.900649403634567  0.7867677116563174  0.7749316002850579  1.0000
  C   C1        1.0  0.0961999005848639  0.056481316909930995  0.6675909313627104  1.0000
  C   C2        1.0  0.4038009216716957  0.9435167449306264  0.16758709763831092  1.0000
  C   C3        1.0  0.596200363302671  0.4435189301127594  0.3324071758862104  1.0000
  C   C4        1.0  0.9038026411908291  0.5564834200079716  0.8324132870246219  1.0000
  C   C5        1.0  0.9083391084606658  0.05994042947292401  0.7003377371579236  1.0000
  C   C6        1.0  0.5916617394244169  0.9400614429239483  0.20033676705335784  1.0000
  C   C7        1.0  0.40833325092873446  0.4400612720209906  0.29966084024199097  1.0000
  C   C8        1.0  0.09166847336455669  0.5599427254278453  0.7996631474942932  1.0000
  C   C9        1.0  0.1646357229608029  0.21173533324571991  0.6482713060725517  1.0000
  C   C10       1.0  0.3353664054649386  0.7882668653805779  0.14827241430089802  1.0000
  C   C11       1.0  0.6646313968598105  0.28826304950889187  0.35172778319623893  1.0000
  C   C12       1.0  0.8353677922744678  0.7117340722829226  0.8517337429813241  1.0000
  C   C13       1.0  0.3500363318429649  0.2227543677112962  0.6852258347832105  1.0000
  C   C14       1.0  0.14996695252240497  0.7772493616051789  0.18522944513757272  1.0000
  C   C15       1.0  0.8500295261488943  0.2772514284093647  0.31477173933277675  1.0000
  C   C16       1.0  0.6499685070586168  0.7227463458204539  0.8147737242156128  1.0000
  O   O1        1.0  0.8062895684377195  0.0090961313786551  0.6052298934700674  1.0000
  O   O2        1.0  0.693712787929364  0.9909035193315535  0.10522259507861523  1.0000
  O   O3        1.0  0.3062850303784827  0.49090072834034976  0.39477790444102834  1.0000
  O   O4        1.0  0.19371267623058225  0.5091000329354003  0.8947737277955883  1.0000
  O   O5        1.0  0.9128641915097686  0.6836390242658157  0.4493008374878684  1.0000
  O   O6        1.0  0.5871334825805902  0.3163603484202113  0.949298958967681  1.0000
  O   O7        1.0  0.412864415752452  0.8163633660497852  0.5506984023796448  1.0000
  O   O8        1.0  0.08713420936719267  0.1836343984621607  0.050698041516142205  1.0000
  O   O9        1.0  0.12387665683443316  0.9693810316176441  0.5368717892284351  1.0000
  O   O10       1.0  0.3761207505905801  0.030610019116551295  0.036867767259337804  1.0000
  O   O11       1.0  0.6238804545818509  0.5306178289255001  0.4631235545268312  1.0000
  O   O12       1.0  0.8761247101448005  0.4693860743778871  0.9631297519946928  1.0000
  O   O13       1.0  0.8632378966284618  0.11431036945288038  0.8273434352461211  1.0000
  O   O14       1.0  0.6367538301022149  0.8856941035755526  0.327340559506915  1.0000
  O   O15       1.0  0.36323329181852415  0.38569112188523047  0.17265523688485027  1.0000
  O   O16       1.0  0.13676500775060424  0.6143113664535278  0.6726547572341418  1.0000
  O   O17       1.0  0.42603890798449834  0.1068292398850161  0.7226232334481538  1.0000
  O   O18       1.0  0.0739642765585771  0.8931771169330743  0.22262508699081002  1.0000
  O   O19       1.0  0.9260241468673909  0.3931769104007685  0.2773798099068614  1.0000
  O   O20       1.0  0.5739689678179045  0.6068226026389851  0.77737486470393  1.0000
  O   O21       1.0  0.42113678062123233  0.3476058854250752  0.6845567113113306  1.0000
  O   O22       1.0  0.07886525093594088  0.6523978359629155  0.18456452654088207  1.0000
  O   O23       1.0  0.9211392270123396  0.1523969672389427  0.3154317072409186  1.0000
  O   O24       1.0  0.5788638227787855  0.847600814887997  0.8154410437286972  1.0000
