data_image0
_chemical_formula_structural       Dy2H36C36N8O16
_chemical_formula_sum              "Dy2 H36 C36 N8 O16"
_cell_length_a       9.865524729420008
_cell_length_b       10.307093882680807
_cell_length_c       11.016593067947657
_cell_angle_alpha    77.3450488660208
_cell_angle_beta     76.48913779310237
_cell_angle_gamma    65.72790853673418

_space_group_name_H-M_alt    "P 1"
_space_group_IT_number       1

loop_
  _space_group_symop_operation_xyz
  'x, y, z'

loop_
  _atom_site_type_symbol
  _atom_site_label
  _atom_site_symmetry_multiplicity
  _atom_site_fract_x
  _atom_site_fract_y
  _atom_site_fract_z
  _atom_site_occupancy
  Dy  Dy1       1.0  0.05552634829379601  0.7719821140531451  0.1761591675093257  1.0000
  Dy  Dy2       1.0  0.944473461682719  0.22801768889721785  0.8238409082280639  1.0000
  H   H1        1.0  0.9667249400867493  0.38117262175376254  0.06246352317340606  1.0000
  H   H2        1.0  0.03327652648876979  0.6188282605212336  0.9375368869778952  1.0000
  H   H3        1.0  0.07797944987677134  0.46217557616528643  0.36462487020441603  1.0000
  H   H4        1.0  0.9220205484695827  0.5378263758385983  0.6353747162464882  1.0000
  H   H5        1.0  0.28341129242278373  0.8529500874616431  0.7486691259060478  1.0000
  H   H6        1.0  0.7165887059235773  0.1470518645422416  0.25133046054485664  1.0000
  H   H7        1.0  0.44796779849995977  0.6333537413930728  0.0658796271315509  1.0000
  H   H8        1.0  0.552032199846394  0.36664821061080494  0.9341199593193606  1.0000
  H   H9        1.0  0.705978450936229  0.0824526580797738  0.494657075918269  1.0000
  H   H10       1.0  0.2940205551858098  0.9175439214397303  0.5053438430451394  1.0000
  H   H11       1.0  0.5514200205885659  0.7981539509187385  0.3852564002200792  1.0000
  H   H12       1.0  0.4485791753884029  0.2018447724081298  0.6147431225107667  1.0000
  H   H13       1.0  0.565917103441798  0.5896759440847177  0.27454721207566724  1.0000
  H   H14       1.0  0.43408393750401325  0.41032600762030574  0.7254521557826124  1.0000
  H   H15       1.0  0.24341789237693945  0.49627249142552177  0.5815073775680375  1.0000
  H   H16       1.0  0.7565818657393494  0.5037326895542265  0.4184924911955575  1.0000
  H   H17       1.0  0.392752395006063  0.871623546785209  0.19115566113592303  1.0000
  H   H18       1.0  0.6072457554012588  0.12837518733282852  0.8088458940797236  1.0000
  H   H19       1.0  0.3368968027884521  0.1514865604226472  0.8396509825655087  1.0000
  H   H20       1.0  0.6631022077888745  0.8485100033583918  0.1603472155596464  1.0000
  H   H21       1.0  0.9819536795994709  0.25330763669166606  0.45019965774015697  1.0000
  H   H22       1.0  0.01804821557595911  0.7466921656609883  0.5497999808119828  1.0000
  H   H23       1.0  0.15921301202054386  0.184603063675894  0.3496117456141761  1.0000
  H   H24       1.0  0.8407878405554284  0.8153967389756077  0.6503881115305886  1.0000
  H   H25       1.0  0.006441810232658404  0.14852358918633257  0.2270612577775637  1.0000
  H   H26       1.0  0.993559040858216  0.8514762187113264  0.7729395063132856  1.0000
  H   H27       1.0  0.8416392420247688  0.2924915219792226  0.283406097733632  1.0000
  H   H28       1.0  0.15836179892104232  0.7075104297258007  0.7165932701246545  1.0000
  H   H29       1.0  0.5344540543467319  0.8600953445837048  0.7338476717912243  1.0000
  H   H30       1.0  0.4655474137138853  0.13990553244513387  0.26615183141398546  1.0000
  H   H31       1.0  0.5814806831396664  0.6928832411396472  0.6821509860537842  1.0000
  H   H32       1.0  0.41851931520668717  0.30711871086423764  0.31784860039712015  1.0000
  H   H33       1.0  0.6732669833426428  0.5673882883912073  0.8726021550379597  1.0000
  H   H34       1.0  0.326735100202626  0.432613663014962  0.12739699422770198  1.0000
  H   H35       1.0  0.6381979739253083  0.7348647615480246  0.9188010447115715  1.0000
  H   H36       1.0  0.36179993773704666  0.2651371962997188  0.08119988587067442  1.0000
  C   C1        1.0  0.6438796255295004  0.9331535349334101  0.4325954620970122  1.0000
  C   C2        1.0  0.35611938059253134  0.06684304458609348  0.567405456866396  1.0000
  C   C3        1.0  0.6151839753460706  0.0467503918684784  0.49784935846466266  1.0000
  C   C4        1.0  0.38481521914579986  0.9532483367045471  0.5021510712122746  1.0000
  C   C5        1.0  0.5277543298518241  0.8867932404673268  0.4356477529997278  1.0000
  C   C6        1.0  0.4722448646400537  0.11320548810569869  0.5643526766772097  1.0000
  C   C7        1.0  0.7943356549463445  0.8674974818793544  0.35367714838883296  1.0000
  C   C8        1.0  0.20566353954552602  0.1325012466936784  0.6463232812881045  1.0000
  C   C9        1.0  0.3928190123714971  0.5496776321666843  0.4195634807681258  1.0000
  C   C10       1.0  0.6071811743446958  0.45032646889071504  0.5804356163963078  1.0000
  C   C11       1.0  0.5381202272393396  0.5496613931782691  0.3734094276680579  1.0000
  C   C12       1.0  0.4618789168774029  0.45034270817799177  0.6265898880890005  1.0000
  C   C13       1.0  0.3551872065927171  0.49918524956585486  0.5467624620120688  1.0000
  C   C14       1.0  0.6448134057531903  0.5008177820615174  0.4532376774453794  1.0000
  C   C15       1.0  0.27793187844564937  0.6069079738386093  0.3338716592644743  1.0000
  C   C16       1.0  0.7220681213858031  0.3930939729191181  0.6661270202403528  1.0000
  C   C17       1.0  0.35070205032516094  0.0129953895251589  0.01750292660562987  1.0000
  C   C18       1.0  0.6492965316522545  0.9870022541782291  0.9824960431186796  1.0000
  C   C19       1.0  0.4411706045159818  0.9280274044951183  0.10865519238370783  1.0000
  C   C20       1.0  0.5588279744912442  0.071970249700577  0.8913455912327775  1.0000
  C   C21       1.0  0.4097862137383074  0.08520173909310098  0.9088100431141864  1.0000
  C   C22       1.0  0.5902142635830784  0.914793760205207  0.09118988565743537  1.0000
  C   C23       1.0  0.1923368757648944  0.022627896701912696  0.0336283568726756  1.0000
  C   C24       1.0  0.8076637884412321  0.9773697568960744  0.9663719895585672  1.0000
  C   C25       1.0  0.03049149897397292  0.45486191048350827  0.1929788333756335  1.0000
  C   C26       1.0  0.969508927972292  0.5451389615980278  0.8070199814761168  1.0000
  C   C27       1.0  0.04285665314521478  0.265442239221656  0.3543845932521492  1.0000
  C   C28       1.0  0.957145242030215  0.7345575631309912  0.6456150452999907  1.0000
  C   C29       1.0  0.9644576548898199  0.25640547624684734  0.2528186445639733  1.0000
  C   C30       1.0  0.035543196201054214  0.7435943316508115  0.7471821195268759  1.0000
  C   C31       1.0  0.329242409228975  0.7266682686936506  0.9181433573761169  1.0000
  C   C32       1.0  0.6707571620025731  0.2733347579864187  0.08185609372786466  1.0000
  C   C33       1.0  0.5237909532183663  0.7552835684837478  0.7610584763300849  1.0000
  C   C34       1.0  0.4762090436428962  0.2447183887662945  0.2389420170669111  1.0000
  C   C35       1.0  0.5878830356137571  0.6751263620517919  0.8845662380282846  1.0000
  C   C36       1.0  0.41211738984740975  0.32487451527590144  0.11543348376955008  1.0000
  N   N1        1.0  0.00037415964622770974  0.35893295386066626  0.1482805097787008  1.0000
  N   N2        1.0  0.9996277340441039  0.6410668537381381  0.8517200357195235  1.0000
  N   N3        1.0  0.043203823998510436  0.41050638766624553  0.3166109828196397  1.0000
  N   N4        1.0  0.9567991137763697  0.5894934143875473  0.6833884371398752  1.0000
  N   N5        1.0  0.36538320281122344  0.77180345053344  0.7929528910029261  1.0000
  N   N6        1.0  0.6346174095346838  0.22819958109392507  0.20704724845451478  1.0000
  N   N7        1.0  0.4551466751719601  0.666393026626821  0.9711646754456849  1.0000
  N   N8        1.0  0.5448546060039162  0.33360569610233876  0.028834410099918308  1.0000
  O   O1        1.0  0.829682709886562  0.7483042562474084  0.31504898479727916  1.0000
  O   O2        1.0  0.17031691320521253  0.2516933924032756  0.6849506732804896  1.0000
  O   O3        1.0  0.8826029120117411  0.9370396290041043  0.3216857242266755  1.0000
  O   O4        1.0  0.1173962839652276  0.06295909432276402  0.6783137985041704  1.0000
  O   O5        1.0  0.3163685269684535  0.6460402095141616  0.21692308514333555  1.0000
  O   O6        1.0  0.683632325607519  0.3539595931373469  0.7830767720014221  1.0000
  O   O7        1.0  0.14088780636183873  0.6213041355823137  0.37666597013526365  1.0000
  O   O8        1.0  0.8591121919845223  0.3786978164215711  0.6233336163156408  1.0000
  O   O9        1.0  0.14328299680457954  0.9527390335904257  0.13167694898600493  1.0000
  O   O10       1.0  0.8567161976872913  0.0472596949825999  0.8683234806909326  1.0000
  O   O11       1.0  0.1166569026931015  0.099126671714707  0.9474027740126728  1.0000
  O   O12       1.0  0.8833416807694194  0.9008709667425238  0.05259528876555195  1.0000
  O   O13       1.0  0.047602894405684944  0.5669143344164241  0.1281295721582083  1.0000
  O   O14       1.0  0.9523969155708298  0.4330854685339389  0.8718705035791814  1.0000
  O   O15       1.0  0.19829363247787055  0.7380485274227555  0.9731150088249689  1.0000
  O   O16       1.0  0.8017063673535888  0.2619534193349722  0.026883670679858016  1.0000
