data_image0
_chemical_formula_structural       Cu6H84C120N24O24
_chemical_formula_sum              "Cu6 H84 C120 N24 O24"
_cell_length_a       13.226131876788667
_cell_length_b       13.419992881255574
_cell_length_c       21.015649930341848
_cell_angle_alpha    89.99990154848804
_cell_angle_beta     107.74823636492403
_cell_angle_gamma    89.9993581770574

_space_group_name_H-M_alt    "P 1"
_space_group_IT_number       1

loop_
  _space_group_symop_operation_xyz
  'x, y, z'

loop_
  _atom_site_type_symbol
  _atom_site_label
  _atom_site_symmetry_multiplicity
  _atom_site_fract_x
  _atom_site_fract_y
  _atom_site_fract_z
  _atom_site_occupancy
  Cu  Cu1       1.0  0.7111593503069288  0.5160866052329353  0.4946039596135845  1.0000
  Cu  Cu2       1.0  0.28883566190087623  0.016090783208014197  0.005400286802164084  1.0000
  Cu  Cu3       1.0  0.28883256008507635  0.4839108489855305  0.5053946907492487  1.0000
  Cu  Cu4       1.0  0.7111681134712243  0.983908906408942  0.9946030948739657  1.0000
  Cu  Cu5       1.0  0.49999966199271745  0.4999982090537144  7.312100293897428e-07  1.0000
  Cu  Cu6       1.0  0.500005988751184  6.285961489999998e-06  0.49999945610296936  1.0000
  H   H1        1.0  0.7374661144298997  0.3893153809078526  0.3051162164875618  1.0000
  H   H2        1.0  0.6688823225234088  0.30767725475494245  0.19505585324834118  1.0000
  H   H3        1.0  0.4574515961179202  0.1310329505545695  0.2697260615942695  1.0000
  H   H4        1.0  0.5289142468182889  0.2125264990626263  0.3806878270642428  1.0000
  H   H5        1.0  0.37491212019967435  0.07175408033935328  0.15927998604026775  1.0000
  H   H6        1.0  0.4901231308976933  0.15144770021546344  0.9996201941764081  1.0000
  H   H7        1.0  0.8206626568623677  0.7317005903689021  0.7195726885935156  1.0000
  H   H8        1.0  0.8044686736392564  0.7138242302129568  0.8341119655255508  1.0000
  H   H9        1.0  0.5263954029702163  0.5310321956117717  0.7540190529554633  1.0000
  H   H10       1.0  0.5536696214106487  0.53798001910409  0.6426560238137495  1.0000
  H   H11       1.0  0.6777125051926022  0.6751023459053939  0.022872473634009766  1.0000
  H   H12       1.0  0.5395864023629431  0.4813702682266196  0.8608878756977912  1.0000
  H   H13       1.0  0.6788183549035125  0.6106564895961311  0.1999185518295262  1.0000
  H   H14       1.0  0.8089191726543634  0.6321601090788106  0.31159887243611445  1.0000
  H   H15       1.0  0.9825900099630831  0.37641612201771574  0.27604690187638425  1.0000
  H   H16       1.0  0.845781504232889  0.35209659038851265  0.1659382506787138  1.0000
  H   H17       1.0  0.1289943969871317  0.43634259308984713  0.3608490588198163  1.0000
  H   H18       1.0  0.08624975659269302  0.6113002641169275  0.5170508652961912  1.0000
  H   H19       1.0  0.5959781790521816  0.25023661431215055  0.09983586308042895  1.0000
  H   H20       1.0  0.7310623918616131  0.7351986133033179  0.9242190136283737  1.0000
  H   H21       1.0  0.9099353980464077  0.60817802663162  0.4222167196165427  1.0000
  H   H22       1.0  0.262528879200687  0.8893139683424136  0.19488379632469582  1.0000
  H   H23       1.0  0.33111133342621457  0.8076755548323075  0.30494493865016625  1.0000
  H   H24       1.0  0.5425547167195789  0.6310394927167452  0.2302750601763107  1.0000
  H   H25       1.0  0.4710886088653155  0.7125318727149406  0.11931346875392272  1.0000
  H   H26       1.0  0.6250885193485589  0.5717497456643983  0.34072531279643664  1.0000
  H   H27       1.0  0.5098643305168906  0.6514499439560311  0.5003791561155919  1.0000
  H   H28       1.0  0.17932620257425927  0.23169192284198198  0.7804235168358031  1.0000
  H   H29       1.0  0.19552596631916697  0.2138164011068113  0.6658858819028095  1.0000
  H   H30       1.0  0.4736006828597326  0.03101807781850849  0.7459869020761896  1.0000
  H   H31       1.0  0.44631686523619163  0.0379674301608972  0.8573470687662376  1.0000
  H   H32       1.0  0.32228761919815707  0.1751050174750617  0.4771307024914504  1.0000
  H   H33       1.0  0.46041587495824393  0.9813637914639698  0.6391111824482534  1.0000
  H   H34       1.0  0.32119145712668745  0.11066257883581439  0.30007995564277207  1.0000
  H   H35       1.0  0.191087184689998  0.13217090469391476  0.18839892583717693  1.0000
  H   H36       1.0  0.017417049952527502  0.8764330346481302  0.22395599331357363  1.0000
  H   H37       1.0  0.15422745931438442  0.8521094704174388  0.3340650494352885  1.0000
  H   H38       1.0  0.871016655758446  0.9363501442661855  0.13915408409179258  1.0000
  H   H39       1.0  0.9137525997111525  0.11130001994067838  0.9829467244927766  1.0000
  H   H40       1.0  0.40401706770705914  0.7502390851491753  0.4001624540893187  1.0000
  H   H41       1.0  0.2689342503841133  0.23519241325427487  0.5757849168416482  1.0000
  H   H42       1.0  0.0900617366372742  0.1081857486340994  0.07777975349072357  1.0000
  H   H43       1.0  0.2625258128123065  0.6106910151941987  0.6948814854847211  1.0000
  H   H44       1.0  0.33111041546898434  0.692325415559125  0.8049410577157301  1.0000
  H   H45       1.0  0.5425530492124437  0.8689585423367844  0.7302732097730665  1.0000
  H   H46       1.0  0.47107849117410444  0.7874761712514342  0.6193090838998285  1.0000
  H   H47       1.0  0.6250932343584952  0.9282448641109226  0.8407241845419048  1.0000
  H   H48       1.0  0.5098703417381998  0.8485542249334298  0.0003801934567490978  1.0000
  H   H49       1.0  0.17930633416956715  0.268311767127841  0.2804157080916524  1.0000
  H   H50       1.0  0.1955090239909438  0.28619334332936575  0.1658795846580786  1.0000
  H   H51       1.0  0.4735995220831057  0.4689622779507302  0.24598923640089496  1.0000
  H   H52       1.0  0.4463181847330304  0.46200104167789385  0.35734942677701276  1.0000
  H   H53       1.0  0.3222881033677183  0.3248965985737441  0.9771298044211815  1.0000
  H   H54       1.0  0.4604063186824377  0.5186383633414238  0.13910998362918284  1.0000
  H   H55       1.0  0.32117917144459807  0.3893327678678701  0.8000778807514874  1.0000
  H   H56       1.0  0.19107759369264704  0.36782914839191966  0.6883955060381337  1.0000
  H   H57       1.0  0.017401072881767708  0.6235679193794966  0.7239534879004094  1.0000
  H   H58       1.0  0.15421439222362918  0.6478904316115219  0.8340602381236761  1.0000
  H   H59       1.0  0.8709974796463699  0.5636459192439958  0.6391514883075186  1.0000
  H   H60       1.0  0.913743015240499  0.3886986804148336  0.48294414892685456  1.0000
  H   H61       1.0  0.4040177173075251  0.7497653108254452  0.9001626256943278  1.0000
  H   H62       1.0  0.26893662902944737  0.2648055472832381  0.07578294969947308  1.0000
  H   H63       1.0  0.09005424079159506  0.3918201727644116  0.5777752942376393  1.0000
  H   H64       1.0  0.7374701924055744  0.1106916825610327  0.8051153218784959  1.0000
  H   H65       1.0  0.6688877043295705  0.19233531216719502  0.6950560762912799  1.0000
  H   H66       1.0  0.457437987456224  0.3689631775952335  0.7697237475356854  1.0000
  H   H67       1.0  0.5289009284938757  0.28747079761610905  0.8806842353357492  1.0000
  H   H68       1.0  0.3749033656567917  0.4282514343369002  0.6592747601204321  1.0000
  H   H69       1.0  0.4901291336212879  0.3485586876042459  0.4996217056921138  1.0000
  H   H70       1.0  0.820696599064803  0.7683070215052578  0.21958506401472977  1.0000
  H   H71       1.0  0.804496033019021  0.7861870141858059  0.33412301576757386  1.0000
  H   H72       1.0  0.526399123603021  0.9689540410171347  0.25401569285689607  1.0000
  H   H73       1.0  0.5536845288522585  0.9620061789792229  0.14265584088175837  1.0000
  H   H74       1.0  0.6777169161314802  0.8249013785470748  0.5228747332790105  1.0000
  H   H75       1.0  0.5395967169305607  0.0186388787347127  0.36088918829973676  1.0000
  H   H76       1.0  0.6788236175923501  0.8893512687083811  0.6999151969172172  1.0000
  H   H77       1.0  0.8089302292210547  0.8678414525200181  0.8115990697369919  1.0000
  H   H78       1.0  0.9825946465671649  0.12358528384336856  0.7760499102903392  1.0000
  H   H79       1.0  0.8457898108180759  0.14791182867016056  0.6659410073009864  1.0000
  H   H80       1.0  0.12899581769000434  0.06366519359212218  0.8608529252504479  1.0000
  H   H81       1.0  0.08625684231289912  0.8886959438662104  0.017051594271357794  1.0000
  H   H82       1.0  0.5959811677865688  0.24977029154069186  0.5998388776830408  1.0000
  H   H83       1.0  0.7310654882953928  0.7648028054404177  0.42422147154445594  1.0000
  H   H84       1.0  0.909946936873439  0.8918191570615261  0.9222169853370442  1.0000
  C   C1        1.0  0.6769555757106502  0.33177024422160156  0.29730881101480106  1.0000
  C   C2        1.0  0.637834174267539  0.2859426445529181  0.23535348118218727  1.0000
  C   C3        1.0  0.5562328403567492  0.21496766815308624  0.2237640186186382  1.0000
  C   C4        1.0  0.5199204667003913  0.1868336639248085  0.27761045475271817  1.0000
  C   C5        1.0  0.5595758835438644  0.23199061926886344  0.3396844913741999  1.0000
  C   C6        1.0  0.6366685390173573  0.30723239115891937  0.3496521240127918  1.0000
  C   C7        1.0  0.6659226057520583  0.36709581997813245  0.4125161340794959  1.0000
  C   C8        1.0  0.507874256526442  0.1742250761127053  0.15735749424673165  1.0000
  C   C9        1.0  0.42293801417429944  0.109683072772107  0.13322370052526367  1.0000
  C   C10       1.0  0.47846941533950377  0.1483743890415781  0.048470480526766814  1.0000
  C   C11       1.0  0.7575982422583254  0.6864490465107378  0.7281535789991336  1.0000
  C   C12       1.0  0.7462576032440253  0.6782448564543843  0.7918234734328418  1.0000
  C   C13       1.0  0.663285624371504  0.6218481102923548  0.8024163635386184  1.0000
  C   C14       1.0  0.5931867167456133  0.5724737291315023  0.7473889722817686  1.0000
  C   C15       1.0  0.607056215422837  0.5773738781058881  0.6848161569930082  1.0000
  C   C16       1.0  0.688803970441974  0.6350053560334172  0.6742570640616274  1.0000
  C   C17       1.0  0.7057760729779403  0.635743047287626  0.6066950448851782  1.0000
  C   C18       1.0  0.6468299923588391  0.6112832904104906  0.8673312329131162  1.0000
  C   C19       1.0  0.6556294949107836  0.6395327555525299  0.9740213877039275  1.0000
  C   C20       1.0  0.5857000058571915  0.5428059263001898  0.8881507702405923  1.0000
  C   C21       1.0  0.7440729073689883  0.5581419168629438  0.21767879418020186  1.0000
  C   C22       1.0  0.8185324000237488  0.5704804774065407  0.2802336387894896  1.0000
  C   C23       1.0  0.9058880998321827  0.5060335786902214  0.3022189252171116  1.0000
  C   C24       1.0  0.9158153627313794  0.4278330854613229  0.259724609802852  1.0000
  C   C25       1.0  0.8397903279995734  0.4140802247962441  0.19811856099259015  1.0000
  C   C26       1.0  0.7526682314564256  0.47872607867453326  0.17647985119113932  1.0000
  C   C27       1.0  0.6672821656791754  0.45866850175774937  0.11183279021750536  1.0000
  C   C28       1.0  0.9873179051270426  0.5194384180572554  0.3661217111541856  1.0000
  C   C29       1.0  0.0897978660778378  0.4834434016534458  0.387656708615772  1.0000
  C   C30       1.0  0.07116917167051182  0.574172964501244  0.4692385056974968  1.0000
  C   C31       1.0  0.3230385525784315  0.8317681348879161  0.20269252307161872  1.0000
  C   C32       1.0  0.36216057480986313  0.7859384579146744  0.2646466003174693  1.0000
  C   C33       1.0  0.4437651953855451  0.714966265104664  0.2762377465659539  1.0000
  C   C34       1.0  0.48008192899979474  0.686835708910685  0.22239077900513135  1.0000
  C   C35       1.0  0.44042433780832374  0.7319947478386694  0.16031626017913675  1.0000
  C   C36       1.0  0.3633267356953667  0.8072329365787141  0.15034756168823543  1.0000
  C   C37       1.0  0.3340654729914263  0.8670998246644145  0.08748586421236126  1.0000
  C   C38       1.0  0.4921235316422141  0.6742252073650049  0.3426433163127171  1.0000
  C   C39       1.0  0.5770637540277832  0.6096799588936789  0.36677987560379666  1.0000
  C   C40       1.0  0.5215247142407834  0.6483746747790704  0.4515310616769737  1.0000
  C   C41       1.0  0.24239197358054557  0.1864374574272389  0.7718443741891717  1.0000
  C   C42       1.0  0.2537350668236158  0.17823329301010193  0.7081768790084336  1.0000
  C   C43       1.0  0.3367085722559366  0.1218348973607064  0.6975843554348696  1.0000
  C   C44       1.0  0.4068065083982192  0.07245736324863829  0.7526130376658526  1.0000
  C   C45       1.0  0.3929361099289181  0.07736347879311009  0.815188048345426  1.0000
  C   C46       1.0  0.31118529229599556  0.1349980828984911  0.8257426619488225  1.0000
  C   C47       1.0  0.2942203244717306  0.1357454892607635  0.8933060946007526  1.0000
  C   C48       1.0  0.35316749987953955  0.11127228425598899  0.6326711030495316  1.0000
  C   C49       1.0  0.3443700370435181  0.1395325361151549  0.5259798929796202  1.0000
  C   C50       1.0  0.4143008166619566  0.04280099149995209  0.6118489724546377  1.0000
  C   C51       1.0  0.2559383638387089  0.05815176052530548  0.2823210137896267  1.0000
  C   C52       1.0  0.18147475021586254  0.07049428612445038  0.21976486242924403  1.0000
  C   C53       1.0  0.09411748090774812  0.0060484190070298005  0.1977807655117302  1.0000
  C   C54       1.0  0.0841934106105597  0.9278492106930398  0.24027856676431003  1.0000
  C   C55       1.0  0.16021788939826828  0.914094605208433  0.3018811899181911  1.0000
  C   C56       1.0  0.2473407252606066  0.97873346968435  0.3235204488717612  1.0000
  C   C57       1.0  0.3327278201359434  0.9586688196462843  0.3881691641699872  1.0000
  C   C58       1.0  0.0126898491292664  0.019446872532085997  0.13388029869363285  1.0000
  C   C59       1.0  0.9102086309896863  0.9834505779529292  0.11234405024886475  1.0000
  C   C60       1.0  0.9288340123019412  0.07417587152251309  0.030756349930285917  1.0000
  C   C61       1.0  0.32303952681199644  0.6682346615481409  0.7026895203955943  1.0000
  C   C62       1.0  0.3621609367237753  0.7140600257467183  0.7646443760453675  1.0000
  C   C63       1.0  0.4437670166517833  0.7850320214901739  0.7762357311414261  1.0000
  C   C64       1.0  0.4800793987864936  0.8131622999345822  0.7223888208272765  1.0000
  C   C65       1.0  0.44042080663837185  0.7680105607072248  0.6603141547607689  1.0000
  C   C66       1.0  0.363322628243111  0.6927710243223401  0.6503435238582538  1.0000
  C   C67       1.0  0.3340613664001069  0.6329113213261124  0.5874809426770111  1.0000
  C   C68       1.0  0.4921271712188614  0.8257731232064882  0.8426435186077367  1.0000
  C   C69       1.0  0.5770657865699249  0.8903151265326485  0.8667782585926955  1.0000
  C   C70       1.0  0.5215264641215854  0.8516260457812165  0.9515289566247201  1.0000
  C   C71       1.0  0.24237863629339534  0.313552878740218  0.27183923641563  1.0000
  C   C72       1.0  0.2537256342840024  0.32176004938751385  0.20817012666010015  1.0000
  C   C73       1.0  0.3367062690831588  0.37815381486634436  0.19758323518988863  1.0000
  C   C74       1.0  0.40680349613612793  0.42751925414819414  0.2526155278024404  1.0000
  C   C75       1.0  0.3929308814010639  0.42261388909785313  0.315184394356663  1.0000
  C   C76       1.0  0.3111783972730109  0.3649853918277373  0.3257406463815683  1.0000
  C   C77       1.0  0.294205543175572  0.36424993605140804  0.39330013726013374  1.0000
  C   C78       1.0  0.35316508478685193  0.38872385082832744  0.13266852105407873  1.0000
  C   C79       1.0  0.3443695429127729  0.3604676792506821  0.025979627256866363  1.0000
  C   C80       1.0  0.4142934836676347  0.45719897947726895  0.11184866901307086  1.0000
  C   C81       1.0  0.2559285880772606  0.4418458502641229  0.7823184251977505  1.0000
  C   C82       1.0  0.18146277026762192  0.4295035639747908  0.7197608991637379  1.0000
  C   C83       1.0  0.09410384444417731  0.4939534433340355  0.6977778284171375  1.0000
  C   C84       1.0  0.0841820960271207  0.5721494655866052  0.7402756162864531  1.0000
  C   C85       1.0  0.16020402310198287  0.5859053069019139  0.8018772421599888  1.0000
  C   C86       1.0  0.2473292948868462  0.5212639239463428  0.8235165813884886  1.0000
  C   C87       1.0  0.3327193043126614  0.5413334233484406  0.8881658516951416  1.0000
  C   C88       1.0  0.01267640366504711  0.4805530748933221  0.6338764629222451  1.0000
  C   C89       1.0  0.9101948550788779  0.5165480913064044  0.6123411507429848  1.0000
  C   C90       1.0  0.928821184907541  0.4258237445717085  0.5307579332011156  1.0000
  C   C91       1.0  0.6769581291157679  0.16823826118579888  0.7973065972406699  1.0000
  C   C92       1.0  0.6378368753589501  0.21406495752532348  0.7353540999201298  1.0000
  C   C93       1.0  0.5562259042369038  0.28503789552930664  0.7237616947995702  1.0000
  C   C94       1.0  0.5199147189165458  0.3131647259059136  0.7776102380661309  1.0000
  C   C95       1.0  0.5595691940017602  0.2680079224707583  0.8396808081437679  1.0000
  C   C96       1.0  0.6366675392220459  0.19276749825231576  0.8496525091195433  1.0000
  C   C97       1.0  0.6659305418037959  0.13289017797043806  0.9125059859667597  1.0000
  C   C98       1.0  0.507869138721837  0.3257767177880098  0.6573573881485826  1.0000
  C   C99       1.0  0.42292732023706503  0.3903234565818395  0.6332209883240478  1.0000
  C   C100      1.0  0.4784703375473003  0.3516317213013025  0.5484701148525486  1.0000
  C   C101      1.0  0.7576252460158134  0.8135547805389931  0.22816452772288895  1.0000
  C   C102      1.0  0.7462797882182884  0.8217604352848296  0.2918306024503891  1.0000
  C   C103      1.0  0.6632983700150632  0.8781521245702494  0.30242012988708195  1.0000
  C   C104      1.0  0.5931980947630606  0.9275184813456574  0.24738860466541  1.0000
  C   C105      1.0  0.6070700385631228  0.9226175818874576  0.18481627962874814  1.0000
  C   C106      1.0  0.6888296050553677  0.864989684144028  0.1742624485861483  1.0000
  C   C107      1.0  0.705805669370598  0.86424972928458  0.10670216731806899  1.0000
  C   C108      1.0  0.6468370524406809  0.8887214441002628  0.367333384370461  1.0000
  C   C109      1.0  0.6556345067596255  0.8604708792799867  0.4740250686093857  1.0000
  C   C110      1.0  0.5857077807953176  0.9571986980928313  0.38815203406564064  1.0000
  C   C111      1.0  0.7440766601602818  0.941861341858882  0.7176769838936321  1.0000
  C   C112      1.0  0.8185410760549632  0.9295188162556298  0.7802328184258724  1.0000
  C   C113      1.0  0.9058958878130028  0.9939661736960234  0.8022207109469474  1.0000
  C   C114      1.0  0.915818345097847  0.0721676174883541  0.7597240175334931  1.0000
  C   C115      1.0  0.8397994230339733  0.08592222294050339  0.6981224958914677  1.0000
  C   C116      1.0  0.7526774570766506  0.021283358464650296  0.6764791266138983  1.0000
  C   C117      1.0  0.6672927689829393  0.041353224588519304  0.6118294608215603  1.0000
  C   C118      1.0  0.9873227004355487  0.9805639943896478  0.8661224429740667  1.0000
  C   C119      1.0  0.0898038847440219  0.016562524437354398  0.8876605881626103  1.0000
  C   C120      1.0  0.0711754381181748  0.9258290341674353  0.9692414946302815  1.0000
  N   N1        1.0  0.1405261299296328  0.5173648177631164  0.45122145000330943  1.0000
  N   N2        1.0  0.591728329589188  0.5613013529662253  0.9535429867330262  1.0000
  N   N3        1.0  0.40572692793569604  0.09454687844871046  0.065761759733185  1.0000
  N   N4        1.0  0.5406656869481878  0.1971936740419267  0.10229917100731707  1.0000
  N   N5        1.0  0.6904949352566233  0.6708567810365409  0.923048328718863  1.0000
  N   N6        1.0  0.9781115318255547  0.5774481241918393  0.4188586534314353  1.0000
  N   N7        1.0  0.8594777075875939  0.0173662232551308  0.048778358193246135  1.0000
  N   N8        1.0  0.4082762047691944  0.06130260381126359  0.5464584225210485  1.0000
  N   N9        1.0  0.5942686610014648  0.5945463905472295  0.4342420362200057  1.0000
  N   N10       1.0  0.4593302405423715  0.6971918052019461  0.3976998170888136  1.0000
  N   N11       1.0  0.30950095529479427  0.17085310423765065  0.5769555256667115  1.0000
  N   N12       1.0  0.021897149388443907  0.07745436654199979  0.08113823992871967  1.0000
  N   N13       1.0  0.8594657889407247  0.48262891067147956  0.5487767261794543  1.0000
  N   N14       1.0  0.408269137502444  0.4386998270041786  0.046456765134749396  1.0000
  N   N15       1.0  0.5942728783576287  0.9054513208776666  0.9342408351515342  1.0000
  N   N16       1.0  0.4593341700361435  0.8028097413857296  0.8977005787458335  1.0000
  N   N17       1.0  0.3095024811246461  0.32914216346010505  0.07695426827494597  1.0000
  N   N18       1.0  0.0218836299535781  0.4225448590715076  0.5811363586921983  1.0000
  N   N19       1.0  0.14053004529321816  0.9826386824373115  0.9512253360804191  1.0000
  N   N20       1.0  0.5917331780225723  0.9387015567176319  0.4535432155367543  1.0000
  N   N21       1.0  0.4057248116199048  0.405457770072303  0.5657583514090019  1.0000
  N   N22       1.0  0.5406632489921392  0.3028116102617559  0.6022996221676136  1.0000
  N   N23       1.0  0.6905027947439066  0.8291421144364648  0.42304927857865926  1.0000
  N   N24       1.0  0.9781154678385992  0.9225520294426345  0.9188607082514151  1.0000
  O   O1        1.0  0.7317747302693223  0.4412512237682122  0.4161046002004268  1.0000
  O   O2        1.0  0.6242397158002789  0.35043131093085117  0.45767226167479425  1.0000
  O   O3        1.0  0.6715225053512415  0.5547305689658018  0.5730101741309921  1.0000
  O   O4        1.0  0.7531701922818572  0.7058046884700602  0.5887173797387887  1.0000
  O   O5        1.0  0.6076064133013476  0.5341219615347724  0.08659956742480547  1.0000
  O   O6        1.0  0.656999278405394  0.3725895569271955  0.0869806408414817  1.0000
  O   O7        1.0  0.2682115573946859  0.941252994340786  0.08389886244912496  1.0000
  O   O8        1.0  0.37574941550789026  0.8504409181175135  0.04232758483772158  1.0000
  O   O9        1.0  0.3284740746930197  0.054740743030777105  0.9269953761323817  1.0000
  O   O10       1.0  0.24682616473014463  0.20581805058866817  0.9112793895507348  1.0000
  O   O11       1.0  0.39240117551624104  0.03413443256643231  0.4134009653947144  1.0000
  O   O12       1.0  0.34301425786761547  0.8726046030967324  0.4130192597321666  1.0000
  O   O13       1.0  0.2682195784550032  0.5587507013786563  0.583893573856656  1.0000
  O   O14       1.0  0.3757340634469913  0.6495892432652967  0.5423156565872416  1.0000
  O   O15       1.0  0.3284693628813571  0.4452497466418635  0.4269908471985244  1.0000
  O   O16       1.0  0.24679080152967717  0.294186804676805  0.4112727627055788  1.0000
  O   O17       1.0  0.39239026852839504  0.4658635701463537  0.9133995529261721  1.0000
  O   O18       1.0  0.3430110843260153  0.6273944843728285  0.9130107224988674  1.0000
  O   O19       1.0  0.7317843474578896  0.058742969542308295  0.9160991521497049  1.0000
  O   O20       1.0  0.6242313646104379  0.1495438684978865  0.9576698108988564  1.0000
  O   O21       1.0  0.6715400288116057  0.9452514949576453  0.07300957703545653  1.0000
  O   O22       1.0  0.7532164738486314  0.7941883452109194  0.0887335994438557  1.0000
  O   O23       1.0  0.6076218372974083  0.9658920825983373  0.5865957607301409  1.0000
  O   O24       1.0  0.6570102326726615  0.12742265720886078  0.5869839455397494  1.0000
