data_image0
_chemical_formula_structural       Co3H42C66N36
_chemical_formula_sum              "Co3 H42 C66 N36"
_cell_length_a       8.697355170098653
_cell_length_b       16.09466314273298
_cell_length_c       16.088061901320934
_cell_angle_alpha    116.82969306009564
_cell_angle_beta     100.39011100879115
_cell_angle_gamma    100.3754997400901

_space_group_name_H-M_alt    "P 1"
_space_group_IT_number       1

loop_
  _space_group_symop_operation_xyz
  'x, y, z'

loop_
  _atom_site_type_symbol
  _atom_site_label
  _atom_site_symmetry_multiplicity
  _atom_site_fract_x
  _atom_site_fract_y
  _atom_site_fract_z
  _atom_site_occupancy
  Co  Co1       1.0  0.5000021599242004  0.49999995990793195  8.379764084773556e-07  1.0000
  Co  Co2       1.0  0.5000016816563003  0.9999993947775682  0.5000025200019564  1.0000
  Co  Co3       1.0  0.9999955628821269  0.49999850732255896  0.49999717634428725  1.0000
  H   H1        1.0  0.24187150430125842  0.9642685617342015  0.3333024651920199  1.0000
  H   H2        1.0  0.9083965282789633  0.6664431235939645  0.6308824172574248  1.0000
  H   H3        1.0  0.2775324401279348  0.3691393277767361  0.035606543598163426  1.0000
  H   H4        1.0  0.7581363597992308  0.035731569702512914  0.6667017402733961  1.0000
  H   H5        1.0  0.0915989228633123  0.33355554775960183  0.36911556282401387  1.0000
  H   H6        1.0  0.7224635304734691  0.6308556959502104  0.9643861121760368  1.0000
  H   H7        1.0  0.021589238529671234  0.8209912642848922  0.19426808338539572  1.0000
  H   H8        1.0  0.8272847988269733  0.8054985698073056  0.6268377076271889  1.0000
  H   H9        1.0  0.2009167101457052  0.37320652037062996  0.17886094970639735  1.0000
  H   H10       1.0  0.9784150439832969  0.17901105517282906  0.8057367585113013  1.0000
  H   H11       1.0  0.17271678542867622  0.19450301956415939  0.3731634327438443  1.0000
  H   H12       1.0  0.7990730420202113  0.6267877749257524  0.8211369842499324  1.0000
  H   H13       1.0  0.23320874569274258  0.637038190941205  0.2773543366788972  1.0000
  H   H14       1.0  0.955364377275558  0.7226905716982874  0.35962322418174625  1.0000
  H   H15       1.0  0.5959605488612283  0.6404888145082385  0.3630927604689803  1.0000
  H   H16       1.0  0.7667906562220851  0.36295902119471896  0.7226402640441592  1.0000
  H   H17       1.0  0.04463939374920761  0.27731539431204777  0.6403813481060966  1.0000
  H   H18       1.0  0.40403126179892723  0.35950256189032365  0.636896599202018  1.0000
  H   H19       1.0  0.4402590566596275  0.7875772115788355  0.4169787364700144  1.0000
  H   H20       1.0  0.02263405975017463  0.5829463980420757  0.37035752636071356  1.0000
  H   H21       1.0  0.6524670005998773  0.6295496067980014  0.2125390249150316  1.0000
  H   H22       1.0  0.5597411414919762  0.21241927227583812  0.5830212078602911  1.0000
  H   H23       1.0  0.9773674524682292  0.4170573791267176  0.6296427292885767  1.0000
  H   H24       1.0  0.3475296950867132  0.37044687632567996  0.787457468198447  1.0000
  H   H25       1.0  0.9395239235184646  0.3327645549153504  0.03403766658946964  1.0000
  H   H26       1.0  0.9055595903805838  0.9656452802247775  0.2988409054391854  1.0000
  H   H27       1.0  0.6064994719832627  0.7013838492064507  0.6670243186208606  1.0000
  H   H28       1.0  0.060476207909843475  0.6672341160206444  0.9659576637417046  1.0000
  H   H29       1.0  0.0944426522369568  0.034359955624751116  0.7011594582719878  1.0000
  H   H30       1.0  0.393495174065663  0.2986155516217084  0.3329745333156353  1.0000
  H   H31       1.0  0.4992185619180773  0.11714166665937142  0.8495462019390486  1.0000
  H   H32       1.0  0.6504609479494193  0.15030163774613203  0.26748333535508817  1.0000
  H   H33       1.0  0.38263445677361574  0.7326607757839343  0.8830129548279474  1.0000
  H   H34       1.0  0.5007781319971939  0.882854816702974  0.1504515342668925  1.0000
  H   H35       1.0  0.3495406943151733  0.8497094347206868  0.7325276834038874  1.0000
  H   H36       1.0  0.6173622327133683  0.26733570817508223  0.11698788910914713  1.0000
  H   H37       1.0  0.3622939306081748  0.24827187133728768  0.86417701182652  1.0000
  H   H38       1.0  0.4988963006333691  0.13607959579585585  0.3841383669228832  1.0000
  H   H39       1.0  0.1142848616758911  0.6161655466460445  0.7519992708517265  1.0000
  H   H40       1.0  0.6377053121759816  0.7517297184219631  0.13582638573898728  1.0000
  H   H41       1.0  0.5011023453404633  0.8639278301033572  0.6158731995055007  1.0000
  H   H42       1.0  0.8857208121128579  0.3838302086291351  0.2480039888818055  1.0000
  C   C1        1.0  0.23477458952774571  0.8905836455725483  0.3189986810599452  1.0000
  C   C2        1.0  0.9154450746966065  0.6807470009480598  0.5714656050493687  1.0000
  C   C3        1.0  0.3442064675125707  0.42850416178199435  0.10932774930256536  1.0000
  C   C4        1.0  0.7652297659081312  0.10941648596851651  0.6810064240122597  1.0000
  C   C5        1.0  0.0845549776091872  0.31925385873993417  0.4285338129299204  1.0000
  C   C6        1.0  0.655788843841286  0.5714872155862241  0.8906663046777225  1.0000
  C   C7        1.0  0.11284798027207907  0.8107055871508709  0.24178396520101603  1.0000
  C   C8        1.0  0.8708393176236056  0.758004274848588  0.5689291490347798  1.0000
  C   C9        1.0  0.30241108629756047  0.4310377667429536  0.1892064014918446  1.0000
  C   C10       1.0  0.8871590066978142  0.1892974615577644  0.7582202273977217  1.0000
  C   C11       1.0  0.1291641651099553  0.24199877336772607  0.4310728354395934  1.0000
  C   C12       1.0  0.6975838585282403  0.5689528814639007  0.8107885307768541  1.0000
  C   C13       1.0  0.10717143993895929  0.7168918332889905  0.22600414222177548  1.0000
  C   C14       1.0  0.8807663600989174  0.7738952901496746  0.49091376904273437  1.0000
  C   C15       1.0  0.39027152819918587  0.509107455848053  0.2831038933389111  1.0000
  C   C16       1.0  0.8928371589889607  0.28310975623178797  0.7739970635743703  1.0000
  C   C17       1.0  0.11923712263465093  0.22610775806663955  0.509088215431639  1.0000
  C   C18       1.0  0.6097225386103559  0.4908861097500506  0.7168916476093373  1.0000
  C   C19       1.0  0.23159928845019806  0.7085502992941102  0.28793685351026715  1.0000
  C   C20       1.0  0.9431517618759173  0.7120349547491289  0.4205402091036419  1.0000
  C   C21       1.0  0.5229206122017019  0.5794847567237443  0.2915490952087367  1.0000
  C   C22       1.0  0.7684027325994336  0.291449831680069  0.7120655363865679  1.0000
  C   C23       1.0  0.05685442265759381  0.28796882307609917  0.5794629907114697  1.0000
  C   C24       1.0  0.4770723638802608  0.42050662019692464  0.708442865142409  1.0000
  C   C25       1.0  0.3470958515729023  0.7920026613511129  0.36524316083703223  1.0000
  C   C26       1.0  0.9812214604403239  0.6346491316792895  0.4265574770245736  1.0000
  C   C27       1.0  0.554880866806819  0.5733816929277966  0.2080756131918592  1.0000
  C   C28       1.0  0.6529030993774185  0.20799601109144564  0.6347601350999241  1.0000
  C   C29       1.0  0.01877815241451949  0.3653531867639972  0.5734425560676044  1.0000
  C   C30       1.0  0.4451139348301538  0.42661333075437835  0.7919169280871117  1.0000
  C   C31       1.0  0.9715516298446187  0.6320336509667047  0.15340459416022176  1.0000
  C   C32       1.0  0.8178022922432433  0.8465629306917397  0.4788232172699838  1.0000
  C   C33       1.0  0.3391235878909741  0.5213206569452354  0.36784977047332745  1.0000
  C   C34       1.0  0.028458218941558797  0.36796574960818873  0.8465913953905825  1.0000
  C   C35       1.0  0.182202362997387  0.15344011709201075  0.5211763955146864  1.0000
  C   C36       1.0  0.6608730304444207  0.4786780146917736  0.6321495671957962  1.0000
  C   C37       1.0  0.8165397241835777  0.4886970238374746  0.06338990220612582  1.0000
  C   C38       1.0  0.7529147290929147  0.9366074871300544  0.42550886826830253  1.0000
  C   C39       1.0  0.32733034625652385  0.5747022987338897  0.5112057136920427  1.0000
  C   C40       1.0  0.18346463833756133  0.511303106748912  0.9366102304962283  1.0000
  C   C41       1.0  0.2470853232128789  0.06339337255793252  0.5744905497109797  1.0000
  C   C42       1.0  0.6726694124441225  0.42529564387607627  0.48879484575115845  1.0000
  C   C43       1.0  0.7348995651271082  0.3849942474056719  0.005250190751723962  1.0000
  C   C44       1.0  0.7297059198016954  0.9947180064852079  0.3798481550416712  1.0000
  C   C45       1.0  0.3496145084650877  0.620416928506714  0.6149924012742717  1.0000
  C   C46       1.0  0.26510173172300006  0.6150044240524299  0.9947477402596051  1.0000
  C   C47       1.0  0.2702909894818788  0.005283582587829002  0.6201519058022242  1.0000
  C   C48       1.0  0.6503816686480377  0.37958320212425894  0.38500879460020343  1.0000
  C   C49       1.0  0.8096316677010479  0.31213039351746386  0.9959235922073405  1.0000
  C   C50       1.0  0.8138373638997862  0.003799784371160802  0.31624239322555076  1.0000
  C   C51       1.0  0.4973308354397901  0.6840139593623039  0.6877501465250263  1.0000
  C   C52       1.0  0.19036692823477352  0.6878675482123955  0.004072501917015479  1.0000
  C   C53       1.0  0.1861624643233455  0.9962076397828172  0.6837599645045884  1.0000
  C   C54       1.0  0.5026676822591724  0.3159861710002191  0.3122494137012097  1.0000
  C   C55       1.0  0.5679110614955433  0.19449191082988193  0.8942823308108102  1.0000
  C   C56       1.0  0.6742083966522758  0.10555930864381934  0.30014316762154897  1.0000
  C   C57       1.0  0.37372220396381556  0.7000508380292064  0.8055940929949587  1.0000
  C   C58       1.0  0.43208870251904613  0.8055060310640775  0.10571449935500275  1.0000
  C   C59       1.0  0.3257886471057673  0.8944495751305725  0.6998645486008783  1.0000
  C   C60       1.0  0.6262782851359602  0.299948563261495  0.1944065745101328  1.0000
  C   C61       1.0  0.4914447993533527  0.26596846684709163  0.9020308514728796  1.0000
  C   C62       1.0  0.5899719393051158  0.09806300401515244  0.3639784407723425  1.0000
  C   C63       1.0  0.22561746312780442  0.6362987179960558  0.7342120485949623  1.0000
  C   C64       1.0  0.5085581076834628  0.7340287456618243  0.09796533582832015  1.0000
  C   C65       1.0  0.4100248143904111  0.901942962203876  0.6360279307290854  1.0000
  C   C66       1.0  0.7743814931364597  0.36369995373050323  0.2657875180646059  1.0000
  N   N1        1.0  0.3484542516965662  0.8825907835605098  0.382312371090926  1.0000
  N   N2        1.0  0.9655759295039059  0.6174691516021371  0.5000468120654277  1.0000
  N   N3        1.0  0.46567975495735686  0.4999000399282566  0.11741405469926756  1.0000
  N   N4        1.0  0.6515477640391224  0.11740934812966942  0.6176937480832976  1.0000
  N   N5        1.0  0.034419887280762416  0.38253024903213645  0.4999509112738282  1.0000
  N   N6        1.0  0.5343151178311984  0.5000927960759187  0.8825799928476883  1.0000
  N   N7        1.0  0.9712758725056788  0.5380929275422517  0.12153315834162026  1.0000
  N   N8        1.0  0.8493335819039984  0.8784179227875911  0.4167116204397062  1.0000
  N   N9        1.0  0.4326329969378336  0.5835029076261409  0.4618561317230673  1.0000
  N   N10       1.0  0.02873478048819317  0.46190574367737725  0.8784625809003543  1.0000
  N   N11       1.0  0.1506714389790247  0.12158585427685863  0.5832877356027949  1.0000
  N   N12       1.0  0.567368734049289  0.41649430579267505  0.5381449134527543  1.0000
  N   N13       1.0  0.7274601883248762  0.5495379656338315  0.06155179875332114  1.0000
  N   N14       1.0  0.6658207538342894  0.9385148086352335  0.4882646998337635  1.0000
  N   N15       1.0  0.1775391007565902  0.5118864191023109  0.4502947047058257  1.0000
  N   N16       1.0  0.2725445354103684  0.4504628948299257  0.9384511849380246  1.0000
  N   N17       1.0  0.334180831307023  0.061486780616903006  0.5117358189910348  1.0000
  N   N18       1.0  0.8224602211500739  0.48811298190494784  0.5497046052115735  1.0000
  N   N19       1.0  0.8253047306577842  0.6415088445583167  0.11799548046364815  1.0000
  N   N20       1.0  0.7071468651669337  0.8820276323150796  0.5238145849375186  1.0000
  N   N21       1.0  0.18344994426676203  0.4762859278958659  0.3582598253608964  1.0000
  N   N22       1.0  0.17470116558452284  0.3584920154728837  0.8820051315379942  1.0000
  N   N23       1.0  0.2928562572381779  0.11797468590452814  0.47618392700163525  1.0000
  N   N24       1.0  0.8165462381603064  0.5237142020191076  0.6417376412361905  1.0000
  N   N25       1.0  0.574095109769992  0.36094735024128993  0.9576612133774347  1.0000
  N   N26       1.0  0.616784405231563  0.042471901954435516  0.4034273769909261  1.0000
  N   N27       1.0  0.21306189476986495  0.5968603184820794  0.6391531385588393  1.0000
  N   N28       1.0  0.42590618530879726  0.6390513214554834  0.0423379607263572  1.0000
  N   N29       1.0  0.3832106046884434  0.9575282283930948  0.5965724612958639  1.0000
  N   N30       1.0  0.7869350865509547  0.4031390827936293  0.3608478070068061  1.0000
  N   N31       1.0  0.7269468023569274  0.2172370152777107  0.9412048503744757  1.0000
  N   N32       1.0  0.7861643022608503  0.05851990897469512  0.2760166194154293  1.0000
  N   N33       1.0  0.5098360352380525  0.724203543182981  0.7827191194544841  1.0000
  N   N34       1.0  0.2730509858285615  0.7827616562847342  0.05879398024364251  1.0000
  N   N35       1.0  0.2138334754389604  0.9414904330030968  0.7239887186839626  1.0000
  N   N36       1.0  0.4901640908762984  0.2757951284690138  0.21727994015407864  1.0000
