data_image0
_chemical_formula_structural       Cd8H140C156N4O60
_chemical_formula_sum              "Cd8 H140 C156 N4 O60"
_cell_length_a       12.916858517234326
_cell_length_b       15.483679666370698
_cell_length_c       26.956535944776686
_cell_angle_alpha    100.91597116201875
_cell_angle_beta     89.99986005030213
_cell_angle_gamma    89.99936307724947

_space_group_name_H-M_alt    "P 1"
_space_group_IT_number       1

loop_
  _space_group_symop_operation_xyz
  'x, y, z'

loop_
  _atom_site_type_symbol
  _atom_site_label
  _atom_site_symmetry_multiplicity
  _atom_site_fract_x
  _atom_site_fract_y
  _atom_site_fract_z
  _atom_site_occupancy
  Cd  Cd1       1.0  0.18627672369318304  0.7457446215123225  0.7629367947993086  1.0000
  Cd  Cd2       1.0  0.6862839843772337  0.2542469641944932  0.737065644963586  1.0000
  Cd  Cd3       1.0  0.8137249559641831  0.254257131443289  0.2370618256840017  1.0000
  Cd  Cd4       1.0  0.31372079202617453  0.7457527692111653  0.2629312919279768  1.0000
  Cd  Cd5       1.0  0.34571813915706434  0.7618361810058969  0.6574737426131063  1.0000
  Cd  Cd6       1.0  0.8457219616086605  0.23816170784584756  0.8425294942929253  1.0000
  Cd  Cd7       1.0  0.654277347067655  0.2381622721302676  0.3425241808993674  1.0000
  Cd  Cd8       1.0  0.1542688794667484  0.7618434499020096  0.15747317277282488  1.0000
  H   H1        1.0  0.04696454962183339  0.641076624463629  0.898858229519419  1.0000
  H   H2        1.0  0.5469610713053613  0.3588997786405983  0.6011384299249298  1.0000
  H   H3        1.0  0.953043323564856  0.358913995209825  0.10114077534226597  1.0000
  H   H4        1.0  0.4530375116849257  0.6410934017116787  0.39885860172591947  1.0000
  H   H5        1.0  0.40358384557114857  0.8744732356960299  0.8690757407894051  1.0000
  H   H6        1.0  0.9035926006171807  0.12553521728009537  0.6309273552233916  1.0000
  H   H7        1.0  0.5964155115505108  0.12552657931585995  0.13092380134691686  1.0000
  H   H8        1.0  0.09641062739339651  0.8744672632319135  0.3690735632801249  1.0000
  H   H9        1.0  0.8402463988963974  0.41974292478463576  0.8863985362166884  1.0000
  H   H10       1.0  0.34025683213873503  0.5802462015938372  0.6135953082977108  1.0000
  H   H11       1.0  0.1597521840631728  0.5802548473884241  0.11359857797825866  1.0000
  H   H12       1.0  0.6597456217502966  0.4197489283485466  0.38640117387536316  1.0000
  H   H13       1.0  0.8995622237664949  0.5394211939357658  0.7574424803767028  1.0000
  H   H14       1.0  0.39956969682821614  0.46057666063900626  0.7425558634485795  1.0000
  H   H15       1.0  0.10043403659867782  0.46058257858145885  0.24255782370094173  1.0000
  H   H16       1.0  0.6004366279532151  0.5394204888183722  0.25744230230849746  1.0000
  H   H17       1.0  0.5269129514707133  0.9857242044833682  0.7468457528394976  1.0000
  H   H18       1.0  0.02690074901777  0.0142636963171299  0.7531557772967119  1.0000
  H   H19       1.0  0.47308950238051045  0.0142749878361528  0.25315484086411993  1.0000
  H   H20       1.0  0.9731078981745824  0.9857513492387896  0.24684860850545218  1.0000
  H   H21       1.0  0.6136411622134547  0.8554249885756348  0.898327583842814  1.0000
  H   H22       1.0  0.11364428423351573  0.14457187134653537  0.6016736112850082  1.0000
  H   H23       1.0  0.38635587236901614  0.14457353447765087  0.10167257272971138  1.0000
  H   H24       1.0  0.8863519761424076  0.8554293521926296  0.3983290381907593  1.0000
  H   H25       1.0  0.605147204033976  0.10001383600857139  0.9001072963982889  1.0000
  H   H26       1.0  0.10513255957308591  0.8999739372630484  0.5998941247265674  1.0000
  H   H27       1.0  0.39485215308240385  0.8999860372740611  0.09989410662284827  1.0000
  H   H28       1.0  0.8948590557338606  0.10002277605769189  0.4001110474489947  1.0000
  H   H29       1.0  0.3811367208923926  0.11436947642246047  0.9143878039385382  1.0000
  H   H30       1.0  0.8811394890181462  0.8856325788598622  0.5856132036885596  1.0000
  H   H31       1.0  0.6188533460593463  0.8856283540640744  0.08561117115069546  1.0000
  H   H32       1.0  0.11885677137139788  0.1143666717614735  0.4143892509067512  1.0000
  H   H33       1.0  0.2277666238590754  0.4512993835176217  0.05967933500387087  1.0000
  H   H34       1.0  0.7277673550265575  0.548695817899883  0.44031948607200616  1.0000
  H   H35       1.0  0.7722389267266933  0.5486997388614654  0.9403190256345224  1.0000
  H   H36       1.0  0.27223819559446133  0.4512980550191585  0.5596787270621347  1.0000
  H   H37       1.0  0.14142345880632232  0.5013009212737458  0.8878385823447843  1.0000
  H   H38       1.0  0.6414211624381212  0.49869492062656207  0.6121598808090097  1.0000
  H   H39       1.0  0.8585789950219009  0.49870217026482777  0.11216091241189467  1.0000
  H   H40       1.0  0.3585797430452118  0.5013055287085351  0.3878389819318143  1.0000
  H   H41       1.0  0.28818262762568037  0.5456111170929461  0.8519282615260193  1.0000
  H   H42       1.0  0.7881791823587606  0.4543925054643054  0.6480722734218388  1.0000
  H   H43       1.0  0.7118175037259675  0.45438330860523013  0.1480666669816344  1.0000
  H   H44       1.0  0.21182017471148382  0.5456133448425363  0.3519315751254835  1.0000
  H   H45       1.0  0.26749652470581964  0.4289120716491154  0.8365148766177767  1.0000
  H   H46       1.0  0.7674906740157115  0.5710910309674447  0.6634834063117552  1.0000
  H   H47       1.0  0.732501284084563  0.5710831282414688  0.16348383862223403  1.0000
  H   H48       1.0  0.2325094572675468  0.4289138703425337  0.3365110728504915  1.0000
  H   H49       1.0  0.3956404024475688  0.47234541462068336  0.8346141108265639  1.0000
  H   H50       1.0  0.8956343444868439  0.5276577754591116  0.6653858779470594  1.0000
  H   H51       1.0  0.6043581805493687  0.5276470847840287  0.16538211151020477  1.0000
  H   H52       1.0  0.10436423839936282  0.4723499195738085  0.3346140715349932  1.0000
  H   H53       1.0  0.4055458138075495  0.9316426566112738  0.6522958148284557  1.0000
  H   H54       1.0  0.9055541870302621  0.06836309950222129  0.8477055282733658  1.0000
  H   H55       1.0  0.5944519949577227  0.06835646580666577  0.3477025458185493  1.0000
  H   H56       1.0  0.09444749262318912  0.9316380890473042  0.15229600466549434  1.0000
  H   H57       1.0  0.2965528035941603  0.9092180062519971  0.629237337738587  1.0000
  H   H58       1.0  0.7965599834035404  0.0907836292536217  0.8707652167655052  1.0000
  H   H59       1.0  0.7034434567982473  0.0907818204295765  0.3707625765781373  1.0000
  H   H60       1.0  0.20344092207239584  0.9092169016605142  0.12923625121405988  1.0000
  H   H61       1.0  0.45418864639610496  0.6962692414885864  0.5818713033791594  1.0000
  H   H62       1.0  0.9541966191808628  0.3037320572901691  0.9181287974382639  1.0000
  H   H63       1.0  0.5458169041854289  0.3037299275070922  0.4181285459670859  1.0000
  H   H64       1.0  0.045809705552763105  0.6962723028909394  0.08186933852656607  1.0000
  H   H65       1.0  0.5181665068569786  0.6475930881575775  0.6172827080243122  1.0000
  H   H66       1.0  0.018171582187477504  0.3524026288511592  0.8827144105870415  1.0000
  H   H67       1.0  0.48182278594616434  0.3523989051584094  0.3827182876631382  1.0000
  H   H68       1.0  0.9818254523948086  0.6475983266387075  0.11727967881773789  1.0000
  H   H69       1.0  0.38282869077273324  0.5058224891438741  0.07564842189455587  1.0000
  H   H70       1.0  0.8828294560713348  0.4941698757119326  0.42435104097100407  1.0000
  H   H71       1.0  0.6171760856483887  0.49417340331346776  0.9243514748287466  1.0000
  H   H72       1.0  0.11717067530256742  0.5058200513986506  0.5756467824082419  1.0000
  H   H73       1.0  0.4997545925517672  0.45356482171806073  0.05073007174046039  1.0000
  H   H74       1.0  0.9997553067055945  0.546429000194692  0.4492693909505973  1.0000
  H   H75       1.0  0.5002478613274306  0.5464310241343424  0.9492683362775762  1.0000
  H   H76       1.0  0.0002479213919742001  0.45356158453962786  0.5507284973853572  1.0000
  H   H77       1.0  0.38621347037135934  0.3879510914335  0.05778509653780618  1.0000
  H   H78       1.0  0.88621257593136  0.6120444810398381  0.4422131948955793  1.0000
  H   H79       1.0  0.6137882093164039  0.6120466807240135  0.9422120176537018  1.0000
  H   H80       1.0  0.1137906521581868  0.3879474073188831  0.5577844511837212  1.0000
  H   H81       1.0  0.7702697713656265  0.8253454469801795  0.10410112889220358  1.0000
  H   H82       1.0  0.2702647514348229  0.1746539430220153  0.39589842457128543  1.0000
  H   H83       1.0  0.22972416649137986  0.1746518307349945  0.8959011308252297  1.0000
  H   H84       1.0  0.7297284122024621  0.825349218488064  0.6041033032574956  1.0000
  H   H85       1.0  0.7955870988941243  0.7095117683956502  0.09231611994135847  1.0000
  H   H86       1.0  0.2955781557529633  0.2904893171441146  0.40768282775336206  1.0000
  H   H87       1.0  0.20440683896786283  0.29048606207145866  0.9076828551435695  1.0000
  H   H88       1.0  0.7044134594898213  0.7095178251718366  0.5923204063689409  1.0000
  H   H89       1.0  0.6648862995760113  0.748791167977842  0.10299814849734186  1.0000
  H   H90       1.0  0.1648771602451262  0.2512079644238909  0.3970015093980024  1.0000
  H   H91       1.0  0.33510996082683425  0.2512067207483567  0.8970026874698147  1.0000
  H   H92       1.0  0.8351129066530804  0.7487959246658917  0.6030025164561507  1.0000
  H   H93       1.0  0.7652180202692376  0.7868380647287765  0.8705013645037807  1.0000
  H   H94       1.0  0.2652131170934667  0.21316381539705984  0.6294990266330129  1.0000
  H   H95       1.0  0.23478598190524022  0.21316704633644432  0.1294998138394803  1.0000
  H   H96       1.0  0.7347815949194186  0.78683739649572  0.37050325066751094  1.0000
  H   H97       1.0  0.6556407919866843  0.7140337555240986  0.864621188584877  1.0000
  H   H98       1.0  0.15563179408948008  0.2859665005791144  0.6353762089736532  1.0000
  H   H99       1.0  0.34436553275072873  0.28596934764919973  0.13537867834446618  1.0000
  H   H100      1.0  0.8443613695739817  0.7140327267494654  0.36462550127117754  1.0000
  H   H101      1.0  0.784478894865643  0.6713310280147838  0.8680580323751739  1.0000
  H   H102      1.0  0.28447012201468175  0.328669977875485  0.631941506620279  1.0000
  H   H103      1.0  0.2155266556708213  0.3286741063509667  0.13194389032029355  1.0000
  H   H104      1.0  0.7155238158150967  0.6713312456753328  0.3680611428580675  1.0000
  H   H105      1.0  0.11247845306954221  0.6578931266269021  0.4499062363653578  1.0000
  H   H106      1.0  0.6124715958042657  0.34210518150190683  0.05009229161873919  1.0000
  H   H107      1.0  0.8875185814881237  0.342108707931061  0.5500949893618524  1.0000
  H   H108      1.0  0.3875277613446285  0.6578906876743316  0.9499068607566695  1.0000
  H   H109      1.0  0.071259435124567  0.768677032030858  0.47105876753413145  1.0000
  H   H110      1.0  0.571262676753598  0.23132106705580918  0.028940903670687093  1.0000
  H   H111      1.0  0.9287298576185137  0.231323522249852  0.5289434448122704  1.0000
  H   H112      1.0  0.42874209966647214  0.7686748370556771  0.9710593652295854  1.0000
  H   H113      1.0  0.3568737181939738  0.6634241422216005  0.4635437012718525  1.0000
  H   H114      1.0  0.8568701028578829  0.3365835156175477  0.03645433598402547  1.0000
  H   H115      1.0  0.6431217679289035  0.33659062370081466  0.5364517522978501  1.0000
  H   H116      1.0  0.143128480038456  0.6634228524826751  0.9635451114007549  1.0000
  H   H117      1.0  0.3871627847870798  0.7749203011987474  0.48846381521958887  1.0000
  H   H118      1.0  0.8871638783663228  0.22508769861251213  0.011533847458629494  1.0000
  H   H119      1.0  0.612828056251523  0.2250931611225653  0.5115318806119332  1.0000
  H   H120      1.0  0.112840897975218  0.7749200080434803  0.988466474193501  1.0000
  H   H121      1.0  0.2344017049211828  0.827332746512482  0.45197044606859277  1.0000
  H   H122      1.0  0.7344110443933617  0.1726742607397256  0.048030646056517384  1.0000
  H   H123      1.0  0.7655806201206519  0.17267761412157506  0.5480308798030362  1.0000
  H   H124      1.0  0.2655991512465903  0.8273295350158631  0.9519704023595563  1.0000
  H   H125      1.0  0.2454841263230989  0.7275677743871112  0.4075370143233527  1.0000
  H   H126      1.0  0.7454849390747427  0.2724390401026253  0.09246144792785316  1.0000
  H   H127      1.0  0.7544997470675412  0.2724457928565086  0.5924620311085744  1.0000
  H   H128      1.0  0.25451828894914297  0.7275620785142393  0.9075378519475092  1.0000
  H   H129      1.0  0.12978776246580281  0.6952586355455495  0.5938481963360543  1.0000
  H   H130      1.0  0.6297833980178071  0.3047353618804962  0.9061504699915446  1.0000
  H   H131      1.0  0.870220110703791  0.3047346030308518  0.4061506961892717  1.0000
  H   H132      1.0  0.37021595912897  0.6952605306040381  0.09384942673779045  1.0000
  H   H133      1.0  0.04983617707187451  0.6372061789904606  0.5437567059576267  1.0000
  H   H134      1.0  0.5498269069005772  0.3627885742596461  0.9562406494607314  1.0000
  H   H135      1.0  0.9501724702637305  0.3627896668308637  0.4562417020535249  1.0000
  H   H136      1.0  0.4501716760630928  0.6372073298829195  0.0437596194464192  1.0000
  H   H137      1.0  0.03360927387455351  0.7525448604502855  0.5648805091570634  1.0000
  H   H138      1.0  0.5336093887728738  0.24744815261743716  0.9351189205169204  1.0000
  H   H139      1.0  0.966391631636192  0.24744921061257935  0.43512403099060026  1.0000
  H   H140      1.0  0.46639074256957264  0.7525457669453886  0.064880781331091  1.0000
  C   C1        1.0  0.7956577433836003  0.40496654117143993  0.787055703007553  1.0000
  C   C2        1.0  0.2956581671534622  0.5950275779654176  0.7129368345087099  1.0000
  C   C3        1.0  0.2043392911838922  0.5950345774765039  0.21294359687468759  1.0000
  C   C4        1.0  0.7043535769213423  0.40496936169009257  0.2870546320570213  1.0000
  C   C5        1.0  0.0387699505599173  0.6613267867666082  0.8029607485892425  1.0000
  C   C6        1.0  0.5387685588005411  0.3386662560937522  0.6970412748490415  1.0000
  C   C7        1.0  0.9612417935063108  0.3386684247081958  0.19703833881224134  1.0000
  C   C8        1.0  0.46123776597498517  0.6613321736797317  0.3029559042974553  1.0000
  C   C9        1.0  0.5041539307057832  0.9873179566597938  0.8913893649566018  1.0000
  C   C10       1.0  0.004151800476947201  0.0126806597718954  0.6086121386105672  1.0000
  C   C11       1.0  0.49584310387563596  0.012680578047650198  0.10861116379287948  1.0000
  C   C12       1.0  0.9958444598933839  0.9873212330606974  0.39139094800231783  1.0000
  C   C13       1.0  0.9942757561027876  0.5933665361811362  0.8773059432854706  1.0000
  C   C14       1.0  0.49427606083759207  0.40661648750896967  0.6226885927026158  1.0000
  C   C15       1.0  0.005730568710419  0.4066260098013146  0.12269176775053837  1.0000
  C   C16       1.0  0.5057248446758392  0.5933805920507143  0.37730733999871546  1.0000
  C   C17       1.0  0.4520225733791676  0.9238251926553146  0.8564993899679932  1.0000
  C   C18       1.0  0.9520257243408351  0.0761775130903786  0.6435030786537012  1.0000
  C   C19       1.0  0.5479791062729122  0.07617661857104  0.14350109140013248  1.0000
  C   C20       1.0  0.0479775036494772  0.9238276212870244  0.3564988440443527  1.0000
  C   C21       1.0  0.8617429358872853  0.4730282152662466  0.8188073016974042  1.0000
  C   C22       1.0  0.3617436566856398  0.5269653338531981  0.6811880662766112  1.0000
  C   C23       1.0  0.13825564705096133  0.5269722224263589  0.18119118886904317  1.0000
  C   C24       1.0  0.6382603455541798  0.47303115797656387  0.3188100345228974  1.0000
  C   C25       1.0  0.6356082852230428  0.12047798280280378  0.8050616553097851  1.0000
  C   C26       1.0  0.13558644457424407  0.8795102473157711  0.6949431126377446  1.0000
  C   C27       1.0  0.36439649115785505  0.8795226063626486  0.19494167355028214  1.0000
  C   C28       1.0  0.8644059448973422  0.12048969592671452  0.30506052345290857  1.0000
  C   C29       1.0  0.9771935336738199  0.5977370312975907  0.8265806255481392  1.0000
  C   C30       1.0  0.477195951942882  0.40224885265161686  0.6734160691497875  1.0000
  C   C31       1.0  0.0228112427640923  0.402256853279482  0.17341795976382451  1.0000
  C   C32       1.0  0.5228072761250289  0.5977463122493275  0.3265815295533087  1.0000
  C   C33       1.0  0.8796202383915387  0.4693708701863101  0.8695908184764889  1.0000
  C   C34       1.0  0.3796235005522348  0.5306158881436714  0.6304027436074546  1.0000
  C   C35       1.0  0.12037911876929289  0.5306242597716134  0.13040566370003145  1.0000
  C   C36       1.0  0.620378179144609  0.4693805687352963  0.3695942406637512  1.0000
  C   C37       1.0  0.9477090816783973  0.5280661816133473  0.8992785491966159  1.0000
  C   C38       1.0  0.4477132798101594  0.47191470216433357  0.600716574853571  1.0000
  C   C39       1.0  0.0522925980344908  0.47192766801681785  0.10071891958789786  1.0000
  C   C40       1.0  0.5522899482758987  0.5280778321795124  0.3992807640089139  1.0000
  C   C41       1.0  0.5721822951620723  0.05021895403577759  0.8217448751071217  1.0000
  C   C42       1.0  0.0721665767494173  0.9497684574843742  0.6782554378339467  1.0000
  C   C43       1.0  0.42782093286349016  0.9497809308815731  0.1782569000866728  1.0000
  C   C44       1.0  0.9278320061523929  0.050235419908531795  0.32174821583377866  1.0000
  C   C45       1.0  0.9108698353272758  0.5374315434037484  0.7972069019552632  1.0000
  C   C46       1.0  0.41087362042372183  0.46256094824319394  0.7027912692244411  1.0000
  C   C47       1.0  0.08912952178425121  0.4625695985408385  0.20279314227832396  1.0000
  C   C48       1.0  0.5891303818328879  0.5374335357062916  0.29720552016372176  1.0000
  C   C49       1.0  0.49895899489349926  0.9916131140084017  0.9467547624444631  1.0000
  C   C50       1.0  0.9989588763483966  0.008387136114933495  0.5532470347480964  1.0000
  C   C51       1.0  0.5010364913102023  0.0083873936246306  0.05324596118720139  1.0000
  C   C52       1.0  0.0010381582231958001  0.9916121145025228  0.4467554198463545  1.0000
  C   C53       1.0  0.974412113925631  0.5158320895020693  0.9510436545664402  1.0000
  C   C54       1.0  0.47441255109868063  0.48415647623757246  0.54895405051343  1.0000
  C   C55       1.0  0.025589565778481902  0.48416246438396365  0.04895536788608008  1.0000
  C   C56       1.0  0.5255875802287804  0.5158400389199116  0.4510447946443035  1.0000
  C   C57       1.0  0.555260957001778  0.9306233851533602  0.9689119322744869  1.0000
  C   C58       1.0  0.0552623527340117  0.06937404904307698  0.5310890205018665  1.0000
  C   C59       1.0  0.444734529216909  0.0693745268850208  0.031089648047448293  1.0000
  C   C60       1.0  0.9447339076485691  0.9306264935485159  0.46891281965982035  1.0000
  C   C61       1.0  0.5204917768519054  0.9861242824402436  0.7871322983205643  1.0000
  C   C62       1.0  0.020480565963687507  0.0138663017029046  0.7128691337573441  1.0000
  C   C63       1.0  0.4795106770161013  0.013872901999007998  0.21286698397170767  1.0000
  C   C64       1.0  0.9795249845298104  0.9861447747246145  0.2871341179334265  1.0000
  C   C65       1.0  0.443508888728836  0.06080922942585688  0.9769593041342969  1.0000
  C   C66       1.0  0.9435089522663488  0.9391935501268589  0.5230428112462561  1.0000
  C   C67       1.0  0.5564865974647333  0.9391926051398725  0.023041921594632673  1.0000
  C   C68       1.0  0.05648653393660651  0.06080635813763989  0.47695970831006906  1.0000
  C   C69       1.0  0.613949140153153  0.861302050766369  0.9391614370008552  1.0000
  C   C70       1.0  0.11395178101064829  0.13869676733094138  0.5608395801461297  1.0000
  C   C71       1.0  0.3860463460449495  0.13869912616008406  0.06083972376792698  1.0000
  C   C72       1.0  0.8860437051877668  0.8613037985728269  0.4391630043703428  1.0000
  C   C73       1.0  0.5643613746505666  0.0498316182825675  0.8734198235202155  1.0000
  C   C74       1.0  0.0643497940253965  0.9501578795899946  0.6265818182194421  1.0000
  C   C75       1.0  0.43563953083307894  0.9501682200298447  0.1265804629683132  1.0000
  C   C76       1.0  0.9356464663609715  0.04984140599378859  0.3734217529067506  1.0000
  C   C77       1.0  0.2613125393670472  0.47804372326503136  0.9379512041040596  1.0000
  C   C78       1.0  0.7613094237160568  0.5219509153996994  0.5620469924460705  1.0000
  C   C79       1.0  0.7386914628580997  0.5219547531367041  0.06204746375286868  1.0000
  C   C80       1.0  0.2386914818283969  0.4780409613165232  0.4379502814588461  1.0000
  C   C81       1.0  0.28669791320443494  0.4664617071348544  0.9882843738923267  1.0000
  C   C82       1.0  0.7866972312318057  0.5335327000513885  0.5117145105580434  1.0000
  C   C83       1.0  0.7133076373802753  0.533537426898384  0.0117143589230366  1.0000
  C   C84       1.0  0.21330754521623874  0.4664598575929872  0.4882835726566481  1.0000
  C   C85       1.0  0.46078413623525455  0.922653179474814  0.8045212595695046  1.0000
  C   C86       1.0  0.9607831271145957  0.07734484653752817  0.6954811070290956  1.0000
  C   C87       1.0  0.5392190918046681  0.0773453318932482  0.19547852481917258  1.0000
  C   C88       1.0  0.0392224233970637  0.9226635993328924  0.3045218848210637  1.0000
  C   C89       1.0  0.6709850076025463  0.8033570919028533  0.960946321236605  1.0000
  C   C90       1.0  0.17098544511047464  0.196641095507168  0.539052708193928  1.0000
  C   C91       1.0  0.32901047858860016  0.1966453769938568  0.03905422509855329  1.0000
  C   C92       1.0  0.8290100410889992  0.803359458742456  0.4609495041455886  1.0000
  C   C93       1.0  0.0783181585706245  0.49779562851195175  0.9624128721478012  1.0000
  C   C94       1.0  0.578319304981946  0.5021975352085022  0.5375846621785313  1.0000
  C   C95       1.0  0.9216866178411112  0.5022021902466206  0.03758573074811268  1.0000
  C   C96       1.0  0.4216823747071886  0.4977996142721892  0.46241350358371136  1.0000
  C   C97       1.0  0.3836193644433976  0.12197909589446708  0.955320072876489  1.0000
  C   C98       1.0  0.883620126578002  0.8780236387373037  0.5446824829000362  1.0000
  C   C99       1.0  0.6163730250401258  0.8780201081297035  0.04468089301527555  1.0000
  C   C100      1.0  0.11637458544744562  0.1219756118918056  0.45531997169699406  1.0000
  C   C101      1.0  0.20901206365386574  0.4658757916234038  0.02292206669131499  1.0000
  C   C102      1.0  0.7090112465763312  0.5341182827492261  0.4770766661716265  1.0000
  C   C103      1.0  0.7909919385656894  0.5341233540717454  0.977077038302731  1.0000
  C   C104      1.0  0.2909927556861902  0.46587492088416116  0.5229211098271234  1.0000
  C   C105      1.0  0.159798631749382  0.491963588772755  0.925835371377957  1.0000
  C   C106      1.0  0.6597956372321009  0.5080281228771284  0.5741626611537212  1.0000
  C   C107      1.0  0.8402045962769266  0.5080368955131291  0.07416460789117707  1.0000
  C   C108      1.0  0.3402044941044338  0.4919670770018029  0.42583605408371017  1.0000
  C   C109      1.0  0.896151491586423  0.5173917483118728  0.9878792272918911  1.0000
  C   C110      1.0  0.3961498207886436  0.48260549455470425  0.512119431345013  1.0000
  C   C111      1.0  0.103852510641147  0.4826060937588821  0.012120119958808597  1.0000
  C   C112      1.0  0.6038526330814876  0.5173916665762448  0.48787910659333267  1.0000
  C   C113      1.0  0.32114075471182707  0.48098391755243597  0.854269922965102  1.0000
  C   C114      1.0  0.821137237519061  0.5190193509200752  0.6457297943379315  1.0000
  C   C115      1.0  0.6788586024514274  0.519010578074507  0.14572723860518977  1.0000
  C   C116      1.0  0.17886366793946706  0.480984409919685  0.35427013755758435  1.0000
  C   C117      1.0  0.6725234170415535  0.8119721102595817  0.015178042983016789  1.0000
  C   C118      1.0  0.1725192997174076  0.1880256418443409  0.484821840180281  1.0000
  C   C119      1.0  0.32747206916003796  0.18802842068174636  0.9848234250025738  1.0000
  C   C120      1.0  0.8274754123080328  0.8119736087847683  0.5151806144167564  1.0000
  C   C121      1.0  0.4039891470485487  0.8536735419520126  0.767972889622001  1.0000
  C   C122      1.0  0.9039955452364411  0.14632842380866148  0.7320325333062951  1.0000
  C   C123      1.0  0.5960117584291923  0.14632757667650506  0.23202641025594054  1.0000
  C   C124      1.0  0.09601000526234321  0.8536825943481146  0.26796885749966026  1.0000
  C   C125      1.0  0.41536800442589344  0.4499065840633706  0.0487707630345824  1.0000
  C   C126      1.0  0.9153686596768792  0.5500867578439141  0.45122838521481856  1.0000
  C   C127      1.0  0.5846344494463481  0.5500905537592826  0.9512270305498374  1.0000
  C   C128      1.0  0.0846337942375754  0.4499038385484369  0.5487698752989658  1.0000
  C   C129      1.0  0.7404394682825811  0.76016203834898  0.08634618775062818  1.0000
  C   C130      1.0  0.24043116650353372  0.23983767436308062  0.4136541764058776  1.0000
  C   C131      1.0  0.2595544695685206  0.23983651968229217  0.9136550853562253  1.0000
  C   C132      1.0  0.7595612229405121  0.760166825737734  0.5863484256979915  1.0000
  C   C133      1.0  0.7332191210742636  0.7271879273833619  0.8814074683280849  1.0000
  C   C134      1.0  0.23321193462443554  0.2728135813019392  0.6185918124780867  1.0000
  C   C135      1.0  0.26678410693389054  0.2728151874596207  0.11859277078165317  1.0000
  C   C136      1.0  0.7667796806602496  0.7271876306063874  0.3814104648258833  1.0000
  C   C137      1.0  0.13699708467805038  0.7233256858221607  0.4702362226107154  1.0000
  C   C138      1.0  0.6369966228355395  0.27667438407911493  0.029763562254053993  1.0000
  C   C139      1.0  0.862993756405068  0.27667877932397994  0.5297652629639912  1.0000
  C   C140      1.0  0.36300583102824663  0.7233228469767281  0.9702372087460628  1.0000
  C   C141      1.0  0.2700378447251737  0.7156960565314777  0.5284715222595082  1.0000
  C   C142      1.0  0.7700310849530966  0.28430841744184926  0.9715294901787954  1.0000
  C   C143      1.0  0.7299669316187973  0.2843110157935341  0.47152947878639384  1.0000
  C   C144      1.0  0.2299698205134533  0.7156940397735169  0.028470683973374378  1.0000
  C   C145      1.0  0.32326523025523823  0.7276799356914979  0.4803485000500487  1.0000
  C   C146      1.0  0.8232617827149512  0.2723267791347012  0.019650598553447186  1.0000
  C   C147      1.0  0.6767302558759667  0.2723329155838243  0.5196486195240055  1.0000
  C   C148      1.0  0.17673989691443384  0.7276783202880281  0.9803502076154441  1.0000
  C   C149      1.0  0.23624087600192922  0.7553966486930078  0.4478099590794783  1.0000
  C   C150      1.0  0.7362430445989502  0.24461025855771368  0.05218852372499329  1.0000
  C   C151      1.0  0.7637468683104629  0.24461496892165255  0.5521896358216124  1.0000
  C   C152      1.0  0.2637594092372951  0.7553915293564585  0.9478112132883465  1.0000
  C   C153      1.0  0.09088518288170633  0.6990671161262654  0.5582516080000771  1.0000
  C   C154      1.0  0.590881455798865  0.3009285520496404  0.9417461582262374  1.0000
  C   C155      1.0  0.9091195935282316  0.300930114917918  0.4417491629974605  1.0000
  C   C156      1.0  0.40911867553101905  0.699067328776863  0.05825336632526758  1.0000
  N   N1        1.0  0.1670793852877281  0.716591802307981  0.521907944076645  1.0000
  N   N2        1.0  0.6670795705296584  0.28340842052733006  0.978092033273718  1.0000
  N   N3        1.0  0.8329184234279268  0.28341394311929946  0.47809255487973684  1.0000
  N   N4        1.0  0.33292365751617586  0.7165888105246266  0.021908737725539074  1.0000
  O   O1        1.0  0.028644550895883504  0.6607337994051008  0.756071305473746  1.0000
  O   O2        1.0  0.5286421302071033  0.3392620339095487  0.7439328612075611  1.0000
  O   O3        1.0  0.9713540319874596  0.3392733195675817  0.243931184286886  1.0000
  O   O4        1.0  0.4713672912662191  0.6607403766464942  0.2560658242272921  1.0000
  O   O5        1.0  0.10434199513377962  0.7104967090406404  0.831179243267435  1.0000
  O   O6        1.0  0.6043475985333799  0.28949239914337  0.6688226817227657  1.0000
  O   O7        1.0  0.8956798134013653  0.28948339998863304  0.16881909439327095  1.0000
  O   O8        1.0  0.3956548553294753  0.7105066649805135  0.3311738180342586  1.0000
  O   O9        1.0  0.6923600814332217  0.16610248073272524  0.8392904413902895  1.0000
  O   O10       1.0  0.1923475430056101  0.8338858840184498  0.6607157540125141  1.0000
  O   O11       1.0  0.3076400498560048  0.8338968864106773  0.16071573497033845  1.0000
  O   O12       1.0  0.8076417497429419  0.16611217955493626  0.33929066461682555  1.0000
  O   O13       1.0  0.773768610862618  0.4089600046837845  0.7425041176305525  1.0000
  O   O14       1.0  0.27377504654876367  0.5910390774329458  0.7574933893998261  1.0000
  O   O15       1.0  0.22622764947470134  0.5910489357144542  0.25749372871261034  1.0000
  O   O16       1.0  0.7262351491110195  0.40896085406603777  0.24250987449406125  1.0000
  O   O17       1.0  0.7623133218120942  0.3403217371442366  0.8082749427334119  1.0000
  O   O18       1.0  0.26231067609104747  0.659668805788577  0.691718395706239  1.0000
  O   O19       1.0  0.23768448693334684  0.6596812495303083  0.19172120243577234  1.0000
  O   O20       1.0  0.7376941003255342  0.34032774430804114  0.3082815659772179  1.0000
  O   O21       1.0  0.34291376602696744  0.47338938424836385  0.9055894978993989  1.0000
  O   O22       1.0  0.8429119665236088  0.5266090505665486  0.5944093440857471  1.0000
  O   O23       1.0  0.6570863652911074  0.5266090572103507  0.09440805343094638  1.0000
  O   O24       1.0  0.15709048738631284  0.4733822034650784  0.40558898138819177  1.0000
  O   O25       1.0  0.38904250171690086  0.45605946844725753  0.9977720426552066  1.0000
  O   O26       1.0  0.8890432798727659  0.5439359311077183  0.5022282977920226  1.0000
  O   O27       1.0  0.6109607263035032  0.5439422961547322  0.002226950003347411  1.0000
  O   O28       1.0  0.11096072239111981  0.4560566498488329  0.4977705297774547  1.0000
  O   O29       1.0  0.6277991658018109  0.13024736737021667  0.7595504835962854  1.0000
  O   O30       1.0  0.1277663768006008  0.8697382756582215  0.7404529253575304  1.0000
  O   O31       1.0  0.3722179974716084  0.8697558755984716  0.24045384944454895  1.0000
  O   O32       1.0  0.872222141755451  0.1302617258744334  0.25955257162223677  1.0000
  O   O33       1.0  0.7294703300449257  0.7362126988000527  0.9352053402990349  1.0000
  O   O34       1.0  0.2294705143380469  0.26378687455433436  0.564793753954902  1.0000
  O   O35       1.0  0.2705298012203556  0.2637924006304431  0.06479546587156898  1.0000
  O   O36       1.0  0.7705265202255307  0.7362136796875234  0.43520845838288824  1.0000
  O   O37       1.0  0.7327311308624331  0.7523218859039246  0.03271208613035977  1.0000
  O   O38       1.0  0.23272321677217184  0.24767789251502845  0.46728792299025196  1.0000
  O   O39       1.0  0.2672628069659808  0.24767996032372958  0.9672895117772595  1.0000
  O   O40       1.0  0.7672691727025837  0.7523220157650099  0.5327145965695121  1.0000
  O   O41       1.0  0.3447103194969756  0.8024768062667745  0.7862244081289373  1.0000
  O   O42       1.0  0.8447331656103289  0.19754221864010188  0.7137835149607026  1.0000
  O   O43       1.0  0.6552874892342829  0.19752512152049206  0.21377979501311012  1.0000
  O   O44       1.0  0.15527702997241735  0.8024707141404476  0.28621620983572876  1.0000
  O   O45       1.0  0.4213023141015881  0.8521451656249255  0.7209672882957177  1.0000
  O   O46       1.0  0.9212968318868064  0.14784413128944607  0.7790368619025541  1.0000
  O   O47       1.0  0.5786923979451829  0.14785141948463826  0.2790337899298122  1.0000
  O   O48       1.0  0.07870097679042942  0.8521668985603269  0.2209649010889691  1.0000
  O   O49       1.0  0.37062740718646137  0.8981364775854883  0.6226592930402858  1.0000
  O   O50       1.0  0.8706351793835835  0.10185988093409287  0.8773448750796999  1.0000
  O   O51       1.0  0.6293688532366631  0.10185875727531615  0.37734053873234064  1.0000
  O   O52       1.0  0.1293657261003744  0.8981393463556415  0.12265683515652624  1.0000
  O   O53       1.0  0.3158005002763461  0.7030482009824935  0.5678216640829348  1.0000
  O   O54       1.0  0.8157968763962983  0.2969563664404688  0.9321759619542006  1.0000
  O   O55       1.0  0.6842027277022781  0.2969613154410097  0.432173641973904  1.0000
  O   O56       1.0  0.1842040290793321  0.7030447754963446  0.06782408227766716  1.0000
  O   O57       1.0  0.49699766841090565  0.7062928099888451  0.6130328292409428  1.0000
  O   O58       1.0  0.9970028416837452  0.2937047709645029  0.8869668515818245  1.0000
  O   O59       1.0  0.5030032371152658  0.29369987587057966  0.3869693479246407  1.0000
  O   O60       1.0  0.0029980637853555  0.706298873333786  0.11302935854406826  1.0000
