data_image0
_chemical_formula_structural       Ni4H80C96N40O24
_chemical_formula_sum              "Ni4 H80 C96 N40 O24"
_cell_length_a       15.577852410337249
_cell_length_b       15.577906716845373
_cell_length_c       16.98452382621925
_cell_angle_alpha    107.25282319349463
_cell_angle_beta     107.25238284583772
_cell_angle_gamma    97.67516688227674

_space_group_name_H-M_alt    "P 1"
_space_group_IT_number       1

loop_
  _space_group_symop_operation_xyz
  'x, y, z'

loop_
  _atom_site_type_symbol
  _atom_site_label
  _atom_site_symmetry_multiplicity
  _atom_site_fract_x
  _atom_site_fract_y
  _atom_site_fract_z
  _atom_site_occupancy
  Ni  Ni1       1.0  0.39976540319677406  0.6002302220999739  0.24999387044528015  1.0000
  Ni  Ni2       1.0  0.5999319907327133  0.40007157296316365  0.7500061473692411  1.0000
  Ni  Ni3       1.0  0.0008872810691756002  0.9991099507675186  0.24999937911497472  1.0000
  Ni  Ni4       1.0  0.0010882052566785006  0.9989142413033463  0.749998745360223  1.0000
  H   H1        1.0  0.26397112004833184  0.6690424395511978  0.13584970534645166  1.0000
  H   H2        1.0  0.670821330836951  0.26405922456340397  0.6373621196587891  1.0000
  H   H3        1.0  0.7359434302827738  0.32918591970826583  0.8626507090595795  1.0000
  H   H4        1.0  0.3309501756179926  0.7360318304202165  0.36413527669071744  1.0000
  H   H5        1.0  0.24278190657838652  0.8165181569972263  0.11109616404872474  1.0000
  H   H6        1.0  0.818517511313054  0.2443500217762349  0.6128651430083707  1.0000
  H   H7        1.0  0.7556523206487639  0.18148566285989173  0.8871446809719359  1.0000
  H   H8        1.0  0.18347767874099216  0.7572293756015752  0.388893751994047  1.0000
  H   H9        1.0  0.5144290069187889  0.9511604755824336  0.309298400018335  1.0000
  H   H10       1.0  0.9514384726310823  0.5162575869557244  0.8109256941009306  1.0000
  H   H11       1.0  0.483746626226207  0.04856608952171375  0.6890808331707207  1.0000
  H   H12       1.0  0.048826202174303994  0.48558042651548305  0.19068861753106597  1.0000
  H   H13       1.0  0.5240866294765993  0.7981874069942521  0.32589399140244524  1.0000
  H   H14       1.0  0.7980377659204052  0.5250712378163341  0.826733424828312  1.0000
  H   H15       1.0  0.47493726507460826  0.20196235204246446  0.6732725114285715  1.0000
  H   H16       1.0  0.20179980962521427  0.47592126866259576  0.17409154000057475  1.0000
  H   H17       1.0  0.29500380164431317  0.9838631013831075  0.1546720379398394  1.0000
  H   H18       1.0  0.9860201172860669  0.2975994228814187  0.6564363014353775  1.0000
  H   H19       1.0  0.7024035713806994  0.01398193382496524  0.8435794301945023  1.0000
  H   H20       1.0  0.0161308875501618  0.7050063318086899  0.34532576208729887  1.0000
  H   H21       1.0  0.29562059355144027  0.39508689073137754  0.14368479646060445  1.0000
  H   H22       1.0  0.3941653889739385  0.2958112404957021  0.6435519876010573  1.0000
  H   H23       1.0  0.704189018563973  0.605843064045338  0.8564581819624167  1.0000
  H   H24       1.0  0.6049063081911966  0.7043728266066438  0.3563119072702107  1.0000
  H   H25       1.0  0.31214841880943567  0.23940831536445015  0.14913128646272608  1.0000
  H   H26       1.0  0.2390712640313382  0.3125654956032449  0.6501796373309149  1.0000
  H   H27       1.0  0.6874385207041697  0.760936497559072  0.8498320211896342  1.0000
  H   H28       1.0  0.7605828369681119  0.6878511475305514  0.3508670294028349  1.0000
  H   H29       1.0  0.5422197673756769  0.3812858742901283  0.3953817017621048  1.0000
  H   H30       1.0  0.38235786055679444  0.5431305114125351  0.895847573427254  1.0000
  H   H31       1.0  0.4568757410894406  0.6176453870863056  0.6041596896357149  1.0000
  H   H32       1.0  0.6187169213985512  0.45777846679179385  0.10461609867251542  1.0000
  H   H33       1.0  0.5139246986072905  0.5301500857790843  0.38035863441401585  1.0000
  H   H34       1.0  0.5308007456246598  0.514605398715524  0.8796708689982965  1.0000
  H   H35       1.0  0.485396633717876  0.46919975948668474  0.620338548717271  1.0000
  H   H36       1.0  0.46984634121717045  0.48606995223531146  0.11963482333147363  1.0000
  H   H37       1.0  0.5022174346928736  0.21301620436948807  0.3392178535689467  1.0000
  H   H38       1.0  0.21408268365241412  0.5011763348446718  0.8419468741429128  1.0000
  H   H39       1.0  0.498837232058392  0.7859140336858985  0.6580534344482984  1.0000
  H   H40       1.0  0.7869829324805977  0.4977808246545408  0.160784950714003  1.0000
  H   H41       1.0  0.852577297653319  0.8260402322519695  0.1798431719952234  1.0000
  H   H42       1.0  0.8372543142897372  0.8635568096429934  0.7051583535918837  1.0000
  H   H43       1.0  0.1364513564065675  0.16274976289143686  0.7948473593721985  1.0000
  H   H44       1.0  0.1739598892291099  0.14742431714567059  0.3201665254612536  1.0000
  H   H45       1.0  0.8238886822037584  0.6559516258134863  0.09696921824816934  1.0000
  H   H46       1.0  0.6683409402370372  0.83656118023503  0.6216782989400682  1.0000
  H   H47       1.0  0.163439831681039  0.3316611670071195  0.8783302227031484  1.0000
  H   H48       1.0  0.34404750875936685  0.17611140087625193  0.4030392551294781  1.0000
  H   H49       1.0  0.09707340726343722  0.7113220017099308  0.08400049981966617  1.0000
  H   H50       1.0  0.7328398022745901  0.09026408293485841  0.5738995243059078  1.0000
  H   H51       1.0  0.9097327056387313  0.2671583787680589  0.926100136090284  1.0000
  H   H52       1.0  0.2886799011473329  0.9029225663477688  0.4159894455615785  1.0000
  H   H53       1.0  0.1116908627439983  0.8810858175422351  0.16225058805338918  1.0000
  H   H54       1.0  0.9020326286469497  0.1023376175481303  0.6517573431486384  1.0000
  H   H55       1.0  0.8976650057603308  0.0979656150587047  0.8482409380325463  1.0000
  H   H56       1.0  0.1189140308295151  0.8883024568108195  0.3377416370469888  1.0000
  H   H57       1.0  0.8778434833232397  0.5253652022552657  0.025114388865930003  1.0000
  H   H58       1.0  0.5409670349478262  0.8855104247031348  0.5379725026150338  1.0000
  H   H59       1.0  0.1144877373047635  0.4590337775218174  0.962024990212278  1.0000
  H   H60       1.0  0.47463305417718255  0.12215615210853771  0.47489301384131005  1.0000
  H   H61       1.0  0.9644618225666548  0.17846722606497425  0.223189914067028  1.0000
  H   H62       1.0  0.1713176984886715  0.9735836367446566  0.7185459741443267  1.0000
  H   H63       1.0  0.0264127131139986  0.8286828959476151  0.7814527455277087  1.0000
  H   H64       1.0  0.8215242571179288  0.03553415092653012  0.2768141844148603  1.0000
  H   H65       1.0  0.9686258059378402  0.3397535494816424  0.3165985430586176  1.0000
  H   H66       1.0  0.33142087354773503  0.9783453160146606  0.8146476099518621  1.0000
  H   H67       1.0  0.0216472703171817  0.668579570897549  0.6853488681660025  1.0000
  H   H68       1.0  0.6602370796919671  0.03135872795795079  0.1833963846072635  1.0000
  H   H69       1.0  0.0663371129570862  0.2598365856495803  0.5449120098500587  1.0000
  H   H70       1.0  0.24045246828124792  0.0568673572086809  0.03793630294543253  1.0000
  H   H71       1.0  0.9431227479701221  0.7595437160351179  0.4620603938944539  1.0000
  H   H72       1.0  0.7401607839584797  0.9336531087760915  0.9550900831531804  1.0000
  H   H73       1.0  0.054802253556637495  0.10378835864071331  0.4430313473148857  1.0000
  H   H74       1.0  0.08514571865209317  0.042724534303168596  0.933781423164703  1.0000
  H   H75       1.0  0.9572757634321789  0.9148518043735051  0.5662172053704282  1.0000
  H   H76       1.0  0.8962094808063554  0.9451964791402929  0.05697077865634984  1.0000
  H   H77       1.0  0.05434586859576031  0.41955481708779274  0.5693309420884988  1.0000
  H   H78       1.0  0.403652645928979  0.052197350022709116  0.0659373614437655  1.0000
  H   H79       1.0  0.9477905441963727  0.5963432626284727  0.434055073491237  1.0000
  H   H80       1.0  0.5804419910161442  0.9456397570783603  0.930666308737777  1.0000
  C   C1        1.0  0.31818104759588556  0.7329522597577236  0.17216902849977336  1.0000
  C   C2        1.0  0.7342996288068518  0.3188464167331943  0.6737323348776981  1.0000
  C   C3        1.0  0.6811554277233753  0.26570618731682333  0.826274558100252  1.0000
  C   C4        1.0  0.2670428151283986  0.6818244826365715  0.3278197000240155  1.0000
  C   C5        1.0  0.30656041092451863  0.8150892634889358  0.15912934324057906  1.0000
  C   C6        1.0  0.8166534182483219  0.3079015626449717  0.6608790752112484  1.0000
  C   C7        1.0  0.6921008828470291  0.18335119491320737  0.8391343602201858  1.0000
  C   C8        1.0  0.1849075650141287  0.6934511353005206  0.34085830282432983  1.0000
  C   C9        1.0  0.3774850410222399  0.8962175375608225  0.2082554984813072  1.0000
  C   C10       1.0  0.897416999028337  0.3792808297332613  0.7098456546058287  1.0000
  C   C11       1.0  0.62071885546829  0.10258584895460389  0.7901647624292565  1.0000
  C   C12       1.0  0.10377811139337469  0.6225257357962659  0.29173755135578006  1.0000
  C   C13       1.0  0.45801555426424295  0.8898663935195399  0.26886589399300215  1.0000
  C   C14       1.0  0.8904161677638526  0.45955321162860224  0.7703273249416541  1.0000
  C   C15       1.0  0.5404538707133709  0.1095864312134225  0.7296829951186226  1.0000
  C   C16       1.0  0.11012366272984758  0.5419925186134406  0.2311257682257377  1.0000
  C   C17       1.0  0.4637155467220778  0.8049408947640158  0.2779032526019448  1.0000
  C   C18       1.0  0.8052753680362701  0.4647179969742936  0.7790780449568544  1.0000
  C   C19       1.0  0.5352909026947685  0.1947272939533349  0.7209248869194553  1.0000
  C   C20       1.0  0.19504387026793774  0.5362913303836335  0.22207866190514375  1.0000
  C   C21       1.0  0.3639030290242715  0.9826394736081807  0.19572403187413548  1.0000
  C   C22       1.0  0.9839622980265617  0.3664083257201298  0.6970988998507079  1.0000
  C   C23       1.0  0.6335950961816152  0.016044047239184112  0.8029189634095034  1.0000
  C   C24       1.0  0.017357545919217898  0.6361096070013516  0.3042696840231542  1.0000
  C   C25       1.0  0.3483382807192612  0.3886414308435491  0.19889084818845504  1.0000
  C   C26       1.0  0.3883397750692906  0.3491108965222836  0.69874021672792  1.0000
  C   C27       1.0  0.6508902455071349  0.6116735616482314  0.8012740860470943  1.0000
  C   C28       1.0  0.6113548663968019  0.6516615615849802  0.30110347377847557  1.0000
  C   C29       1.0  0.3592754028627994  0.3022920441100752  0.20101225120615143  1.0000
  C   C30       1.0  0.3021132235368142  0.3604303674238025  0.7011360727502591  1.0000
  C   C31       1.0  0.6395708218019606  0.6978977386841692  0.7988738610196862  1.0000
  C   C32       1.0  0.6977038517511501  0.6407241134933769  0.2989832650441003  1.0000
  C   C33       1.0  0.43138026938468954  0.29745720404202564  0.27132200378918725  1.0000
  C   C34       1.0  0.2979338100100223  0.4327092648164523  0.7716766006452714  1.0000
  C   C35       1.0  0.5672963330261994  0.7020726136811317  0.7283300615444334  1.0000
  C   C36       1.0  0.7025424711762371  0.5686201276100248  0.22867387762868677  1.0000
  C   C37       1.0  0.48718032612689643  0.3810751801985361  0.33786922231484334  1.0000
  C   C38       1.0  0.38176080144491925  0.48821965778960663  0.838061326100501  1.0000
  C   C39       1.0  0.5117899196018597  0.6182432755767735  0.6619462538768274  1.0000
  C   C40       1.0  0.6189243823787862  0.5128175717317661  0.16212665396395926  1.0000
  C   C41       1.0  0.47074230693269214  0.46435447133078606  0.33055086896244756  1.0000
  C   C42       1.0  0.4647469926950691  0.4715713753585432  0.8302411411623326  1.0000
  C   C43       1.0  0.5284316094896084  0.5352570467762662  0.6697701597900476  1.0000
  C   C44       1.0  0.535643494984221  0.5292524721316738  0.1694441267569289  1.0000
  C   C45       1.0  0.450296709575241  0.21025257342690648  0.27806500260167166  1.0000
  C   C46       1.0  0.211074760039736  0.4517900358242954  0.7792694191257823  1.0000
  C   C47       1.0  0.548215142759915  0.7889298717887525  0.7207370592507302  1.0000
  C   C48       1.0  0.7897460881429482  0.5497040646588686  0.22193441845178807  1.0000
  C   C49       1.0  0.9046454817043355  0.7977117805610803  0.15685428607103086  1.0000
  C   C50       1.0  0.8110144637963116  0.9116052005261537  0.6746256171836152  1.0000
  C   C51       1.0  0.08839438153901821  0.18898564133453272  0.8253746552557999  1.0000
  C   C52       1.0  0.20228932748998568  0.0953516905421168  0.34314710628773787  1.0000
  C   C53       1.0  0.8892951983562939  0.703525535630611  0.11162017639786379  1.0000
  C   C54       1.0  0.7173783533866569  0.8978518604651454  0.6291395961551914  1.0000
  C   C55       1.0  0.10214832049068429  0.2826193393176481  0.8708616759516872  1.0000
  C   C56       1.0  0.2964749597848808  0.11070332544571217  0.3883793428784159  1.0000
  C   C57       1.0  0.959375787693979  0.6700863114385527  0.08500935209818296  1.0000
  C   C58       1.0  0.686683004645772  0.9633576752978142  0.5931137150433656  1.0000
  C   C59       1.0  0.036639211319979395  0.31331632633644085  0.9068851295351905  1.0000
  C   C60       1.0  0.3299161880121204  0.040620422826073393  0.4149890944994965  1.0000
  C   C61       1.0  0.04160584239716769  0.7347736343229129  0.1042644341987113  1.0000
  C   C62       1.0  0.7540251695400498  0.039115726608940755  0.6025125060315872  1.0000
  C   C63       1.0  0.9608803110571672  0.24597341437009856  0.8974873695884683  1.0000
  C   C64       1.0  0.2652294401043633  0.9583918587150533  0.39573130581097615  1.0000
  C   C65       1.0  0.050701935240319095  0.8278635067112174  0.14836999088019806  1.0000
  C   C66       1.0  0.8468476027882729  0.04749902790781848  0.6467889307471424  1.0000
  C   C67       1.0  0.9525006378574972  0.1531524666608206  0.8532108140883922  1.0000
  C   C68       1.0  0.1721384792714105  0.9492953162413043  0.3516274275033879  1.0000
  C   C69       1.0  0.9452594931303153  0.5709691137795047  0.040057976291244274  1.0000
  C   C70       1.0  0.5878436255944737  0.9502860332465631  0.5480669287494352  1.0000
  C   C71       1.0  0.049711490111072  0.4121583469290825  0.9519301846696067  1.0000
  C   C72       1.0  0.42903310962283575  0.05473470986850515  0.4599407053046606  1.0000
  C   C73       1.0  0.9847239512752142  0.20001522553749151  0.29462536501100106  1.0000
  C   C74       1.0  0.1901178899086489  0.9888697219772381  0.7891982818240281  1.0000
  C   C75       1.0  0.011125594456260001  0.8098844418712118  0.7108012021297868  1.0000
  C   C76       1.0  0.7999828725418182  0.015268881661157339  0.20537731664036576  1.0000
  C   C77       1.0  0.987906761672818  0.2887713571739781  0.3462960115694713  1.0000
  C   C78       1.0  0.27823509427359033  0.9931300831451467  0.8426950794821552  1.0000
  C   C79       1.0  0.0068602435048959005  0.7217641779258201  0.6572983847292804  1.0000
  C   C80       1.0  0.7112250319603106  0.01208314855944082  0.15370693473210653  1.0000
  C   C81       1.0  0.0175487790536479  0.3127930924364009  0.4384877989245908  1.0000
  C   C82       1.0  0.29914552301983116  0.01775398069340641  0.9342340934352507  1.0000
  C   C83       1.0  0.9822372566571786  0.7008560804856216  0.565759328162713  1.0000
  C   C84       1.0  0.6872039996801221  0.9824482998932635  0.06151581305955029  1.0000
  C   C85       1.0  0.042696571135401505  0.24551090446512797  0.47412001473239224  1.0000
  C   C86       1.0  0.22892376512702836  0.0370320807724767  0.9677333128435636  1.0000
  C   C87       1.0  0.9629607262140638  0.7710755314970541  0.5322626123547991  1.0000
  C   C88       1.0  0.7544849714876778  0.9572975743982537  0.025882124638670286  1.0000
  C   C89       1.0  0.0364521737773984  0.1577745414054235  0.4174926475866627  1.0000
  C   C90       1.0  0.14170967913115362  0.030194774101126105  0.9103130350178006  1.0000
  C   C91       1.0  0.9698079862325387  0.85829012286964  0.5896848334177635  1.0000
  C   C92       1.0  0.8422231535215731  0.9635468408019817  0.08250685144591335  1.0000
  C   C93       1.0  0.023115933695478902  0.40411433282188364  0.4980547549169714  1.0000
  C   C94       1.0  0.3901644284651696  0.024103177582702508  0.9947998084542818  1.0000
  C   C95       1.0  0.9758866552391724  0.6098333487540514  0.505194235245206  1.0000
  C   C96       1.0  0.5958846978569454  0.9768760293722065  0.001941858917909577  1.0000
  N   N1        1.0  0.3951695356413579  0.7273694142708605  0.23096154024780446  1.0000
  N   N2        1.0  0.7280086001890141  0.3957647958919282  0.7321247339479627  1.0000
  N   N3        1.0  0.6042427124418026  0.27199584899342  0.7678806915973908  1.0000
  N   N4        1.0  0.2726193826868766  0.6048351282448367  0.26902023909362077  1.0000
  N   N5        1.0  0.40299583951886586  0.4691442189271342  0.2622182361634557  1.0000
  N   N6        1.0  0.46903245746084815  0.40357288066248737  0.7617715864803644  1.0000
  N   N7        1.0  0.5964340836668284  0.5309762729802685  0.7382417638183866  1.0000
  N   N8        1.0  0.5308532225244844  0.5969980330230058  0.2377772446611175  1.0000
  N   N9        1.0  0.46310618501399137  0.6731408668505023  0.4546696395450808  1.0000
  N   N10       1.0  0.6692305099096387  0.45648369978874104  0.9531037326349221  1.0000
  N   N11       1.0  0.54353449793048  0.33077794571038044  0.5469119912626326  1.0000
  N   N12       1.0  0.3268569812171975  0.5368821696306796  0.04531737110788468  1.0000
  N   N13       1.0  0.4305615367496216  0.056944081984987314  0.2343770442589275  1.0000
  N   N14       1.0  0.057652809658186796  0.43384757705946686  0.7348578835141524  1.0000
  N   N15       1.0  0.5661509821655458  0.9423506677372372  0.7651487974363961  1.0000
  N   N16       1.0  0.943052858298813  0.5694488959013525  0.2656151601177896  1.0000
  N   N17       1.0  0.405177863036748  0.1320330329622053  0.2152380043009572  1.0000
  N   N18       1.0  0.13285884796740532  0.409600409891091  0.7154599605488344  1.0000
  N   N19       1.0  0.5904019623860178  0.867145364135112  0.7845452019007053  1.0000
  N   N20       1.0  0.867966248069216  0.5948290045343754  0.2847572040896225  1.0000
  N   N21       1.0  0.9837051940713195  0.8593299095247316  0.17520117700055948  1.0000
  N   N22       1.0  0.8749146774289686  0.9852604076102054  0.6837912936509198  1.0000
  N   N23       1.0  0.014739240923262302  0.1250860686590798  0.8162092066010516  1.0000
  N   N24       1.0  0.14067049421058186  0.016293986841830598  0.3247999094484583  1.0000
  N   N25       1.0  0.0082867547492285  0.13519962758962828  0.329486797984451  1.0000
  N   N26       1.0  0.12261972391624448  0.006573734899234297  0.8226106664446249  1.0000
  N   N27       1.0  0.9934256975460797  0.8773845588118759  0.677389260508015  1.0000
  N   N28       1.0  0.8647975929041606  0.9917091303017072  0.17051352087445776  1.0000
  N   N29       1.0  0.10837601777740248  0.06630314406767468  0.1322454013259744  1.0000
  N   N30       1.0  0.08162860473000678  0.12268978975644979  0.6232906226944409  1.0000
  N   N31       1.0  0.8773108662332662  0.918373356769578  0.8767084400986248  1.0000
  N   N32       1.0  0.9336984499809945  0.8916242505833765  0.36775484932984176  1.0000
  N   N33       1.0  0.011216658921860299  0.5386885145509338  0.019280183452650573  1.0000
  N   N34       1.0  0.5568926120158578  0.013788597267946952  0.521366425695163  1.0000
  N   N35       1.0  0.9862051167846317  0.4431097295138855  0.9786286125394101  1.0000
  N   N36       1.0  0.4613150673190773  0.9887800658062174  0.48071361146512703  1.0000
  N   N37       1.0  0.9918450117892091  0.4652896482563094  0.46772882523068665  1.0000
  N   N38       1.0  0.4530853726495465  0.9970728367224738  0.9648844066223887  1.0000
  N   N39       1.0  0.0029130428596460013  0.5469108924988078  0.5351087485343413  1.0000
  N   N40       1.0  0.5347091160317631  0.0081453950923631  0.032263196304931796  1.0000
  O   O1        1.0  0.47419161590572395  0.6795531139744923  0.38305214121403003  1.0000
  O   O2        1.0  0.6775648183307084  0.47234270237253634  0.8839514647416636  1.0000
  O   O3        1.0  0.5276659472424825  0.3224445750785065  0.6160607976829483  1.0000
  O   O4        1.0  0.32044217991013824  0.5257984185244879  0.11693520523940751  1.0000
  O   O5        1.0  0.401198538586108  0.6100691619830767  0.44988391543320455  1.0000
  O   O6        1.0  0.6026770836736759  0.39646299574896193  0.9452877728335948  1.0000
  O   O7        1.0  0.6035438464673604  0.39734133287358725  0.5547317232424402  1.0000
  O   O8        1.0  0.3899290982778041  0.5987943365407347  0.05010559339280716  1.0000
  O   O9        1.0  0.5174559458308536  0.733142103246493  0.5265163898807615  1.0000
  O   O10       1.0  0.7313084229179481  0.5046245028302181  0.026243124601933208  1.0000
  O   O11       1.0  0.4954134795911073  0.2686900397221308  0.47377276682154706  1.0000
  O   O12       1.0  0.2668579057220128  0.482532484317204  0.9734730635385134  1.0000
  O   O13       1.0  0.04131903888442421  0.06804607116591649  0.1629133325369878  1.0000
  O   O14       1.0  0.07834083197431602  0.04826852147832741  0.6405685675629301  1.0000
  O   O15       1.0  0.951735832409959  0.9216639871197215  0.859434336000433  1.0000
  O   O16       1.0  0.9319567809884431  0.9586843804181554  0.3370919016415925  1.0000
  O   O17       1.0  0.15265502112023913  0.00443641408570271  0.13414602980246573  1.0000
  O   O18       1.0  0.014156921244044395  0.16142957635608468  0.6208054379118693  1.0000
  O   O19       1.0  0.8385610597704627  0.985836178144254  0.8791795431658757  1.0000
  O   O20       1.0  0.9955689791154541  0.8473509020743036  0.36585458323374087  1.0000
  O   O21       1.0  0.1267248963445624  0.1272917215439548  0.1014860285989911  1.0000
  O   O22       1.0  0.1509910286981651  0.1576238628722351  0.6095238628195007  1.0000
  O   O23       1.0  0.8423817514228135  0.84901309144103  0.8904822775984371  1.0000
  O   O24       1.0  0.8727044716580111  0.8732674466186552  0.39850668572377407  1.0000
