data_image0
_chemical_formula_structural       Zn8H52C56S4O30
_chemical_formula_sum              "Zn8 H52 C56 S4 O30"
_cell_length_a       17.853736021400014
_cell_length_b       18.62339574607385
_cell_length_c       19.406612052320344
_cell_angle_alpha    118.86116682095644
_cell_angle_beta     116.06767049082562
_cell_angle_gamma    89.9205996536895

_space_group_name_H-M_alt    "P 1"
_space_group_IT_number       1

loop_
  _space_group_symop_operation_xyz
  'x, y, z'

loop_
  _atom_site_type_symbol
  _atom_site_label
  _atom_site_symmetry_multiplicity
  _atom_site_fract_x
  _atom_site_fract_y
  _atom_site_fract_z
  _atom_site_occupancy
  Zn  Zn1       1.0  0.8700992913080371  0.45818331774077614  0.9213227005538304  1.0000
  Zn  Zn2       1.0  0.03684405480652939  0.44940222948996233  0.0690922942235375  1.0000
  Zn  Zn3       1.0  0.032615352937426706  0.6193276740634559  0.06662669541537983  1.0000
  Zn  Zn4       1.0  0.0464964338224192  0.4562854723985766  0.9094328700155075  1.0000
  Zn  Zn5       1.0  0.6232935956050696  0.031897858341395115  0.06659283173742382  1.0000
  Zn  Zn6       1.0  0.45910782989538756  0.8721633702147714  0.9150717409335416  1.0000
  Zn  Zn7       1.0  0.46289677725647493  0.04151485163589559  0.9133634401010584  1.0000
  Zn  Zn8       1.0  0.44150383465967735  0.035988152280999906  0.06817391444882051  1.0000
  H   H1        1.0  0.7864662757078875  0.6838431477379673  0.8799783647408008  1.0000
  H   H2        1.0  0.872306128665933  0.7692263320561141  0.983472999567994  1.0000
  H   H3        1.0  0.7826030370084  0.8606079824062933  0.9800301725542726  1.0000
  H   H4        1.0  0.6970249955632967  0.7744933818253373  0.8769507272687992  1.0000
  H   H5        1.0  0.8033487681301777  0.8938109121448503  0.12959148102376622  1.0000
  H   H6        1.0  0.7323720890708998  0.8328509485737214  0.13444827556358524  1.0000
  H   H7        1.0  0.8922856830249729  0.8012660658906868  0.13304698558609124  1.0000
  H   H8        1.0  0.8196982798596437  0.7400565028985471  0.13608208466173013  1.0000
  H   H9        1.0  0.6824414106216851  0.5934879312046989  0.883532868903096  1.0000
  H   H10       1.0  0.696367554778675  0.616448336023872  0.9880802292813231  1.0000
  H   H11       1.0  0.6072387577235291  0.7082439660459486  0.9856010877373084  1.0000
  H   H12       1.0  0.5934940345150679  0.685421720442143  0.8812087009716623  1.0000
  H   H13       1.0  0.09099804271934898  0.18264550403999655  0.8700884668700655  1.0000
  H   H14       1.0  0.10847831220341674  0.20862987104875708  0.9774442243821684  1.0000
  H   H15       1.0  0.19704809929613987  0.11604510813438662  0.9784399689127385  1.0000
  H   H16       1.0  0.17943769190136996  0.0911147686482537  0.8713177660132063  1.0000
  H   H17       1.0  0.3200576985407864  0.23795236588009064  0.12185528519709274  1.0000
  H   H18       1.0  0.39181809082857916  0.2997060718062414  0.11852140841966023  1.0000
  H   H19       1.0  0.23262702170042354  0.33173954714902015  0.12105757434320452  1.0000
  H   H20       1.0  0.3038968018256867  0.3917796924432722  0.11562421735005303  1.0000
  H   H21       1.0  0.19144032125969812  0.2699915113114317  0.8611641663752042  1.0000
  H   H22       1.0  0.2781887016669131  0.35564621486439313  0.961080061825996  1.0000
  H   H23       1.0  0.36726202199978525  0.26374438425706614  0.9630692976993986  1.0000
  H   H24       1.0  0.2806333473551774  0.17826192607168434  0.8632605546923389  1.0000
  H   H25       1.0  0.8255462785955885  0.19419518656481935  0.9148516473440227  1.0000
  H   H26       1.0  0.73447955951864  0.22335601829274063  0.8589311424718675  1.0000
  H   H27       1.0  0.6455113060429768  0.1273381754528132  0.8545044509051964  1.0000
  H   H28       1.0  0.7373024465591912  0.09953462757250989  0.9115140293655488  1.0000
  H   H29       1.0  0.5976610246211608  0.2483897574121843  0.9439222601312313  1.0000
  H   H30       1.0  0.6542871317341579  0.30549302199688816  0.06371635660946852  1.0000
  H   H31       1.0  0.687712589663562  0.34502219536195633  0.9495509411486298  1.0000
  H   H32       1.0  0.7444335471901197  0.40069660285873  0.06933013754485981  1.0000
  H   H33       1.0  0.9088345865488351  0.27569573229019545  0.08787869668037022  1.0000
  H   H34       1.0  0.8757712301003552  0.3600854614364551  0.15072675656898585  1.0000
  H   H35       1.0  0.7860731758739519  0.26476552834235895  0.14641680780204072  1.0000
  H   H36       1.0  0.8191725863974639  0.1804732585557076  0.08364439775388631  1.0000
  H   H37       1.0  0.08619862874651577  0.719108311374356  0.9013112457347606  1.0000
  H   H38       1.0  0.12203819129659617  0.6348240889037343  0.8406012810718552  1.0000
  H   H39       1.0  0.20934194646027762  0.731232005424623  0.8438756668703394  1.0000
  H   H40       1.0  0.17474638755528105  0.8153092254204142  0.9066810097831495  1.0000
  H   H41       1.0  0.3386971201925562  0.6905578022733537  0.924485365045115  1.0000
  H   H42       1.0  0.3980347778325921  0.7467670690382205  0.044145771301821006  1.0000
  H   H43       1.0  0.25102971864371426  0.5958739013285735  0.9233055756225284  1.0000
  H   H44       1.0  0.3098597835134242  0.6539393390110677  0.043116327327041404  1.0000
  H   H45       1.0  0.1694092033861381  0.8035866927163298  0.0742156488651418  1.0000
  H   H46       1.0  0.2596666620156185  0.7765785265290219  0.13270018130464226  1.0000
  H   H47       1.0  0.3502228437284387  0.8698951494125637  0.13581680372367805  1.0000
  H   H48       1.0  0.26004299037299466  0.8984419953012193  0.0792857150336346  1.0000
  H   H49       1.0  0.6140356790433901  0.2867020554094425  0.5734191051868722  1.0000
  H   H50       1.0  0.8673647152386365  0.2057405731270663  0.4116390385136271  1.0000
  H   H51       1.0  0.21082565533517794  0.8720260540070585  0.42117245239666107  1.0000
  H   H52       1.0  0.2835271497718779  0.6197000527251647  0.5620915455520079  1.0000
  C   C1        1.0  0.8586464103886298  0.36449574591496514  0.0039106713622843025  1.0000
  C   C2        1.0  0.1204586877325227  0.620279124951935  0.23649767785485662  1.0000
  C   C3        1.0  0.8560910712499563  0.6365731499700047  0.0007995376998906008  1.0000
  C   C4        1.0  0.13512233989982997  0.6306118353163654  0.9835932732584782  1.0000
  C   C5        1.0  0.8705565843981801  0.3731894723456934  0.7470292657199453  1.0000
  C   C6        1.0  0.1362325259887102  0.35472122068602385  0.9845884191554437  1.0000
  C   C7        1.0  0.6396181557262751  0.8579641854975366  0.9957025499405606  1.0000
  C   C8        1.0  0.38155959785908083  0.871309406840759  0.7456178059009776  1.0000
  C   C9        1.0  0.6415177307190305  0.1356829088297432  0.9949386559144815  1.0000
  C   C10       1.0  0.353004101852342  0.1322386373603167  0.987760782286202  1.0000
  C   C11       1.0  0.6120914917646871  0.11800848771941472  0.23602946954296303  1.0000
  C   C12       1.0  0.35114561658633653  0.8578063821538111  0.9885778107799585  1.0000
  C   C13       1.0  0.7288134223356977  0.2958399061836233  0.5916915328616669  1.0000
  C   C14       1.0  0.7521282789382865  0.1957468882668608  0.39188203474736855  1.0000
  C   C15       1.0  0.8186902070280412  0.3235865776621055  0.6476584953235901  1.0000
  C   C16       1.0  0.6623027329605691  0.16795330668457353  0.3355426402657643  1.0000
  C   C17       1.0  0.7760268794170102  0.2424621034079166  0.48518498000802174  1.0000
  C   C18       1.0  0.7045917094121138  0.24931330977388205  0.4982115228356464  1.0000
  C   C19       1.0  0.19859412940633803  0.7585243162176668  0.3955614933903038  1.0000
  C   C20       1.0  0.29807587259517027  0.7329686451594527  0.5870371959886357  1.0000
  C   C21       1.0  0.16918402588915882  0.6703903647442502  0.33572897662526924  1.0000
  C   C22       1.0  0.32929438774748127  0.8211165228880191  0.646607096692506  1.0000
  C   C23       1.0  0.2500712102238226  0.710246405635374  0.49528703225836085  1.0000
  C   C24       1.0  0.2454121929140386  0.7811106843530738  0.4872704125544801  1.0000
  C   C25       1.0  0.8042922907555266  0.7350108486953247  0.9494488546536888  1.0000
  C   C26       1.0  0.7448635804613419  0.7956134846545597  0.9474242591311114  1.0000
  C   C27       1.0  0.6968763001493843  0.7974576894461408  0.997849867041886  1.0000
  C   C28       1.0  0.7654300023064452  0.8289279936896962  0.0969164890068583  1.0000
  C   C29       1.0  0.8240599238775276  0.7676589500367257  0.09857537522648843  1.0000
  C   C30       1.0  0.7963412743840692  0.694950188115051  0.0005977524624113983  1.0000
  C   C31       1.0  0.7016431847902282  0.6460672408095078  0.9526554167590792  1.0000
  C   C32       1.0  0.6427951751432063  0.7068199138746041  0.9511263764800336  1.0000
  C   C33       1.0  0.1415210503642542  0.20531750169260493  0.9401741966593706  1.0000
  C   C34       1.0  0.2005062274665903  0.14406289777591053  0.9410398761214653  1.0000
  C   C35       1.0  0.29541593950484935  0.1928373528525215  0.9862829913748077  1.0000
  C   C36       1.0  0.32362127381916383  0.2656867478175188  0.08433114895630922  1.0000
  C   C37       1.0  0.2652538215425437  0.3271116230916675  0.08313072448819983  1.0000
  C   C38       1.0  0.19586963923178052  0.29588339254552676  0.9843019797839718  1.0000
  C   C39       1.0  0.24071227495790032  0.29134344447222554  0.9311138121237407  1.0000
  C   C40       1.0  0.2997171645102626  0.23052265305950223  0.9324855681984945  1.0000
  C   C41       1.0  0.7693169770751921  0.21677483812241155  0.9174879216799996  1.0000
  C   C42       1.0  0.7102999769946978  0.15350836345418653  0.9148155105470511  1.0000
  C   C43       1.0  0.7016499216113273  0.19909621548389114  0.0009558419078032988  1.0000
  C   C44       1.0  0.6625723623295343  0.2738361385756747  0.0038070165137611017  1.0000
  C   C45       1.0  0.7221867350201593  0.3372742266768398  0.007269026922266203  1.0000
  C   C46       1.0  0.8016622996943211  0.30549708120566527  0.005826385441253003  1.0000
  C   C47       1.0  0.8514836530100425  0.2969037911676722  0.08803169401132752  1.0000
  C   C48       1.0  0.7921233617825295  0.2338649225837059  0.08518820537041451  1.0000
  C   C49       1.0  0.14420476777145555  0.6984461035063277  0.902229905116336  1.0000
  C   C50       1.0  0.20288933178451884  0.762232315014522  0.9048524777103639  1.0000
  C   C51       1.0  0.29412317035565394  0.7980743339353823  0.9898985243086075  1.0000
  C   C52       1.0  0.3322428849054758  0.7223394013505529  0.9853646120534524  1.0000
  C   C53       1.0  0.2737486992570624  0.6599736045416692  0.9842417524618626  1.0000
  C   C54       1.0  0.19473089763201296  0.6920872781567978  0.9865919087031828  1.0000
  C   C55       1.0  0.22592049581294302  0.7813183570799253  0.0727301390226671  1.0000
  C   C56       1.0  0.2855305432738077  0.8437067833956605  0.0752615266975667  1.0000
  S   S1        1.0  0.873124283572224  0.29272047884776253  0.5862071751101611  1.0000
  S   S2        1.0  0.6075805361255178  0.19917206417697036  0.3967617109907736  1.0000
  S   S3        1.0  0.1979548619476503  0.6154802867524225  0.3913380437715689  1.0000
  S   S4        1.0  0.29932174360767766  0.8759005593557844  0.5909613835232436  1.0000
  O   O1        1.0  0.9972540673691979  0.4946687076243352  0.9903050566119165  1.0000
  O   O2        1.0  0.8204043003817105  0.38610641000082085  0.946530853123065  1.0000
  O   O3        1.0  0.10448095514287561  0.5391934350799729  0.19895025986925674  1.0000
  O   O4        1.0  0.9372117675123092  0.6727879835265043  0.05088141959075191  1.0000
  O   O5        1.0  0.9399325728888216  0.3861491699170827  0.05775117793812261  1.0000
  O   O6        1.0  0.8212847735859866  0.5565833255815065  0.9501371291799573  1.0000
  O   O7        1.0  0.0986419788051265  0.6608290039370813  0.19648810793880503  1.0000
  O   O8        1.0  0.1054980009073248  0.6641301838223441  0.03755567499027281  1.0000
  O   O9        1.0  0.9530387907986437  0.3900124476424267  0.7808246839312147  1.0000
  O   O10       1.0  0.11854184803544843  0.5509498277213609  0.927271643680058  1.0000
  O   O11       1.0  0.8295097035403032  0.3950100751703617  0.7905199564225927  1.0000
  O   O12       1.0  0.10561532050227379  0.3706937310954573  0.03731503842836761  1.0000
  O   O13       1.0  0.1208773211591848  0.3827297398982596  0.9326815952970765  1.0000
  O   O14       1.0  0.49645463573440923  0.9967824337545682  0.9925778154102435  1.0000
  O   O15       1.0  0.677524324095792  0.9373299326714106  0.04294356641381821  1.0000
  O   O16       1.0  0.40546904818009466  0.8308302966063367  0.7855955328287935  1.0000
  O   O17       1.0  0.5615987838711121  0.11246699950438468  0.9350465679118118  1.0000
  O   O18       1.0  0.5581046561076379  0.8248409398752303  0.9463649905309456  1.0000
  O   O19       1.0  0.6751926231049481  0.109924652706674  0.048988063246824316  1.0000
  O   O20       1.0  0.39879562787851347  0.9524201665261459  0.7831514954791177  1.0000
  O   O21       1.0  0.3849718884650315  0.11244330205763482  0.9358829705778078  1.0000
  O   O22       1.0  0.5293879904770976  0.10297667556837102  0.1994046013417687  1.0000
  O   O23       1.0  0.3645296686066075  0.1058599200507899  0.04058761289562091  1.0000
  O   O24       1.0  0.6554480675645421  0.09398794989671445  0.19515722666753998  1.0000
  O   O25       1.0  0.3733829986048818  0.8226900076600502  0.9281065667527034  1.0000
  O   O26       1.0  0.37177274863059756  0.9374079905764672  0.046541930655010305  1.0000
  O   O27       1.0  0.6732817078253676  0.31218733457096454  0.6242256328876226  1.0000
  O   O28       1.0  0.8083942237834094  0.17979162391115724  0.36026933041262776  1.0000
  O   O29       1.0  0.18389540466094456  0.8141309752100555  0.3680398803782128  1.0000
  O   O30       1.0  0.312662387855653  0.6775877917224308  0.6148852258200749  1.0000
