data_image0
_chemical_formula_structural       Zn16H20C96S16N4O60F8
_chemical_formula_sum              "Zn16 H20 C96 S16 N4 O60 F8"
_cell_length_a       19.62589190487596
_cell_length_b       19.687009775052175
_cell_length_c       33.338071953453
_cell_angle_alpha    79.1744233079982
_cell_angle_beta     79.35905284040277
_cell_angle_gamma    64.05188650016119

_space_group_name_H-M_alt    "P 1"
_space_group_IT_number       1

loop_
  _space_group_symop_operation_xyz
  'x, y, z'

loop_
  _atom_site_type_symbol
  _atom_site_label
  _atom_site_symmetry_multiplicity
  _atom_site_fract_x
  _atom_site_fract_y
  _atom_site_fract_z
  _atom_site_occupancy
  Zn  Zn1       1.0  0.0565585798971853  0.4012767754507536  0.47799176200989274  1.0000
  Zn  Zn2       1.0  0.983275586055889  0.48370336904827826  0.5602748508942452  1.0000
  Zn  Zn3       1.0  0.06083783277157551  0.5596774218763159  0.4820995736146542  1.0000
  Zn  Zn4       1.0  0.8993951613267728  0.5550623940935253  0.47981492824150956  1.0000
  Zn  Zn5       1.0  0.6950430036048233  0.3494163899131451  0.27106331519805577  1.0000
  Zn  Zn6       1.0  0.6910079814064575  0.18881185755606092  0.26703100476458985  1.0000
  Zn  Zn7       1.0  0.7680782303086319  0.26786585076239766  0.189815118308978  1.0000
  Zn  Zn8       1.0  0.8488799705602333  0.19406056518069909  0.27285651085185236  1.0000
  Zn  Zn9       1.0  0.26598284724286003  0.767757679780594  0.6895624601011362  1.0000
  Zn  Zn10      1.0  0.3479248866877782  0.6955977386259422  0.7720059208002751  1.0000
  Zn  Zn11      1.0  0.19281616075467412  0.8497124827625839  0.7709293942160754  1.0000
  Zn  Zn12      1.0  0.18999935384986344  0.6887782755792385  0.76660315164478  1.0000
  Zn  Zn13      1.0  0.5607332024831991  0.06032480326723535  0.9830754172609274  1.0000
  Zn  Zn14      1.0  0.4006420770726251  0.055560076338061065  0.9784279871923899  1.0000
  Zn  Zn15      1.0  0.5550843765445634  0.9020191542871245  0.9780436301016873  1.0000
  Zn  Zn16      1.0  0.48311008266626504  0.983936518983036  0.060362433336635435  1.0000
  H   H1        1.0  0.9528349655981432  0.24832785852758102  0.3525365120721417  1.0000
  H   H2        1.0  0.7475965956269875  0.455661150989961  0.3498880121317  1.0000
  H   H3        1.0  0.999565036802288  0.29772905435843455  0.401035919032914  1.0000
  H   H4        1.0  0.09938019068112422  0.5955407017190313  0.6993864907156675  1.0000
  H   H5        1.0  0.2000740016519202  0.7030967632205788  0.5969727851219913  1.0000
  H   H6        1.0  0.051885847314935105  0.5483891141309912  0.6501458658550376  1.0000
  H   H7        1.0  0.4652116095067101  0.23791343546968594  0.3414831808217683  1.0000
  H   H8        1.0  0.47865540180882976  0.7044312636801635  0.6018333717086859  1.0000
  H   H9        1.0  0.2020993201866048  0.9797390002582702  0.6006615694700341  1.0000
  H   H10       1.0  0.9490976663170164  0.9694855526775039  0.34982541264952965  1.0000
  H   H11       1.0  0.5488127148969967  0.05183551612601172  0.15266592332576315  1.0000
  H   H12       1.0  0.6549449811488018  0.15117698502238835  0.04885354235027957  1.0000
  H   H13       1.0  0.5977125969188465  0.10099477286811251  0.20015766554075742  1.0000
  H   H14       1.0  0.5456336583093773  0.7716344959241607  0.14846779703570687  1.0000
  H   H15       1.0  0.16186842898105883  0.13965983065157422  0.04047052110193758  1.0000
  H   H16       1.0  0.501321090009185  0.7974847915764015  0.8980855183663862  1.0000
  H   H17       1.0  0.294141456757771  0.0029272009121185483  0.8997739156188798  1.0000
  H   H18       1.0  0.45145789583306595  0.7512529570982949  0.8496192180917461  1.0000
  H   H19       1.0  0.3002715772425404  0.27949586640385604  0.9021872707219171  1.0000
  H   H20       1.0  0.7879960295771158  0.00974023608922882  0.9096078219598169  1.0000
  C   C1        1.0  0.0627091844988499  0.3169470336678728  0.5612474513321785  1.0000
  C   C2        1.0  0.0699553533696715  0.5688266793926643  0.5684270005970261  1.0000
  C   C3        1.0  0.184489288817332  0.4384651998137342  0.43781091768948943  1.0000
  C   C4        1.0  0.9372113043535322  0.6825715099950218  0.43908876924076873  1.0000
  C   C5        1.0  0.930691491286126  0.42987234885035275  0.43193542657980544  1.0000
  C   C6        1.0  0.8161057211059629  0.5607980910909233  0.5628273120861138  1.0000
  C   C7        1.0  0.5664474995254026  0.310455030162089  0.310516540698245  1.0000
  C   C8        1.0  0.68050137952757  0.18184924870293886  0.18122413198749845  1.0000
  C   C9        1.0  0.6915978929601466  0.4347195376855665  0.18840043507611162  1.0000
  C   C10       1.0  0.9344029535256342  0.18573462138084534  0.18970321587563888  1.0000
  C   C11       1.0  0.818922692574887  0.32006014747229716  0.3196500916605841  1.0000
  C   C12       1.0  0.8119013086612483  0.0655871628519051  0.3127145691588494  1.0000
  C   C13       1.0  0.43295786021456456  0.6910256090531566  0.6887577430819076  1.0000
  C   C14       1.0  0.31874073605252573  0.8201493040300818  0.8185064257688026  1.0000
  C   C15       1.0  0.18611469742832304  0.9341213440519596  0.687527205001075  1.0000
  C   C16       1.0  0.06707912516801433  0.8096906872157915  0.8120225506163761  1.0000
  C   C17       1.0  0.1809541629738973  0.6807007211723644  0.680041296947671  1.0000
  C   C18       1.0  0.3122493691301145  0.565237983558447  0.8105623741589553  1.0000
  C   C19       1.0  0.43803079373131487  0.18397069002715935  0.9386376904793818  1.0000
  C   C20       1.0  0.42982714615908446  0.9313709882358054  0.9305393446344609  1.0000
  C   C21       1.0  0.684038264940611  0.9395182270953697  0.9383665140858067  1.0000
  C   C22       1.0  0.560413122647418  0.817206788266432  0.061553832244222006  1.0000
  C   C23       1.0  0.5700465676271733  0.06968037034444312  0.0693233375830147  1.0000
  C   C24       1.0  0.3154183737700151  0.06246156964001411  0.0613178438553206  1.0000
  C   C25       1.0  0.901229039854748  0.40396605487891396  0.4021213469062628  1.0000
  C   C26       1.0  0.8476341331607885  0.34898103930058255  0.3483565690593763  1.0000
  C   C27       1.0  0.8304101397296082  0.44778277878859996  0.38716090932484076  1.0000
  C   C28       1.0  0.9188243225368709  0.304314222135133  0.3625810692996367  1.0000
  C   C29       1.0  0.8029757509119194  0.42108732265176474  0.36089186175485105  1.0000
  C   C30       1.0  0.9447949710042071  0.3317224378023481  0.38925843630995843  1.0000
  C   C31       1.0  0.09771880308345263  0.600069906565281  0.5964184975833147  1.0000
  C   C32       1.0  0.15229928030179  0.6521467776692731  0.6511398533636309  1.0000
  C   C33       1.0  0.1393338197971516  0.6441526756143433  0.5820570757561823  1.0000
  C   C34       1.0  0.11041736553231371  0.6086934630038526  0.6662964338203776  1.0000
  C   C35       1.0  0.167269021242852  0.6695639595135746  0.6087137263767202  1.0000
  C   C36       1.0  0.08391743928955721  0.582863912201951  0.6390909844947925  1.0000
  C   C37       1.0  0.3047403875411804  0.45298894557281955  0.3994563096936687  1.0000
  C   C38       1.0  0.44767112750848537  0.2951324802795767  0.3488699316597489  1.0000
  C   C39       1.0  0.2592566730486894  0.41361618987781423  0.4131693587546295  1.0000
  C   C40       1.0  0.4918488851034085  0.3356650077160522  0.33561914267491477  1.0000
  C   C41       1.0  0.37956256718541687  0.3381324770194993  0.3723874795214072  1.0000
  C   C42       1.0  0.37359611391741515  0.41071919269785445  0.3762634294361148  1.0000
  C   C43       1.0  0.7247878391468633  0.5762174466989264  0.6301796187077073  1.0000
  C   C44       1.0  0.5233780637083711  0.6751991307273851  0.6219470575824245  1.0000
  C   C45       1.0  0.7416299709779679  0.5858992320918546  0.5877551507647638  1.0000
  C   C46       1.0  0.5081514121720404  0.665251397501784  0.6643237767155978  1.0000
  C   C47       1.0  0.6026751944711038  0.64281418574037  0.6096710486908492  1.0000
  C   C48       1.0  0.6458498031004893  0.6085051500798855  0.6432255075230343  1.0000
  C   C49       1.0  0.0770188353503656  0.2253774558949715  0.6285253288854233  1.0000
  C   C50       1.0  0.17280548365783943  0.024417536230714576  0.6205962941844517  1.0000
  C   C51       1.0  0.0869002813290933  0.2424101116370707  0.5861042421354694  1.0000
  C   C52       1.0  0.16170629155895003  0.009200596789582963  0.6629406620385365  1.0000
  C   C53       1.0  0.14134709913060564  0.10355578709001634  0.6081988073608284  1.0000
  C   C54       1.0  0.107437063777013  0.14653601346785897  0.6416529313087833  1.0000
  C   C55       1.0  0.8442990379967767  0.7996686036866693  0.39722565185826386  1.0000
  C   C56       1.0  0.9046596536523028  0.9491137494825139  0.3538623469858421  1.0000
  C   C57       1.0  0.9122471432122623  0.7572714800498092  0.41435280217248044  1.0000
  C   C58       1.0  0.8362891688124137  0.9904858553589758  0.33731860968991606  1.0000
  C   C59       1.0  0.9072158229151839  0.879497202189299  0.37578135288107  1.0000
  C   C60       1.0  0.8404629598836167  0.8695535769196497  0.37518760554612374  1.0000
  C   C61       1.0  0.6544874645303409  0.15200378328835024  0.1516257669286247  1.0000
  C   C62       1.0  0.5990604063814758  0.0983658182887552  0.09801898485697078  1.0000
  C   C63       1.0  0.6703358328025929  0.16511567921570955  0.10878469062886607  1.0000
  C   C64       1.0  0.5829566158497315  0.08391849049512258  0.14066012925845678  1.0000
  C   C65       1.0  0.6427025343756939  0.13966075238597842  0.08198966778621039  1.0000
  C   C66       1.0  0.610198685468852  0.11087693666911488  0.16693659518151088  1.0000
  C   C67       1.0  0.6752260130683254  0.5259893065962089  0.12095390904910631  1.0000
  C   C68       1.0  0.5752627807669057  0.726950505488915  0.1285580406102581  1.0000
  C   C69       1.0  0.6658081775263726  0.5091440421438093  0.1634197612575434  1.0000
  C   C70       1.0  0.5856439093490593  0.7421252571584065  0.08617837995162599  1.0000
  C   C71       1.0  0.607904578935802  0.6478532944520621  0.1410684528152615  1.0000
  C   C72       1.0  0.6425149916036689  0.604763099028709  0.10770072497757609  1.0000
  C   C73       1.0  0.08123239839700601  0.12378946720824051  0.17759356737889215  1.0000
  C   C74       1.0  0.1696305625752359  0.12388463663923943  0.07289855755202267  1.0000
  C   C75       1.0  0.008955498795934602  0.16095542384056927  0.16478251529851914  1.0000
  C   C76       1.0  0.2409493965810016  0.08677013558286721  0.08655681575516638  1.0000
  C   C77       1.0  0.11142659319062181  0.13721303447770333  0.10631662698771997  1.0000
  C   C78       1.0  0.1402790427501515  0.10978634754422963  0.14470743217176354  1.0000
  C   C79       1.0  0.3450678726168023  0.8495397870448966  0.8481748095003494  1.0000
  C   C80       1.0  0.40077679624953794  0.9027939646892521  0.9018157575123804  1.0000
  C   C81       1.0  0.30144449835633946  0.920248308770532  0.8629097131932963  1.0000
  C   C82       1.0  0.4452259183787817  0.831673197054485  0.8878794893694463  1.0000
  C   C83       1.0  0.32855486469591  0.9475728471655103  0.8890217222396544  1.0000
  C   C84       1.0  0.4175400980229327  0.8059301926144328  0.8612158494520368  1.0000
  C   C85       1.0  0.40557031405419514  0.448198932785722  0.8521533348528079  1.0000
  C   C86       1.0  0.34480838686805276  0.299851103235831  0.897532304946594  1.0000
  C   C87       1.0  0.3371824188467301  0.49074889588757026  0.835513071369135  1.0000
  C   C88       1.0  0.4135773650917187  0.2587034090153252  0.9136783436073017  1.0000
  C   C89       1.0  0.3421810367717342  0.3691289478539233  0.8750976656299512  1.0000
  C   C90       1.0  0.40938730474596957  0.3787836524326806  0.8747990839925207  1.0000
  C   C91       1.0  0.9455111897177204  0.7965626483373139  0.8493395645471579  1.0000
  C   C92       1.0  0.8045042058004699  0.9532175099391867  0.9014727981994283  1.0000
  C   C93       1.0  0.9924940937138302  0.8345773561349717  0.8368864862915684  1.0000
  C   C94       1.0  0.7588774275819787  0.9139773815482923  0.9135067457078987  1.0000
  C   C95       1.0  0.872709137020884  0.909967368539185  0.8780551293055722  1.0000
  C   C96       1.0  0.8770493226483965  0.8386423327429211  0.8728425247016673  1.0000
  S   S1        1.0  0.3013592507441772  0.3230986229679614  0.3975160963173607  1.0000
  S   S2        1.0  0.45150581172522664  0.42590592432586755  0.3514842139055147  1.0000
  S   S3        1.0  0.6595152855022662  0.6353493689192928  0.5631784556207718  1.0000
  S   S4        1.0  0.5894259899186312  0.6165091565152495  0.6896448920437094  1.0000
  S   S5        1.0  0.1344077901615393  0.16046326371434821  0.5616582200278869  1.0000
  S   S6        1.0  0.1135258396688741  0.09014984517401808  0.6881092156204927  1.0000
  S   S7        1.0  0.9726751762725884  0.8036003488808846  0.40346225320133283  1.0000
  S   S8        1.0  0.7747412405499575  0.9454227249524717  0.3480193230022052  1.0000
  S   S9        1.0  0.6157694691745662  0.5911176965660019  0.1876970644236876  1.0000
  S   S10       1.0  0.6347716693862681  0.6610289323411109  0.061149919854940955  1.0000
  S   S11       1.0  0.013042175700952901  0.17904152302939738  0.1114100754707792  1.0000
  S   S12       1.0  0.2382611524199589  0.067757431654023  0.1398433119304485  1.0000
  S   S13       1.0  0.27612520348703384  0.4451089329193321  0.847775062771511  1.0000
  S   S14       1.0  0.4754825176676434  0.30330320478068257  0.9019456759835051  1.0000
  S   S15       1.0  0.952398403884267  0.923595613537088  0.8543097496978902  1.0000
  S   S16       1.0  0.797936260282988  0.8246349411728672  0.896603155271151  1.0000
  N   N1        1.0  0.7813489533043311  0.5262564723339765  0.39719039958196584  1.0000
  N   N2        1.0  0.1540510199072216  0.6688433653745348  0.537757576201592  1.0000
  N   N3        1.0  0.7193617811541985  0.20481406251608542  0.08918883297146606  1.0000
  N   N4        1.0  0.22272932970108886  0.9693749276038303  0.8528396588453901  1.0000
  O   O1        1.0  0.00020040551856230024  0.4995217580494824  0.4999192318515424  1.0000
  O   O2        1.0  0.0739671836266709  0.31596010367718463  0.5221801682139356  1.0000
  O   O3        1.0  0.0231771840355037  0.5400681030770187  0.5852411267696025  1.0000
  O   O4        1.0  0.15397748288825144  0.5066153517251166  0.44657245788898337  1.0000
  O   O5        1.0  0.03312113557157661  0.3753739967154601  0.5804833389274363  1.0000
  O   O6        1.0  0.15670745232554853  0.38873885736560965  0.4481224885858595  1.0000
  O   O7        1.0  0.09626051983580201  0.5726325605517103  0.5306337168096036  1.0000
  O   O8        1.0  0.0019366369735394  0.6584493042414863  0.45259196327575774  1.0000
  O   O9        1.0  0.8833319733431255  0.48777212873770986  0.4492066522744975  1.0000
  O   O10       1.0  0.8930846434869723  0.6487175806904375  0.4448147798974771  1.0000
  O   O11       1.0  0.0004407738566883004  0.3906680132920926  0.43778769429142955  1.0000
  O   O12       1.0  0.8748804769794136  0.520927628713501  0.5815773561168809  1.0000
  O   O13       1.0  0.8147291964361187  0.5816193006492937  0.5240820196166567  1.0000
  O   O14       1.0  0.7505351081695154  0.2498964593666457  0.250247863001796  1.0000
  O   O15       1.0  0.5981142505077558  0.35686922336444815  0.3032858945745858  1.0000
  O   O16       1.0  0.6710324771149062  0.15741233497584517  0.21911534721087375  1.0000
  O   O17       1.0  0.7308147573427918  0.37641220119166957  0.16953961925677422  1.0000
  O   O18       1.0  0.592655862303566  0.2449879057287135  0.2982326531490287  1.0000
  O   O19       1.0  0.6721414214061526  0.435537938839225  0.2272770000507477  1.0000
  O   O20       1.0  0.7085898328901126  0.22963674958432984  0.16607885608790698  1.0000
  O   O21       1.0  0.876334514930335  0.21801104784025668  0.16954932315739768  1.0000
  O   O22       1.0  0.8619220960930535  0.2536556914123267  0.30972583194620273  1.0000
  O   O23       1.0  0.9340349229780857  0.17333277854230988  0.22868676946250588  1.0000
  O   O24       1.0  0.7540888379149067  0.36436469198981314  0.30764929332026003  1.0000
  O   O25       1.0  0.745234936108915  0.09325379591403764  0.3011307159156189  1.0000
  O   O26       1.0  0.8588864069185151  0.09650370806902928  0.3051213275307488  1.0000
  O   O27       1.0  0.24920171847448103  0.7504046795770736  0.7498428975600716  1.0000
  O   O28       1.0  0.37481537406287674  0.7236794971444952  0.6689086046460131  1.0000
  O   O29       1.0  0.3591762044587057  0.7511794665388508  0.8119953634164357  1.0000
  O   O30       1.0  0.16705043399208114  0.9340480426426222  0.7263630081591826  1.0000
  O   O31       1.0  0.4329052216316357  0.6782210175198455  0.7278954031488779  1.0000
  O   O32       1.0  0.2238667745733309  0.8761701023668423  0.668071156457067  1.0000
  O   O33       1.0  0.25922938257755856  0.8666689602710207  0.8020137935605189  1.0000
  O   O34       1.0  0.09880988465462082  0.8560990092194204  0.8057104441991709  1.0000
  O   O35       1.0  0.1659652420551154  0.6627197299626958  0.7183315141607236  1.0000
  O   O36       1.0  0.0933000561819952  0.7450264487400489  0.7989563964482185  1.0000
  O   O37       1.0  0.21769075499057075  0.7206976924543298  0.663775552665882  1.0000
  O   O38       1.0  0.3588776083361012  0.5964442340807852  0.8021808307419036  1.0000
  O   O39       1.0  0.245215386871152  0.5920028631490266  0.7995120825507767  1.0000
  O   O40       1.0  0.4998726736618337  0.0004601269838247012  1.4184820017204611e-05  1.0000
  O   O41       1.0  0.5045200122973413  0.1568564630192737  0.9503513124514456  1.0000
  O   O42       1.0  0.38598875240928265  0.9966374399870688  0.9418029234444841  1.0000
  O   O43       1.0  0.6521598165637883  0.8932100011022894  0.9456398937138244  1.0000
  O   O44       1.0  0.39109866464767873  0.15302169081591183  0.946310353861683  1.0000
  O   O45       1.0  0.6576514439900337  0.005101264357513393  0.9504801058807928  1.0000
  O   O46       1.0  0.49582344135196627  0.8878868517274083  0.9412626372757483  1.0000
  O   O47       1.0  0.5755858872560041  0.8172605595818752  0.022497350061996678  1.0000
  O   O48       1.0  0.5312698849954957  0.031807632467305814  0.08579277362387928  1.0000
  O   O49       1.0  0.5259901674841317  0.8752374659998378  0.08118966782151923  1.0000
  O   O50       1.0  0.5867343590724943  0.08552545532802473  0.030949228519176614  1.0000
  O   O51       1.0  0.31495850191112146  0.0772203111872399  0.0223609622426508  1.0000
  O   O52       1.0  0.3741337149990045  0.028437151234847125  0.08090980416187679  1.0000
  O   O53       1.0  0.8015644777516897  0.57661419566427  0.37959146037167096  1.0000
  O   O54       1.0  0.72213826846032  0.5353397086962131  0.4205858744657219  1.0000
  O   O55       1.0  0.09966177007617462  0.7201524233596077  0.5212942957607183  1.0000
  O   O56       1.0  0.22050477893770903  0.6390500055648047  0.5215589397260556  1.0000
  O   O57       1.0  0.7887830050985587  0.1683263631916602  0.09023517396805396  1.0000
  O   O58       1.0  0.6870330067205259  0.2695877127824745  0.0714566426564787  1.0000
  O   O59       1.0  0.1721555198370694  0.9495839208436507  0.8707277492954899  1.0000
  O   O60       1.0  0.21363412937842702  0.028244799233853306  0.8291489348942561  1.0000
  F   F1        1.0  0.28661143192213256  0.5237832726897054  0.40710658025313506  1.0000
  F   F2        1.0  0.7771487788713146  0.5404317132594298  0.6567600715063546  1.0000
  F   F3        1.0  0.04184425772168511  0.277472592909632  0.6550218433456292  1.0000
  F   F4        1.0  0.7871769420361333  0.7779894755914327  0.4009905332765341  1.0000
  F   F5        1.0  0.7112760214559588  0.47388528777360517  0.09456231739284246  1.0000
  F   F6        1.0  0.0951852880458475  0.1025819939077195  0.21706089338246667  1.0000
  F   F7        1.0  0.46311024374069387  0.46957260729556066  0.8476883134041414  1.0000
  F   F8        1.0  0.9622027108986303  0.7268105208611144  0.8403891682669095  1.0000
