data_image0
_chemical_formula_structural       Ag6H60C30S6I6N12
_chemical_formula_sum              "Ag6 H60 C30 S6 I6 N12"
_cell_length_a       8.574034030000877
_cell_length_b       13.151727598665264
_cell_length_c       13.7726
_cell_angle_alpha    111.37527727416513
_cell_angle_beta     107.88573737448506
_cell_angle_gamma    90.04375064457133

_space_group_name_H-M_alt    "P 1"
_space_group_IT_number       1

loop_
  _space_group_symop_operation_xyz
  'x, y, z'

loop_
  _atom_site_type_symbol
  _atom_site_label
  _atom_site_symmetry_multiplicity
  _atom_site_fract_x
  _atom_site_fract_y
  _atom_site_fract_z
  _atom_site_occupancy
  Ag  Ag1       1.0  0.4185209488639927  0.4700705309498829  0.5694497908612988  1.0000
  Ag  Ag2       1.0  0.5814816969554641  0.5299324437059383  0.4305510968475232  1.0000
  Ag  Ag3       1.0  0.4463454134581397  0.11547855083344423  0.43597032903377897  1.0000
  Ag  Ag4       1.0  0.5536529272145927  0.8845211309973351  0.5640300416610556  1.0000
  Ag  Ag5       1.0  0.6689214646593342  0.6917179930315527  0.7719046795656934  1.0000
  Ag  Ag6       1.0  0.3310808353958734  0.3082767495616707  0.22809037259430195  1.0000
  H   H1        1.0  0.09445885575073731  0.45038108364248336  0.2052252421107212  1.0000
  H   H2        1.0  0.9055407104634695  0.549618598188296  0.7947746368224387  1.0000
  H   H3        1.0  0.8116272021687365  0.5275303278416104  0.19241140772459173  1.0000
  H   H4        1.0  0.1883708242428455  0.472467707576655  0.8075861516224448  1.0000
  H   H5        1.0  0.9492617004464492  0.5589595196113706  0.1305350595557684  1.0000
  H   H6        1.0  0.0507381800289011  0.4410418086319297  0.8694654524872405  1.0000
  H   H7        1.0  0.05803946167860371  0.737902333791105  0.2943830380635575  1.0000
  H   H8        1.0  0.9419613300770848  0.2620973480396742  0.7056207055838399  1.0000
  H   H9        1.0  0.8457883720760719  0.7230014772934369  0.2206516336117943  1.0000
  H   H10       1.0  0.1542099685966534  0.2769982045373425  0.7793494631623544  1.0000
  H   H11       1.0  0.7849202530528318  0.6628127516524813  0.36494940668376324  1.0000
  H   H12       1.0  0.21508085296400034  0.3371885765908189  0.6350542439941618  1.0000
  H   H13       1.0  0.8745468241697479  0.8007994080248082  0.41504200664073915  1.0000
  H   H14       1.0  0.1254538104553689  0.1991994505997141  0.5849592422137845  1.0000
  H   H15       1.0  0.15214191908092542  0.7517733592585216  0.4868017675801609  1.0000
  H   H16       1.0  0.8478576471332815  0.2482263225722647  0.51319883743232  1.0000
  H   H17       1.0  0.010957775638821887  0.7251121781420125  0.5488028724221437  1.0000
  H   H18       1.0  0.9890454671998228  0.2748875036887739  0.4511984355432759  1.0000
  H   H19       1.0  0.1299495466689535  0.5722197260344615  0.5206440190658624  1.0000
  H   H20       1.0  0.87004970528411  0.4277783093837968  0.47935522675745545  1.0000
  H   H21       1.0  0.549046747392417  0.46010314956356524  0.7730227769456873  1.0000
  H   H22       1.0  0.45095143614974387  0.5398957090609571  0.22697655111490883  1.0000
  H   H23       1.0  0.6766330470559437  0.5007267320422599  0.9559530464057813  1.0000
  H   H24       1.0  0.3233692845023697  0.49927459620104037  0.04404648211388457  1.0000
  H   H25       1.0  0.7902978554876867  0.38933951631700137  0.9231499794352087  1.0000
  H   H26       1.0  0.2097029362679947  0.610660165513778  0.0768465034190129  1.0000
  H   H27       1.0  0.44949533594022034  0.3826542582860882  0.9521513617061003  1.0000
  H   H28       1.0  0.5505068384875145  0.6173462467509481  0.04784857633796244  1.0000
  H   H29       1.0  0.6362927461667383  0.35391118854008147  0.02979581514787809  1.0000
  H   H30       1.0  0.3637092711304248  0.6460884932906978  0.970202354182632  1.0000
  H   H31       1.0  0.4998436869291751  0.1752721374699888  0.912797051555678  1.0000
  H   H32       1.0  0.5001571048265134  0.8247275443607907  0.08720233561581371  1.0000
  H   H33       1.0  0.4009033400284281  0.212370750746814  0.8007104556476888  1.0000
  H   H34       1.0  0.5990989915298854  0.7876305774964791  0.19928907287197703  1.0000
  H   H35       1.0  0.7744730829219222  0.2019703628681597  0.8760913121044211  1.0000
  H   H36       1.0  0.22552770883376647  0.7980293189626197  0.12390662290843572  1.0000
  H   H37       1.0  0.6262890925203523  0.0893203487413032  0.7769886464667335  1.0000
  H   H38       1.0  0.3737106308244265  0.910680156295733  0.2230100968627155  1.0000
  H   H39       1.0  0.6570046852253739  0.15253682700357274  0.6540909117923235  1.0000
  H   H40       1.0  0.3429939697085018  0.8474645012397275  0.34590863985371806  1.0000
  H   H41       1.0  0.0775455653953401  0.1174427209678868  0.07716016671793109  1.0000
  H   H42       1.0  0.9224543150800103  0.8825586072754137  0.9228403453250776  1.0000
  H   H43       1.0  0.8174520446218098  0.1370860687247628  0.018777025697914958  1.0000
  H   H44       1.0  0.1825475215923973  0.8629136131060164  0.981223579314566  1.0000
  H   H45       1.0  0.8589131575962912  0.2111211236453627  0.16188311619398382  1.0000
  H   H46       1.0  0.141084868815291  0.7888769117729026  0.8381158953116878  1.0000
  H   H47       1.0  0.595619761440524  0.089447945711477  0.0739864147604194  1.0000
  H   H48       1.0  0.4043820987260744  0.9105509129130382  0.9260136162531153  1.0000
  H   H49       1.0  0.696569735297011  0.9714961651061955  0.032211731252495136  1.0000
  H   H50       1.0  0.30342951665605267  0.0285018703120699  0.9677875145708227  1.0000
  H   H51       1.0  0.6291278114845227  0.9977737321059196  0.20483484552741507  1.0000
  H   H52       1.0  0.37086930364672815  0.0022259497248598  0.7951645647704595  1.0000
  H   H53       1.0  0.7507020556959603  0.1272322898022153  0.2728740302676087  1.0000
  H   H54       1.0  0.2492938338938089  0.8727673920285639  0.7271258717919337  1.0000
  H   H55       1.0  0.8893241136721954  0.967971195904326  0.31183246919292873  1.0000
  H   H56       1.0  0.1106730014590624  0.0320284859264532  0.6881676671842525  1.0000
  H   H57       1.0  0.8805686469115699  0.9094848608073889  0.17111842680152722  1.0000
  H   H58       1.0  0.11942846821968088  0.09051482102339752  0.8288824356549754  1.0000
  H   H59       1.0  0.1324431304078075  0.05193032044872581  0.3449401914021522  1.0000
  H   H60       1.0  0.8675515336404872  0.9480693613820607  0.655058750260423  1.0000
  C   C1        1.0  0.1069632697356653  0.512809753514702  0.36246335556732123  1.0000
  C   C2        1.0  0.8930362964785418  0.48718992831607727  0.6375372494451597  1.0000
  C   C3        1.0  0.9336128107660429  0.570947049157752  0.21005703929702688  1.0000
  C   C4        1.0  0.0663879809896457  0.4290526326730344  0.7899452521917354  1.0000
  C   C5        1.0  0.9376065171020826  0.6925387296719664  0.2756621719170482  1.0000
  C   C6        1.0  0.062393206242695995  0.3074617753650699  0.724338023571036  1.0000
  C   C7        1.0  0.8983375765847299  0.7148945420528962  0.38160345505504967  1.0000
  C   C8        1.0  0.1016621467600487  0.2851059629841473  0.6183981925916695  1.0000
  C   C9        1.0  0.03937397347720409  0.6995302204312992  0.47143916438732686  1.0000
  C   C10       1.0  0.9606255927370028  0.3004694613994801  0.528561440625154  1.0000
  C   C11       1.0  0.6005383450134191  0.3055552296687765  0.7084677010724292  1.0000
  C   C12       1.0  0.39946015278987795  0.6944452753682597  0.2915308079393809  1.0000
  C   C13       1.0  0.6637978910842363  0.411845975443363  0.908993430047438  1.0000
  C   C14       1.0  0.33620428334349844  0.5881545295936803  0.09100432975866816  1.0000
  C   C15       1.0  0.5634305109437818  0.3467130730096883  0.9458996125970028  1.0000
  C   C16       1.0  0.4365728890254275  0.6532874320273478  0.054099833685391674  1.0000
  C   C17       1.0  0.5188693067128796  0.2250398950758097  0.8673212416200753  1.0000
  C   C18       1.0  0.4811337789951864  0.7749589635487126  0.13267684547315636  1.0000
  C   C19       1.0  0.64938839621437  0.1796919318756025  0.8143243980158273  1.0000
  C   C20       1.0  0.350613778213365  0.8203085731614408  0.18567408786960013  1.0000
  C   C21       1.0  0.11008241615673599  0.0844469676868798  0.21085630786028986  1.0000
  C   C22       1.0  0.8899168357963276  0.9155510677313856  0.7891443901216632  1.0000
  C   C23       1.0  0.8478437319567292  0.1281394630998491  0.09841294943697682  1.0000
  C   C24       1.0  0.15215476584657492  0.8718610419371943  0.9015870117334613  1.0000
  C   C25       1.0  0.7106697443045604  0.0539282420397882  0.0971144440032106  1.0000
  C   C26       1.0  0.2893313617122715  0.9460730862035122  0.9028848501988093  1.0000
  C   C27       1.0  0.7376468848327988  0.0450063326026466  0.20810007717491164  1.0000
  C   C28       1.0  0.2623514558399265  0.9549933492281397  0.7918995674406017  1.0000
  C   C29       1.0  0.8873128261413683  0.9875338694478089  0.24051456067743957  1.0000
  C   C30       1.0  0.1126830634484079  0.0124658123829704  0.7594860674614168  1.0000
  S   S1        1.0  0.20754449319296953  0.4025091700515873  0.3809125089558307  1.0000
  S   S2        1.0  0.7924575241041937  0.597490511779192  0.6190871125333075  1.0000
  S   S3        1.0  0.5595572526902188  0.3089377841878047  0.5787761778771028  1.0000
  S   S4        1.0  0.44043741135807585  0.6910618976429747  0.4212220377061513  1.0000
  S   S5        1.0  0.3215809950810424  0.11624577906701461  0.2468543423363201  1.0000
  S   S6        1.0  0.678415805789065  0.8837522563512437  0.7531451609310267  1.0000
  I   I1        1.0  0.3349126165976486  0.6293494172162539  0.7342405681758633  1.0000
  I   I2        1.0  0.6650872638777088  0.3706519110270463  0.2657606699464594  1.0000
  I   I3        1.0  0.7357871703808243  0.0028713434320693  0.4847595197109129  1.0000
  I   I4        1.0  0.2642157896997759  0.9971332776362658  0.5152441793457071  1.0000
  I   I5        1.0  0.8747621030582522  0.7031654992719041  0.9793836041471166  1.0000
  I   I6        1.0  0.1252457591882603  0.296839121796431  0.02062103218009531  1.0000
  N   N1        1.0  0.0606145692501912  0.514582116590752  0.26128549754279357  1.0000
  N   N2        1.0  0.9393846827028726  0.4854159188275133  0.7387137482805244  1.0000
  N   N3        1.0  0.0778991476717081  0.5864134483554793  0.4499170171842265  1.0000
  N   N4        1.0  0.9221030267560337  0.41358705668155693  0.5500850990977852  1.0000
  N   N5        1.0  0.5906913103252549  0.3948796944413786  0.7923309458317647  1.0000
  N   N6        1.0  0.4093070303474775  0.6051199873894006  0.20766797270442788  1.0000
  N   N7        1.0  0.6464357809776899  0.2135141842408359  0.722990965413679  1.0000
  N   N8        1.0  0.3535640994976674  0.7864871440024643  0.2770080944706947  1.0000
  N   N9        1.0  0.0123338104396211  0.0911017670862009  0.11644585641741399  1.0000
  N   N10       1.0  0.9876668241854888  0.9088970915383214  0.8835532141991604  1.0000
  N   N11       1.0  0.0472068535483743  0.0525345538429676  0.27414364797913743  1.0000
  N   N12       1.0  0.952789036041395  0.9474651279878117  0.7258562540803978  1.0000
