data_image0
_chemical_formula_structural       CuH24C16N12Cl2O10
_chemical_formula_sum              "Cu1 H24 C16 N12 Cl2 O10"
_cell_length_a       8.570771666259699
_cell_length_b       9.178670225276296
_cell_length_c       10.215208355754154
_cell_angle_alpha    107.6823509203592
_cell_angle_beta     99.03662191714966
_cell_angle_gamma    116.42057875183332

_space_group_name_H-M_alt    "P 1"
_space_group_IT_number       1

loop_
  _space_group_symop_operation_xyz
  'x, y, z'

loop_
  _atom_site_type_symbol
  _atom_site_label
  _atom_site_symmetry_multiplicity
  _atom_site_fract_x
  _atom_site_fract_y
  _atom_site_fract_z
  _atom_site_occupancy
  Cu  Cu1       1.0  0.5000009762064506  0.49999958219395063  0.49999884112866516  1.0000
  H   H1        1.0  0.23465078740756692  0.20805542150792175  0.17095682773845064  1.0000
  H   H2        1.0  0.7653490472003669  0.7919464267937856  0.8290432341770783  1.0000
  H   H3        1.0  0.47525305587996064  0.770182962343732  0.3492204195204921  1.0000
  H   H4        1.0  0.5247522378086131  0.22982025134520262  0.6507807536095243  1.0000
  H   H5        1.0  0.2262269331066021  0.7393675993601433  0.10069201546285461  1.0000
  H   H6        1.0  0.7737743403652287  0.2606369417652559  0.8993099374081625  1.0000
  H   H7        1.0  0.16642004824556983  0.547453806164107  0.941722016972385  1.0000
  H   H8        1.0  0.8335785956531511  0.4525480533586689  0.05827984252478304  1.0000
  H   H9        1.0  0.5131119984296646  0.6769660496157428  0.987957880094065  1.0000
  H   H10       1.0  0.4868844887190845  0.32303176641416803  0.012040652565659114  1.0000
  H   H11       1.0  0.4267147863153226  0.8061655721666625  0.9413290814724604  1.0000
  H   H12       1.0  0.5732869507043858  0.19383763261237164  0.058672580360273244  1.0000
  H   H13       1.0  0.7569646096779651  0.062440394741159394  0.07487380269183325  1.0000
  H   H14       1.0  0.24303661866535  0.9375574360068272  0.9251244053004088  1.0000
  H   H15       1.0  0.8251398665641929  0.931065628644653  0.13938464501099904  1.0000
  H   H16       1.0  0.1748632672826602  0.06893355006604202  0.8606141820900108  1.0000
  H   H17       1.0  0.8692133258741281  0.11546956782179761  0.39512305617513743  1.0000
  H   H18       1.0  0.13078862035526126  0.8845296135953549  0.6048765876990745  1.0000
  H   H19       1.0  0.019323138402853574  0.24444444437611418  0.32003365908618525  1.0000
  H   H20       1.0  0.980674539455116  0.7555533604327281  0.6799630759918929  1.0000
  H   H21       1.0  0.5992488271235104  0.17650534253299105  0.432966939581732  1.0000
  H   H22       1.0  0.40074479466446883  0.8234870537910342  0.5670238879332532  1.0000
  H   H23       1.0  0.812057913802441  0.6387341703497995  0.34916998812428807  1.0000
  H   H24       1.0  0.18794901868444913  0.36126773834481435  0.650834000428013  1.0000
  C   C1        1.0  0.2715916065444545  0.34191967032347753  0.18196062566881477  1.0000
  C   C2        1.0  0.7284089521330657  0.6580835116181375  0.8180389105117886  1.0000
  C   C3        1.0  0.3963067186351735  0.6281570863637996  0.2771027713735067  1.0000
  C   C4        1.0  0.6036940492520274  0.37184207221593385  0.7228947468485745  1.0000
  C   C5        1.0  0.27332917960789865  0.651345097450637  0.047272331199380326  1.0000
  C   C6        1.0  0.7266701883604012  0.3486580957120538  0.9527290025628689  1.0000
  C   C7        1.0  0.4537726123317682  0.7602400282668428  0.025753795146194164  1.0000
  C   C8        1.0  0.5462276858240429  0.23976048368849232  0.9742459757310589  1.0000
  C   C9        1.0  0.7607074741178224  0.012467853677876001  0.16043444212530744  1.0000
  C   C10       1.0  0.23929375113374357  0.9875299855847361  0.8395647466753788  1.0000
  C   C11       1.0  0.8744028932541211  0.16677918424110774  0.3110084750775144  1.0000
  C   C12       1.0  0.12559859251914665  0.8332213250077773  0.6889904790265363  1.0000
  C   C13       1.0  0.6766626651716336  0.2822887969982729  0.40109903170176153  1.0000
  C   C14       1.0  0.3233402780160688  0.7177143539865727  0.5988959285071191  1.0000
  C   C15       1.0  0.7865394226634379  0.5145567286159576  0.3552976219278251  1.0000
  C   C16       1.0  0.2134656105034338  0.48544381508669693  0.6447037858988338  1.0000
  N   N1        1.0  0.38409362075447734  0.49334192240443303  0.3096527556351561  1.0000
  N   N2        1.0  0.6159074014709206  0.5066599231908172  0.6903464895071709  1.0000
  N   N3        1.0  0.29464261061720265  0.5583900592181693  0.13567668743644395  1.0000
  N   N4        1.0  0.705357938785049  0.44161314826731507  0.8643257911694917  1.0000
  N   N5        1.0  0.2147413906865978  0.3765970559221757  0.07314364916897631  1.0000
  N   N6        1.0  0.7852567896642455  0.6234061399469651  0.9268585013664749  1.0000
  N   N7        1.0  0.8090480067417686  0.29117808784017996  0.3436816700724564  1.0000
  N   N8        1.0  0.19095038281875537  0.7088210846670722  0.6563184625044729  1.0000
  N   N9        1.0  0.8808276561917483  0.43800035548667904  0.3135131972950732  1.0000
  N   N10       1.0  0.1191759350194629  0.5619975039069018  0.6864873003845346  1.0000
  N   N11       1.0  0.659379384485135  0.42293230649679014  0.4103028902141191  1.0000
  N   N12       1.0  0.34062230431430857  0.5770641964194568  0.5896960075482911  1.0000
  Cl  Cl1       1.0  0.18956421725454917  0.9965111163441308  0.34601556410149215  1.0000
  Cl  Cl2       1.0  0.8104329846885178  0.0034880588695713984  0.6539853852486318  1.0000
  O   O1        1.0  0.5783464687437885  0.9094051004269162  0.16196664689641702  1.0000
  O   O2        1.0  0.42165665891955223  0.09059409531302981  0.8380341418214742  1.0000
  O   O3        1.0  0.25595677458267824  0.18532368251064213  0.4373957201644317  1.0000
  O   O4        1.0  0.7440416087943333  0.8146755070258536  0.562606374029379  1.0000
  O   O5        1.0  0.9992544516074913  0.884061886806471  0.3343312649059911  1.0000
  O   O6        1.0  0.0007422744206806  0.11593865881209103  0.665673898716186  1.0000
  O   O7        1.0  0.30853913912928727  0.945737750343163  0.41454799017327565  1.0000
  O   O8        1.0  0.6914561573102489  0.05426007690783051  0.5854523400680877  1.0000
  O   O9        1.0  0.2009502736018901  0.9789422139664907  0.2012098587568191  1.0000
  O   O10       1.0  0.7990400242131271  0.0210529200655216  0.798790050040225  1.0000
