data_image0
_chemical_formula_structural       Cd2H48C52N16Cl4
_chemical_formula_sum              "Cd2 H48 C52 N16 Cl4"
_cell_length_a       8.810737461906188
_cell_length_b       12.735739065170772
_cell_length_c       14.071379107673913
_cell_angle_alpha    63.444840155779296
_cell_angle_beta     80.34947025828848
_cell_angle_gamma    71.42182022240901

_space_group_name_H-M_alt    "P 1"
_space_group_IT_number       1

loop_
  _space_group_symop_operation_xyz
  'x, y, z'

loop_
  _atom_site_type_symbol
  _atom_site_label
  _atom_site_symmetry_multiplicity
  _atom_site_fract_x
  _atom_site_fract_y
  _atom_site_fract_z
  _atom_site_occupancy
  Cd  Cd1       1.0  0.26020965465303186  0.4410439498570896  0.2531024758412387  1.0000
  Cd  Cd2       1.0  0.7397898796240837  0.5589543923072997  0.7468963551245978  1.0000
  H   H1        1.0  0.3432098338638312  0.02553691883517221  0.049411631003387406  1.0000
  H   H2        1.0  0.6567921280385606  0.974464188801804  0.9505851309302288  1.0000
  H   H3        1.0  0.22372983217783826  0.22199052053810683  0.06606631541579588  1.0000
  H   H4        1.0  0.7762783960941136  0.7780059952445696  0.9339415894962145  1.0000
  H   H5        1.0  0.8019805286110612  0.10785902376434114  0.21715668327959045  1.0000
  H   H6        1.0  0.1980287036252691  0.892134721124613  0.7828579136652252  1.0000
  H   H7        1.0  0.9169007291878655  0.914139915804377  0.19590280672921534  1.0000
  H   H8        1.0  0.08310222853612713  0.08585840546345481  0.8041034969650697  1.0000
  H   H9        1.0  0.10793004731623063  0.7195021889924363  0.2515000271178351  1.0000
  H   H10       1.0  0.8920642103058469  0.2804979470505415  0.7484993399261768  1.0000
  H   H11       1.0  0.43613579926022783  0.6545466734816828  0.01578424213604281  1.0000
  H   H12       1.0  0.5638606251892782  0.3454507259698475  0.9842167085759356  1.0000
  H   H13       1.0  0.3506113342712993  0.9020740484021419  0.9666893947208662  1.0000
  H   H14       1.0  0.6493903607261586  0.09792154556423331  0.03331315720884481  1.0000
  H   H15       1.0  0.028789200181854817  0.32397266455638635  0.17244737236296714  1.0000
  H   H16       1.0  0.9712145599649206  0.6760265656394467  0.8275606164271354  1.0000
  H   H17       1.0  0.9007854648886352  0.3731709494122627  0.0681493042009436  1.0000
  H   H18       1.0  0.09922595860347629  0.6268201053115235  0.9318583272282414  1.0000
  H   H19       1.0  0.6142480028541615  0.4125005471982562  0.09889735166498068  1.0000
  H   H20       1.0  0.38576139235222934  0.5874960106244062  0.9011040200182665  1.0000
  H   H21       1.0  0.5725869063398008  0.27943834057310823  0.43257756293312616  1.0000
  H   H22       1.0  0.4274067565081908  0.7205572183266967  0.5674229886561548  1.0000
  H   H23       1.0  0.8977918656134136  0.21743814747269857  0.3714755000862624  1.0000
  H   H24       1.0  0.10220501099707491  0.7825610548768511  0.62853036702235  1.0000
  H   H25       1.0  0.15079856091421825  0.8737430019430049  0.41160162506908204  1.0000
  H   H26       1.0  0.8492002830177868  0.1262571475056831  0.588400106338547  1.0000
  H   H27       1.0  0.2748930542107572  0.6732979790475541  0.39956963666575285  1.0000
  H   H28       1.0  0.7251097121501148  0.32670404138628584  0.6004280979317117  1.0000
  H   H29       1.0  0.7162976766556284  0.770526343610385  0.2837033595592261  1.0000
  H   H30       1.0  0.28369811874070905  0.22948204888005114  0.716291119525394  1.0000
  H   H31       1.0  0.5965337085190967  0.9667875813902927  0.3018445249973283  1.0000
  H   H32       1.0  0.4034597815081042  0.033220781184155605  0.6981530464972892  1.0000
  H   H33       1.0  0.36905073635168856  0.17528637350142875  0.22542583894290402  1.0000
  H   H34       1.0  0.6309435192346912  0.8247137586726864  0.7745742405330702  1.0000
  H   H35       1.0  0.1333924518714014  0.21531620066073742  0.4977286862490686  1.0000
  H   H36       1.0  0.866617401603058  0.7846821716665178  0.502275464534911  1.0000
  H   H37       1.0  0.20318803948990893  0.9692767000122164  0.533921918571572  1.0000
  H   H38       1.0  0.7968122931385865  0.030722543342470505  0.4660800223540136  1.0000
  H   H39       1.0  0.6071311145720698  0.5194829444474891  0.428321101656124  1.0000
  H   H40       1.0  0.3928689453721432  0.4805264095826658  0.571668999045393  1.0000
  H   H41       1.0  0.4911957813746992  0.553358166211659  0.3217777487109927  1.0000
  H   H42       1.0  0.5087973828190543  0.4466511367590726  0.6782145049008294  1.0000
  H   H43       1.0  0.9023664470637839  0.4907707564956638  0.40165588484848064  1.0000
  H   H44       1.0  0.0976229251000333  0.5092394265219369  0.5983385392234126  1.0000
  H   H45       1.0  0.9548399657426575  0.578573435303774  0.07314749008254742  1.0000
  H   H46       1.0  0.04516987529655125  0.4214158441214126  0.9268489344033739  1.0000
  H   H47       1.0  0.6302996075058545  0.6429389727937362  0.12610740878540141  1.0000
  H   H48       1.0  0.3697052441402065  0.3570576528691873  0.8738766374629351  1.0000
  C   C1        1.0  0.13708798740978526  0.9578464528138257  0.12099567584360928  1.0000
  C   C2        1.0  0.8629153185403098  0.04215097061513261  0.8790081089818358  1.0000
  C   C3        1.0  0.22310769413930842  0.04476134184118051  0.0841899567653286  1.0000
  C   C4        1.0  0.7768945935965305  0.9552388253995051  0.915812123051083  1.0000
  C   C5        1.0  0.15684444183207796  0.15402052174967912  0.0944920819154618  1.0000
  C   C6        1.0  0.8431613588145909  0.8459732285604104  0.9055178920287759  1.0000
  C   C7        1.0  0.0048063691988246985  0.17822273861330024  0.14257896722725152  1.0000
  C   C8        1.0  0.9952033375911429  0.8217728517310903  0.8574327093625556  1.0000
  C   C9        1.0  0.9208261148543643  0.09005581110889693  0.18023503268839386  1.0000
  C   C10       1.0  0.0791803618875449  0.9099361048348982  0.8197770278378231  1.0000
  C   C11       1.0  0.9853505550969647  0.9807595213325018  0.16901302436886564  1.0000
  C   C12       1.0  0.014655718067636799  0.01923607056416901  0.8309947416523258  1.0000
  C   C13       1.0  0.18321821656045506  0.7347021733316339  0.17997432373874037  1.0000
  C   C14       1.0  0.8167763831806313  0.26529705326590397  0.820024661732326  1.0000
  C   C15       1.0  0.3536909883968207  0.7047242145935259  0.05768564687108572  1.0000
  C   C16       1.0  0.6463062466182378  0.29527410926143466  0.9423141392088469  1.0000
  C   C17       1.0  0.31530051348484983  0.8272152203008789  0.03290522788799424  1.0000
  C   C18       1.0  0.6846975239529912  0.17278401248209016  0.9670962432877489  1.0000
  C   C19       1.0  0.9369190274827732  0.30052091114395546  0.14766515697947818  1.0000
  C   C20       1.0  0.0630857569853376  0.6994755868467238  0.8523423995237566  1.0000
  C   C21       1.0  0.6427955267503905  0.36506015346782317  0.18242220895455574  1.0000
  C   C22       1.0  0.3572092740032815  0.6349363754736999  0.817579648092945  1.0000
  C   C23       1.0  0.6295219535719028  0.29508072002560237  0.3547906520905926  1.0000
  C   C24       1.0  0.37047480281812983  0.7049157506362108  0.6452134792082802  1.0000
  C   C25       1.0  0.7892682103352798  0.26334731820588797  0.3262482469384267  1.0000
  C   C26       1.0  0.21073280449554943  0.7366501023890707  0.6737536432732371  1.0000
  C   C27       1.0  0.3672772933692555  0.9309528379432453  0.3584177859229952  1.0000
  C   C28       1.0  0.6327170926160549  0.06905004526288393  0.6415804672028855  1.0000
  C   C29       1.0  0.27509705152640146  0.8500529576883838  0.3843995607734102  1.0000
  C   C30       1.0  0.7248991510245447  0.14994808289630876  0.6156035073212536  1.0000
  C   C31       1.0  0.34369131609191345  0.7393765436446885  0.37647162071697704  1.0000
  C   C32       1.0  0.6563050372149065  0.26062728666058643  0.6235224967079205  1.0000
  C   C33       1.0  0.5032740200669752  0.7094135211132411  0.34099279609159794  1.0000
  C   C34       1.0  0.49672476086513484  0.29059307466461354  0.6589992523010795  1.0000
  C   C35       1.0  0.591822030332729  0.7936684323147888  0.310695513703287  1.0000
  C   C36       1.0  0.4081729544980491  0.20633903577222418  0.6893001300133862  1.0000
  C   C37       1.0  0.5250687014699551  0.9038174111299714  0.3199589664746298  1.0000
  C   C38       1.0  0.4749261549975969  0.09618730979387641  0.6800377911601743  1.0000
  C   C39       1.0  0.3150802004711295  0.1536114499825771  0.3046567249446782  1.0000
  C   C40       1.0  0.6849186434608753  0.8463886994661183  0.6953450064629509  1.0000
  C   C41       1.0  0.18970786659971142  0.17001111653491566  0.4461291326548605  1.0000
  C   C42       1.0  0.810297734541045  0.8299863174657606  0.5538751219204201  1.0000
  C   C43       1.0  0.2219703761587937  0.04930181014684361  0.4650356507885364  1.0000
  C   C44       1.0  0.7780304289876411  0.9506992747944241  0.5349640822140104  1.0000
  C   C45       1.0  0.5771690353398354  0.5830211671486085  0.34536241168667203  1.0000
  C   C46       1.0  0.4228300958540672  0.4169845346592355  0.6546264054051962  1.0000
  C   C47       1.0  0.8758449935606337  0.5212421560148571  0.31917055878339085  1.0000
  C   C48       1.0  0.12415000348431697  0.4787653352852885  0.6808208103414872  1.0000
  C   C49       1.0  0.8960372753848773  0.5720512789519744  0.14876203925334164  1.0000
  C   C50       1.0  0.10396559876119225  0.42794438026752607  0.8512297048558112  1.0000
  C   C51       1.0  0.7354386392659579  0.6037936924884377  0.17372806231944793  1.0000
  C   C52       1.0  0.2645610457670386  0.39620743939652664  0.8262618179766292  1.0000
  N   N1        1.0  0.2056897089788521  0.8459927676379523  0.11101647863502952  1.0000
  N   N2        1.0  0.7943094791078593  0.15400647623415864  0.8889841587676912  1.0000
  N   N3        1.0  0.2712980068590126  0.6484376858866342  0.14984189029104303  1.0000
  N   N4        1.0  0.7286970572572287  0.35156336682205597  0.8501577369848476  1.0000
  N   N5        1.0  0.7952514078484397  0.3087254828113829  0.21650316492569743  1.0000
  N   N6        1.0  0.2047512158993285  0.6912737633773034  0.7835006706136696  1.0000
  N   N7        1.0  0.5401309625160877  0.35832904398668564  0.2643421414884273  1.0000
  N   N8        1.0  0.45986959201097494  0.6416665582348317  0.7356576820544803  1.0000
  N   N9        1.0  0.3024651979529978  0.03994723845563901  0.37414256824069275  1.0000
  N   N10       1.0  0.6975302042108709  0.9600528970699076  0.6258581023261912  1.0000
  N   N11       1.0  0.2472222749242547  0.23357279729885513  0.345880796681449  1.0000
  N   N12       1.0  0.7527773755019213  0.7664282688155526  0.6541211949580658  1.0000
  N   N13       1.0  0.7244683417706244  0.570342852135312  0.28205414548143193  1.0000
  N   N14       1.0  0.27553125786982247  0.42966468352140214  0.7179338885513291  1.0000
  N   N15       1.0  0.9819263712192171  0.5208401619380824  0.2398159273543287  1.0000
  N   N16       1.0  0.018071340385176906  0.47916001124117014  0.7601802259386261  1.0000
  Cl  Cl1       1.0  0.28768439067836493  0.41639781834806655  0.07118338466333542  1.0000
  Cl  Cl2       1.0  0.7123173083904817  0.5835977833560195  0.9288177424024437  1.0000
  Cl  Cl3       1.0  0.23297169895351286  0.4621274118936613  0.43209373724936034  1.0000
  Cl  Cl4       1.0  0.7670089118164396  0.5378754001444721  0.5679031222414038  1.0000
