data_image0
_chemical_formula_structural       Zn2H17C36I2N2ClO8
_chemical_formula_sum              "Zn2 H17 C36 I2 N2 Cl1 O8"
_cell_length_a       11.526385223197165
_cell_length_b       13.12201905914803
_cell_length_c       13.629812160508793
_cell_angle_alpha    79.94647464492583
_cell_angle_beta     55.178934320729134
_cell_angle_gamma    77.94535424238168

_space_group_name_H-M_alt    "P 1"
_space_group_IT_number       1

loop_
  _space_group_symop_operation_xyz
  'x, y, z'

loop_
  _atom_site_type_symbol
  _atom_site_label
  _atom_site_symmetry_multiplicity
  _atom_site_fract_x
  _atom_site_fract_y
  _atom_site_fract_z
  _atom_site_occupancy
  Zn  Zn1       1.0  0.6499520085691161  0.4844645643086096  0.4489500280640469  1.0000
  Zn  Zn2       1.0  0.35467051580913983  0.5066856332391795  0.5424217868260968  1.0000
  H   H1        1.0  0.234536390131133  0.35837586233300556  0.902898133307062  1.0000
  H   H2        1.0  0.7197212739529206  0.14078892286287467  0.5215743043679879  1.0000
  H   H3        1.0  0.2715649908734081  0.042309070968151716  0.4787293910742604  1.0000
  H   H4        1.0  0.2818120495154375  0.8496881084951441  0.48289835316810337  1.0000
  H   H5        1.0  0.6465274275848715  0.7954887734914209  0.5056215085012356  1.0000
  H   H6        1.0  0.7721004283079722  0.38835256974089566  0.5855318421363479  1.0000
  H   H7        1.0  0.8945632132663094  0.608790095330562  0.29819457437813685  1.0000
  H   H8        1.0  0.9041107970563972  0.34962758198591354  0.6936447652331239  1.0000
  H   H9        1.0  0.08841993861498311  0.651903073873008  0.3101242089148286  1.0000
  H   H10       1.0  0.10399378626969019  0.38813067665198997  0.7004824174174972  1.0000
  H   H11       1.0  0.22242570449477478  0.6111575838803419  0.4157096658848119  1.0000
  H   H12       1.0  0.20146520817745284  0.3111445581466016  0.10158559094131903  1.0000
  H   H13       1.0  0.8246298589924375  0.5586579036016844  0.07246837492169102  1.0000
  H   H14       1.0  0.728991198104609  0.5307565752603907  0.81704343921578  1.0000
  H   H15       1.0  0.8945100127601294  0.5696119068158226  0.8602266379474699  1.0000
  H   H16       1.0  0.4000947740732457  0.3997795159487935  0.29698059226481643  1.0000
  H   H17       1.0  0.3617857426283351  0.19187978865386407  0.48923810843865584  1.0000
  C   C1        1.0  0.4762561863421198  0.6972960324232672  0.49105348824102185  1.0000
  C   C2        1.0  0.5636760853896448  0.4939963958075282  0.0017510801630607742  1.0000
  C   C3        1.0  0.5327134630048463  0.47587764017105627  0.12036606194802592  1.0000
  C   C4        1.0  0.4643297132223905  0.46959018336832525  0.9779739034883622  1.0000
  C   C5        1.0  0.361373832355426  0.40097939343630873  0.06392934867621136  1.0000
  C   C6        1.0  0.34492568301422466  0.3762413410592558  0.17801306782882165  1.0000
  C   C7        1.0  0.41909973290248814  0.4170039262931838  0.20837155016979383  1.0000
  C   C8        1.0  0.4625268424898934  0.5068336029981566  0.8741388558588598  1.0000
  C   C9        1.0  0.29458866768462855  0.3903162261192392  0.9268242762734787  1.0000
  C   C10       1.0  0.6258322451471585  0.5052399756753517  0.1449516314213283  1.0000
  C   C11       1.0  0.5392289743669566  0.17717805008628323  0.5050128067432452  1.0000
  C   C12       1.0  0.5898377895933109  0.5024869201604361  0.2698633327535803  1.0000
  C   C13       1.0  0.4663329253675172  0.8124439175276734  0.4936045668940993  1.0000
  C   C14       1.0  0.3518434042458765  0.9879040966590154  0.4868327571754349  1.0000
  C   C15       1.0  0.3579403212673356  0.8819050919467486  0.48793380003690595  1.0000
  C   C16       1.0  0.5636694088118333  0.8502177373696683  0.5019444741857129  1.0000
  C   C17       1.0  0.5565425345954864  0.9583031218485374  0.5058024147143455  1.0000
  C   C18       1.0  0.4494973747511254  0.029381926916144625  0.4960930532557627  1.0000
  C   C19       1.0  0.44285649418034023  0.13807032593760482  0.49666187072502055  1.0000
  C   C20       1.0  0.6449954883893698  0.10835445272721958  0.5150797629770948  1.0000
  C   C21       1.0  0.6514600802376266  0.0021767026218953087  0.5170408906993985  1.0000
  C   C22       1.0  0.9715937010312675  0.4082538123852402  0.6310437818794412  1.0000
  C   C23       1.0  0.533613957206228  0.2926684410900435  0.502176926451341  1.0000
  C   C24       1.0  0.08022128059393198  0.4290544757965193  0.6359210475727225  1.0000
  C   C25       1.0  0.1477941050910161  0.5557832095138906  0.47618073704384045  1.0000
  C   C26       1.0  0.040224654508250496  0.5396562755327708  0.46271093531672153  1.0000
  C   C27       1.0  0.9504761088265  0.462972943583047  0.542225517455563  1.0000
  C   C28       1.0  0.8456833407005107  0.4447438312547689  0.5262648849597654  1.0000
  C   C29       1.0  0.9161796827688421  0.5693456262031945  0.3644585957506409  1.0000
  C   C30       1.0  0.02097893463575666  0.5931556311082175  0.37247573648082993  1.0000
  C   C31       1.0  0.4057074001206402  0.48160424314541234  0.7241588083297471  1.0000
  C   C32       1.0  0.2784498112107414  0.3631144420394392  0.03588165187210992  1.0000
  C   C33       1.0  0.3862187085993511  0.4630573419316875  0.8445718466153807  1.0000
  C   C34       1.0  0.7537787492030505  0.5394406444136736  0.051631562551300136  1.0000
  C   C35       1.0  0.7912360477896172  0.5468747923146536  0.9333789533919584  1.0000
  C   C36       1.0  0.697156065177211  0.5257306569286372  0.9094676639483694  1.0000
  I   I1        1.0  0.20046030483014476  0.27258586605912427  0.30742573359321324  1.0000
  I   I2        1.0  0.5397852318665386  0.6500387920613947  0.7764993285892673  1.0000
  N   N1        1.0  0.8303068933986142  0.49580470582147745  0.4407863557213147  1.0000
  N   N2        1.0  0.16714295196251067  0.5017512452753081  0.5585966126291027  1.0000
  Cl  Cl1       1.0  0.7794227516675889  0.9196152816744599  0.5337044940593145  1.0000
  O   O1        1.0  0.5999211156341815  0.6450088161758175  0.4445549032241872  1.0000
  O   O2        1.0  0.3597162291277344  0.6611430478926367  0.536213307430451  1.0000
  O   O3        1.0  0.6936662994943249  0.4811406095848128  0.2830111486539125  1.0000
  O   O4        1.0  0.4593409894983296  0.524604041037911  0.3529093940422285  1.0000
  O   O5        1.0  0.643095614575806  0.3256436012603102  0.48025388836067145  1.0000
  O   O6        1.0  0.41910584662514344  0.34920628188286434  0.5211157387164106  1.0000
  O   O7        1.0  0.5331443620204369  0.48634633340294914  0.6352559294508993  1.0000
  O   O8        1.0  0.29845233324513737  0.4844354380550585  0.7187392157494517  1.0000
