data_image0
_chemical_formula_structural       Zn6H66C60N12O24
_chemical_formula_sum              "Zn6 H66 C60 N12 O24"
_cell_length_a       10.90345043401335
_cell_length_b       17.174313346164663
_cell_length_c       17.309301817740437
_cell_angle_alpha    120.39148807712832
_cell_angle_beta     91.95065101969406
_cell_angle_gamma    88.4254732259798

_space_group_name_H-M_alt    "P 1"
_space_group_IT_number       1

loop_
  _space_group_symop_operation_xyz
  'x, y, z'

loop_
  _atom_site_type_symbol
  _atom_site_label
  _atom_site_symmetry_multiplicity
  _atom_site_fract_x
  _atom_site_fract_y
  _atom_site_fract_z
  _atom_site_occupancy
  Zn  Zn1       1.0  0.8547043159433089  0.5395910613629696  0.07389316768856705  1.0000
  Zn  Zn2       1.0  0.6623760177130222  0.0745658838700933  0.5434303140895835  1.0000
  Zn  Zn3       1.0  0.495614565750678  0.544266759212654  0.4748517490822621  1.0000
  Zn  Zn4       1.0  0.33780971004405563  0.46490843379940855  0.9271203739926649  1.0000
  Zn  Zn5       1.0  0.2297107058773449  0.9248366790995634  0.46667040800397086  1.0000
  Zn  Zn6       1.0  0.06879150791377948  0.4669915230105276  0.536807306487738  1.0000
  H   H1        1.0  0.5828517731069454  0.2358279885236671  0.6993816539118356  1.0000
  H   H2        1.0  0.4087771371632981  0.7063201590722558  0.4820318488905786  1.0000
  H   H3        1.0  0.24130026114296044  0.477185361291447  0.7728642621440257  1.0000
  H   H4        1.0  0.11814420013088518  0.7530802674555589  0.31120195836577136  1.0000
  H   H5        1.0  0.9636704950219085  0.32230435641946553  0.5628218726575512  1.0000
  H   H6        1.0  0.7641385828211823  0.5479337957479445  0.23572453897673293  1.0000
  H   H7        1.0  0.9065879662910276  0.08606367162907011  0.6503133159610357  1.0000
  H   H8        1.0  0.7402306129382976  0.6495330095207734  0.5705640045388803  1.0000
  H   H9        1.0  0.5760058194699057  0.5476999405083022  0.9115184427061537  1.0000
  H   H10       1.0  0.4228964300224974  0.910378699184328  0.35068034774702306  1.0000
  H   H11       1.0  0.2594759657186003  0.33852116617462974  0.42671458993234523  1.0000
  H   H12       1.0  0.08269192527671983  0.44263608456039094  0.09176448422368118  1.0000
  H   H13       1.0  0.8120747654783783  0.34293954203624816  0.9850246463458276  1.0000
  H   H14       1.0  0.6458014297281666  0.9868287687106803  0.6417677041962906  1.0000
  H   H15       1.0  0.4718471937054503  0.641735706106502  0.662043775834306  1.0000
  H   H16       1.0  0.29951552292470046  0.6576667957540324  0.015545669039681912  1.0000
  H   H17       1.0  0.1375551061795406  0.010959766128138405  0.3542062618796749  1.0000
  H   H18       1.0  0.9812345813018054  0.3551390421110554  0.3377656679585995  1.0000
  H   H19       1.0  0.965892470012477  0.3232582583359686  0.9466468942968901  1.0000
  H   H20       1.0  0.7987850749851403  0.9434957533571692  0.6156664428810217  1.0000
  H   H21       1.0  0.6263447021046956  0.6153324494868003  0.6786322798839707  1.0000
  H   H22       1.0  0.4568948404094613  0.6769450493555311  0.0507635683177201  1.0000
  H   H23       1.0  0.2929319581071966  0.043977300307055565  0.37835240686732863  1.0000
  H   H24       1.0  0.13412164053033138  0.3806334584936267  0.3274679236457416  1.0000
  H   H25       1.0  0.9772212885349848  0.38640448194770033  0.8361108079882484  1.0000
  H   H26       1.0  0.7295733863549572  0.8083483248827366  0.4287733920641444  1.0000
  H   H27       1.0  0.561978709604368  0.42568987053473983  0.6204837435478369  1.0000
  H   H28       1.0  0.48073286404837023  0.6131980047041311  0.16609605252247667  1.0000
  H   H29       1.0  0.2919553695000515  0.16789355126704206  0.556341196312573  1.0000
  H   H30       1.0  0.1282855862961014  0.5580306518766919  0.3877374268930185  1.0000
  H   H31       1.0  0.9882151693546463  0.19055552904877274  0.804054142059762  1.0000
  H   H32       1.0  0.8228997073556954  0.7998635815906427  0.6135310665554387  1.0000
  H   H33       1.0  0.6547249025255297  0.6017825193767907  0.8134555832928925  1.0000
  H   H34       1.0  0.4832334438414989  0.8125710577551288  0.19096421505904015  1.0000
  H   H35       1.0  0.31546955767164064  0.1760501887005718  0.36850663598145417  1.0000
  H   H36       1.0  0.15649422107762942  0.3851597607263671  0.19239477697070845  1.0000
  H   H37       1.0  0.653849341998857  0.3476184838212292  0.8557703707349518  1.0000
  H   H38       1.0  0.47824158640141684  0.8609516546710836  0.5243326759960141  1.0000
  H   H39       1.0  0.3073397679008778  0.5280751729689541  0.6680475414990497  1.0000
  H   H40       1.0  0.1655832250531333  0.6499931607880499  0.14857138569789197  1.0000
  H   H41       1.0  0.007036630951738201  0.1597496747889124  0.5088092850217265  1.0000
  H   H42       1.0  0.827761880972865  0.49841234290164493  0.34400206099630987  1.0000
  H   H43       1.0  0.8027585289115676  0.4733349898162089  0.8195972630834589  1.0000
  H   H44       1.0  0.632785184637008  0.8248289786029944  0.3051992466934552  1.0000
  H   H45       1.0  0.4699907722388801  0.3038351892388604  0.4779017601569038  1.0000
  H   H46       1.0  0.31939583009414463  0.516970254888129  0.1732418326967818  1.0000
  H   H47       1.0  0.1312016800659137  0.17526126825843846  0.6560401018533922  1.0000
  H   H48       1.0  0.9616314019445725  0.6584992839874957  0.47919445775467306  1.0000
  H   H49       1.0  0.9457015589794509  0.5243766460524882  0.8238360421632862  1.0000
  H   H50       1.0  0.7906807362762435  0.8428056581411385  0.3103246754176113  1.0000
  H   H51       1.0  0.6283334164451233  0.30773758472366824  0.4660119488051039  1.0000
  H   H52       1.0  0.46845578342951905  0.4695585696947263  0.16979187009375363  1.0000
  H   H53       1.0  0.2791817000931474  0.1792536167977233  0.7051449858832015  1.0000
  H   H54       1.0  0.10726054096695492  0.7078224607426976  0.5270725220586102  1.0000
  H   H55       1.0  0.8487944169243137  0.5728652198895151  0.919651400017692  1.0000
  H   H56       1.0  0.6846345946154315  0.9382312345041158  0.3544476465688222  1.0000
  H   H57       1.0  0.5215617131244128  0.35439142946554375  0.41680500028047623  1.0000
  H   H58       1.0  0.3695591440555148  0.42229877512322395  0.07174615227551588  1.0000
  H   H59       1.0  0.19150792043377154  0.07756236613514758  0.6549611310990288  1.0000
  H   H60       1.0  0.019957132393386697  0.6571348660077873  0.5757617206298135  1.0000
  H   H61       1.0  0.7599278552873585  0.7823321171833015  0.143814689478468  1.0000
  H   H62       1.0  0.610457645692378  0.13965146717547586  0.3647480787133476  1.0000
  H   H63       1.0  0.44666224093938917  0.3692343558698  0.22934145890615557  1.0000
  H   H64       1.0  0.26559598540505647  0.22214213844983277  0.8567882068427649  1.0000
  H   H65       1.0  0.08612422996379368  0.8593334839585226  0.625316873736047  1.0000
  H   H66       1.0  0.9185984221622617  0.619983463890975  0.7642620864079036  1.0000
  C   C1        1.0  0.6729659771689854  0.22944770570438788  0.7249399065476182  1.0000
  C   C2        1.0  0.49999503873799256  0.7298109511160648  0.5109591041507074  1.0000
  C   C3        1.0  0.3325344712618588  0.5041344184151839  0.7782548402878148  1.0000
  C   C4        1.0  0.19865045900667871  0.7632749776351063  0.2818869524704654  1.0000
  C   C5        1.0  0.0404721653952009  0.28721082257347774  0.5193701582363772  1.0000
  C   C6        1.0  0.8513188989455641  0.5130497862404441  0.2298189185521907  1.0000
  C   C7        1.0  0.8528606447210122  0.1446368816464344  0.697141986918524  1.0000
  C   C8        1.0  0.6846874282299211  0.6974153437145603  0.560317523385578  1.0000
  C   C9        1.0  0.5193306431608136  0.543937230787421  0.8566128618915984  1.0000
  C   C10       1.0  0.3691404021856357  0.8514713902924812  0.3042449689916254  1.0000
  C   C11       1.0  0.20594669319300613  0.296367216231829  0.4433244757258237  1.0000
  C   C12       1.0  0.02857680028436251  0.4531890004571579  0.14827045724211993  1.0000
  C   C13       1.0  0.8725968450902288  0.34462236364630877  0.9362718889629562  1.0000
  C   C14       1.0  0.7029007647736237  0.9326968265071544  0.5905330767423039  1.0000
  C   C15       1.0  0.5317477231549006  0.5898363114766385  0.6633838917414253  1.0000
  C   C16       1.0  0.36755243893916395  0.6563271368051461  0.06340238401938368  1.0000
  C   C17       1.0  0.20052366451503192  0.058243634678902416  0.4079687176261331  1.0000
  C   C18       1.0  0.04006584349412629  0.40969570215418133  0.3446541797088544  1.0000
  C   C19       1.0  0.9474650486018916  0.4502348271905206  0.8946463887307203  1.0000
  C   C20       1.0  0.711987400503766  0.8738281149280739  0.433244425040691  1.0000
  C   C21       1.0  0.5458495462649894  0.4315738060612446  0.5606194305954303  1.0000
  C   C22       1.0  0.45259551140245685  0.5502713271326911  0.10556963338939346  1.0000
  C   C23       1.0  0.2727273112447719  0.10665714080130344  0.5590471571416842  1.0000
  C   C24       1.0  0.10764423373385058  0.5608862315196462  0.4510140966419841  1.0000
  C   C25       1.0  0.8977856164583287  0.2031820307820453  0.7833660335012311  1.0000
  C   C26       1.0  0.730179895984108  0.7822042317368274  0.585018641659751  1.0000
  C   C27       1.0  0.5625489581205727  0.5743095988682115  0.8015654948924507  1.0000
  C   C28       1.0  0.4016434549348347  0.7971526439627895  0.2152850782825697  1.0000
  C   C29       1.0  0.23562593462734327  0.20581994821659325  0.41050922116886573  1.0000
  C   C30       1.0  0.0687534225864113  0.4211067325674165  0.20456303875524645  1.0000
  C   C31       1.0  0.0690193899722189  0.5007892074575296  0.947331010270247  1.0000
  C   C32       1.0  0.957948477496039  0.9743236741462838  0.4491401159821537  1.0000
  C   C33       1.0  0.7920467320950594  0.44823293364997613  0.4749146191599892  1.0000
  C   C34       1.0  0.5812233515843348  0.504359513543335  0.0545874398449656  1.0000
  C   C35       1.0  0.39896001936529046  0.06192891457053645  0.5545518042990948  1.0000
  C   C36       1.0  0.23309861186513814  0.5571391551420107  0.49319733908356517  1.0000
  C   C37       1.0  0.7122175361414095  0.290661794012145  0.8114682166830675  1.0000
  C   C38       1.0  0.53871945071878  0.8153989157920236  0.5349265847566828  1.0000
  C   C39       1.0  0.36909533445276566  0.5333645081298429  0.7213435601750433  1.0000
  C   C40       1.0  0.2249861909174697  0.7065263743733398  0.19234203557643073  1.0000
  C   C41       1.0  0.06433099649491679  0.1967722259041055  0.4885203008625325  1.0000
  C   C42       1.0  0.8864027475826503  0.48380173706728175  0.2886327054908905  1.0000
  C   C43       1.0  0.8271238363427996  0.2778735162861353  0.8423475427110246  1.0000
  C   C44       1.0  0.6573074258493817  0.842408363020944  0.5712082078372661  1.0000
  C   C45       1.0  0.4876310219169113  0.5675182276203543  0.7314176103222537  1.0000
  C   C46       1.0  0.33016513473654646  0.7224114715394946  0.1581240217425803  1.0000
  C   C47       1.0  0.1650853879092438  0.1542008507166913  0.4337281576714176  1.0000
  C   C48       1.0  0.9976498200448418  0.4366960238559089  0.2769687857381201  1.0000
  C   C49       1.0  0.8822131778254347  0.509601448656234  0.8624801372325379  1.0000
  C   C50       1.0  0.7054686813661563  0.8721406195555872  0.34704181496404385  1.0000
  C   C51       1.0  0.5419808905230995  0.3455904763265708  0.4742712715629338  1.0000
  C   C52       1.0  0.39980509406144193  0.48494530873245634  0.131419454038003  1.0000
  C   C53       1.0  0.21577651626452624  0.13648042497611362  0.6498605499878636  1.0000
  C   C54       1.0  0.045700542990786595  0.6523131992192718  0.5125911142558479  1.0000
  C   C55       1.0  0.7623217168156627  0.7069581868816927  0.10414769581844052  1.0000
  C   C56       1.0  0.6024348498758912  0.10222404174309935  0.4013751547917508  1.0000
  C   C57       1.0  0.43934507893327895  0.4043630637467004  0.30348434363869364  1.0000
  C   C58       1.0  0.2622498473557329  0.2973819959490669  0.8952024001532166  1.0000
  C   C59       1.0  0.0892897018148346  0.8900402100191017  0.5820956485727039  1.0000
  C   C60       1.0  0.9237465537664916  0.5793024192360363  0.6899304252895107  1.0000
  N   N1        1.0  0.875519503041879  0.4360247705582342  0.9533456570205276  1.0000
  N   N2        1.0  0.6965845675378972  0.9439220665102895  0.5108753535733616  1.0000
  N   N3        1.0  0.5294128189712666  0.5105780716106308  0.5708652600624758  1.0000
  N   N4        1.0  0.3755116199867389  0.5651808839382326  0.04764929414391629  1.0000
  N   N5        1.0  0.19274877436988191  0.04542700753486874  0.48474694360314163  1.0000
  N   N6        1.0  0.0311598429342084  0.4861018423131754  0.43588329970827294  1.0000
  N   N7        1.0  0.7419757100174421  0.15731920090667756  0.667805070382741  1.0000
  N   N8        1.0  0.5721265023985254  0.6707291125274608  0.5223641082076041  1.0000
  N   N9        1.0  0.4071118733854533  0.5079018851578851  0.8440255882172352  1.0000
  N   N10       1.0  0.2702611614579524  0.8339467009352434  0.337552855663411  1.0000
  N   N11       1.0  0.11058196009106779  0.3368605877904899  0.49798679579352984  1.0000
  N   N12       1.0  0.9215087144592787  0.49884414374390934  0.16092819175258916  1.0000
  O   O1        1.0  0.064899920791099  0.5512046621350067  0.030282387041097675  1.0000
  O   O2        1.0  0.9093374333945262  0.04365735140092405  0.4967009415676031  1.0000
  O   O3        1.0  0.7424642552920062  0.4978676496367954  0.45574618856533544  1.0000
  O   O4        1.0  0.5748053529411905  0.4511173258117439  0.9726738504422344  1.0000
  O   O5        1.0  0.40511995133255135  0.9765869739613748  0.5202099057252029  1.0000
  O   O6        1.0  0.23988260065030428  0.52228534299838  0.5429131953196915  1.0000
  O   O7        1.0  0.15923473861901982  0.4843174860572292  0.8960520351721472  1.0000
  O   O8        1.0  0.9955609159993629  0.9026605625475101  0.395187025838908  1.0000
  O   O9        1.0  0.8329928127454166  0.39265343582192713  0.4895531338800724  1.0000
  O   O10       1.0  0.6717700701944479  0.5306808218649695  0.10902206468412613  1.0000
  O   O11       1.0  0.491211596506524  0.11363333867177515  0.5862108379076288  1.0000
  O   O12       1.0  0.3243481054731631  0.5903877966901734  0.47633952757293235  1.0000
  O   O13       1.0  0.8444860094601696  0.6721430547934092  0.1337935718261037  1.0000
  O   O14       1.0  0.6828274184335968  0.126333497484346  0.4662270644059632  1.0000
  O   O15       1.0  0.5195181941914983  0.46762975664912443  0.34575226716926016  1.0000
  O   O16       1.0  0.34102157210070777  0.33330267210752135  0.8684317785846928  1.0000
  O   O17       1.0  0.18595272785604783  0.8663402759236832  0.5335927034071163  1.0000
  O   O18       1.0  0.022570724113947404  0.5305617099451752  0.6626865884360029  1.0000
  O   O19       1.0  0.6900332730352899  0.6666823638755801  0.03905879953394749  1.0000
  O   O20       1.0  0.5227079847053419  0.043512826277933  0.3776212992872772  1.0000
  O   O21       1.0  0.3604861293225099  0.38087158200830373  0.33768156698464225  1.0000
  O   O22       1.0  0.18783684497014255  0.33726217099498984  0.956601165633728  1.0000
  O   O23       1.0  0.003977073970340008  0.941139290726305  0.5848638457331676  1.0000
  O   O24       1.0  0.838099989083993  0.5846312219916429  0.6430992048765419  1.0000
