data_image0
_chemical_formula_structural       Na2H44PdC44S4N4O10
_chemical_formula_sum              "Na2 H44 Pd1 C44 S4 N4 O10"
_cell_length_a       8.201109117103101
_cell_length_b       12.704979424134969
_cell_length_c       12.852714058254465
_cell_angle_alpha    115.09939506791193
_cell_angle_beta     105.88559164913086
_cell_angle_gamma    91.60456672322263

_space_group_name_H-M_alt    "P 1"
_space_group_IT_number       1

loop_
  _space_group_symop_operation_xyz
  'x, y, z'

loop_
  _atom_site_type_symbol
  _atom_site_label
  _atom_site_symmetry_multiplicity
  _atom_site_fract_x
  _atom_site_fract_y
  _atom_site_fract_z
  _atom_site_occupancy
  Na  Na1       1.0  0.745391142048085  0.3273065211224732  0.6212713106137501  1.0000
  Na  Na2       1.0  0.2546070387232433  0.6726935592212655  0.3787280997244978  1.0000
  H   H1        1.0  0.37276099888319447  0.08030360195174778  0.19098099721991704  1.0000
  H   H2        1.0  0.6272399239241934  0.9196973711732709  0.8090184875671157  1.0000
  H   H3        1.0  0.3748642290557527  0.924795146673297  0.9951948549298849  1.0000
  H   H4        1.0  0.6251328903264621  0.07520581118978949  0.004804743601830807  1.0000
  H   H5        1.0  0.48492576734769693  0.7489455908728642  0.8773316579679858  1.0000
  H   H6        1.0  0.5150726206923152  0.25105537076621687  0.12266816159235111  1.0000
  H   H7        1.0  0.700432321938095  0.6619154104812424  0.983620186806718  1.0000
  H   H8        1.0  0.29956585373683714  0.3380846777303787  0.016377669870394084  1.0000
  H   H9        1.0  0.7998987051809224  0.7498457522930192  0.20731952850609053  1.0000
  H   H10       1.0  0.20009673355436064  0.2501534352694321  0.7926798073833795  1.0000
  H   H11       1.0  0.7889653621962579  0.9010787555940635  0.4059263554152963  1.0000
  H   H12       1.0  0.21103260875819532  0.09892044738826657  0.5940718688703016  1.0000
  H   H13       1.0  0.9378448544566567  0.06805562608021627  0.599269689950134  1.0000
  H   H14       1.0  0.06215966960362347  0.9319444731434955  0.4007308255312623  1.0000
  H   H15       1.0  0.7744909614487483  0.971496736608138  0.5995036966616851  1.0000
  H   H16       1.0  0.22551208413687365  0.028502481478177792  0.4004954117384329  1.0000
  H   H17       1.0  0.7123962595598314  0.13879691299961644  0.7656855632572218  1.0000
  H   H18       1.0  0.2876044559788795  0.8612031788300596  0.2343135123077218  1.0000
  H   H19       1.0  0.9301731712129709  0.1178822711308456  0.809674797165691  1.0000
  H   H20       1.0  0.06982754942214336  0.882117812830934  0.19032583206038825  1.0000
  H   H21       1.0  0.9797068835645815  0.4280437294953784  0.9047454208453161  1.0000
  H   H22       1.0  0.020294249059681097  0.5719581209910345  0.09525524999437356  1.0000
  H   H23       1.0  0.9496798937897354  0.3219103798130901  0.958840437892313  1.0000
  H   H24       1.0  0.05032103411405585  0.678090585444039  0.04116060055585539  1.0000
  H   H25       1.0  0.6253377417246212  0.3014314720729415  0.8631907504197756  1.0000
  H   H26       1.0  0.3746633934478467  0.69857037447953  0.13681069725048187  1.0000
  H   H27       1.0  0.7244124293263853  0.44455504945610613  0.9817643578657071  1.0000
  H   H28       1.0  0.27558955996651946  0.5554450382816752  0.018236492389007673  1.0000
  H   H29       1.0  0.4630120685890589  0.5054379715633245  0.8639008877006092  1.0000
  H   H30       1.0  0.5369859100100031  0.4945612196171749  0.13609966707669938  1.0000
  H   H31       1.0  0.4020088826201799  0.3623524650336591  0.7372277117385551  1.0000
  H   H32       1.0  0.5979903646366722  0.6376467299228351  0.2627730640673747  1.0000
  H   H33       1.0  0.34143584161582646  0.5317589413477818  0.6803463491587678  1.0000
  H   H34       1.0  0.6585621369832352  0.4682402498327176  0.3196542056185407  1.0000
  H   H35       1.0  0.5682051676871469  0.5841096587364447  0.7403177142742907  1.0000
  H   H36       1.0  0.43179301818059196  0.4158904137393975  0.25968324972510004  1.0000
  H   H37       1.0  0.2676418187191629  0.4161892105863102  0.45584373967027153  1.0000
  H   H38       1.0  0.7323559577076253  0.5838090914309503  0.5441579595460837  1.0000
  H   H39       1.0  0.2589667705108809  0.32282750932348137  0.5272317441369125  1.0000
  H   H40       1.0  0.7410310059159145  0.6771707926937792  0.47276995507944264  1.0000
  H   H41       1.0  0.2643868752458332  0.2111200966109053  0.3165188926772515  1.0000
  H   H42       1.0  0.7356119600218705  0.7888773318209557  0.6834818415150749  1.0000
  H   H43       1.0  0.4688111154358126  0.29656805283475757  0.35500006090448016  1.0000
  H   H44       1.0  0.5311864235801593  0.7034346597511243  0.6450019097325425  1.0000
  Pd  Pd1       1.0  0.9999988301713003  0.9999974362997502  0.9999991805311907  1.0000
  C   C1        1.0  0.5211677799124743  0.09221478540149518  0.36330226293792833  1.0000
  C   C2        1.0  0.47883461882137374  0.9077870727948606  0.6366978520998147  1.0000
  C   C3        1.0  0.4648290195211188  0.042826180272903996  0.23889188159869695  1.0000
  C   C4        1.0  0.5351706371766767  0.9571747851421718  0.7611081589902753  1.0000
  C   C5        1.0  0.5239369318303133  0.9396684540105295  0.16975977469788708  1.0000
  C   C6        1.0  0.4760612489410221  0.06033162633320188  0.8302396356403676  1.0000
  C   C7        1.0  0.467073222093262  0.8860962882766613  0.04150602198805596  1.0000
  C   C8        1.0  0.5329234827516062  0.11390290699573309  0.9584927580994816  1.0000
  C   C9        1.0  0.5286500476932046  0.787493969374722  0.9758997826199903  1.0000
  C   C10       1.0  0.4713481305299253  0.21250611490295765  0.024098850887689545  1.0000
  C   C11       1.0  0.649434951894463  0.7381290679826403  0.03597600292423654  1.0000
  C   C12       1.0  0.35056322632866704  0.2618710162950393  0.9640226305834433  1.0000
  C   C13       1.0  0.7050372986627876  0.787226501201438  0.16102808501913313  1.0000
  C   C14       1.0  0.2949594061820733  0.21277269407094923  0.8389706950684045  1.0000
  C   C15       1.0  0.6436816517120646  0.8882334741018665  0.23083102738122105  1.0000
  C   C16       1.0  0.3563150531328034  0.11176572117052787  0.7691677527063163  1.0000
  C   C17       1.0  0.6993992284326822  0.9409064627239231  0.35957153222695853  1.0000
  C   C18       1.0  0.3006010725686821  0.05909186651506098  0.6404267248938069  1.0000
  C   C19       1.0  0.6410667008735373  0.040921576755550894  0.42455439459598676  1.0000
  C   C20       1.0  0.3589365494325563  0.9590785265600559  0.5754443461956457  1.0000
  C   C21       1.0  0.816379156618794  0.06293613831176968  0.619311350654499  1.0000
  C   C22       1.0  0.18362536744149333  0.937063960911949  0.3806891648269044  1.0000
  C   C23       1.0  0.8365391967182347  0.14456844803960678  0.7494526431785645  1.0000
  C   C24       1.0  0.16346279002647174  0.8554316436321157  0.25054743024557513  1.0000
  C   C25       1.0  0.8954202597830374  0.35007468183894014  0.8880925417478807  1.0000
  C   C26       1.0  0.10457918964608837  0.6499254022807931  0.11190708961900235  1.0000
  C   C27       1.0  0.7180317567982257  0.37982602965733736  0.8893449862540449  1.0000
  C   C28       1.0  0.2819678998995768  0.6201749357577382  0.11065505433492727  1.0000
  C   C29       1.0  0.4903742565422107  0.4470434354437885  0.7802286113165595  1.0000
  C   C30       1.0  0.5096241365942049  0.5529575183273961  0.21977276190492034  1.0000
  C   C31       1.0  0.4689006725305235  0.5051837137103519  0.6969825486697446  1.0000
  C   C32       1.0  0.5310973060685384  0.4948154774701477  0.3030180061075569  1.0000
  C   C33       1.0  0.340260284849478  0.36035495417545593  0.49143783837305227  1.0000
  C   C34       1.0  0.6597374915773101  0.6396433478418118  0.5085638608433031  1.0000
  C   C35       1.0  0.3834717516064999  0.26219770578297386  0.3902981092484197  1.0000
  C   C36       1.0  0.6165274956503523  0.7378014891735205  0.6097026665575102  1.0000
  C   C37       1.0  0.03617245123906088  0.7923899944074009  0.8095618215661915  1.0000
  C   C38       1.0  0.9638293307851669  0.20760921203503802  0.19043861946642696  1.0000
  C   C39       1.0  0.06690765365088674  0.6883653022926948  0.7212060460229638  1.0000
  C   C40       1.0  0.9330979292503089  0.3116339233456173  0.2787935044344111  1.0000
  C   C41       1.0  0.028344224860788355  0.5788393316842998  0.7192654515389165  1.0000
  C   C42       1.0  0.9716586134561496  0.4211590051066736  0.28073324763911245  1.0000
  C   C43       1.0  0.13363844240245018  0.6917164808637324  0.6326943207107903  1.0000
  C   C44       1.0  0.8663709158936895  0.3082828033099148  0.3672965708656336  1.0000
  S   S1        1.0  0.9390394236882146  0.7946577414928837  0.9126804087678339  1.0000
  S   S2        1.0  0.060961938702256184  0.20533971022675243  0.08731766015947778  1.0000
  S   S3        1.0  0.08934731317877716  0.9315350404697964  0.8273204152338353  1.0000
  S   S4        1.0  0.9106493916660908  0.06846415480259789  0.1726783648537022  1.0000
  N   N1        1.0  0.9963021238152194  0.48792530591629907  0.7186790653161239  1.0000
  N   N2        1.0  0.0036941439947568737  0.5120774068275294  0.2813219074617024  1.0000
  N   N3        1.0  0.1876730118824668  0.694536008786386  0.5582375224999298  1.0000
  N   N4        1.0  0.8123251765334774  0.3054640597555148  0.4417642183300289  1.0000
  O   O1        1.0  0.4718263415531041  0.18954666574087747  0.43999381220692163  1.0000
  O   O2        1.0  0.5281785919481266  0.8104552039414157  0.56000596805751  1.0000
  O   O3        1.0  0.6882101404554889  0.10126380778432778  0.5477053356727241  1.0000
  O   O4        1.0  0.3117933171192817  0.8987371768266286  0.4522938143409904  1.0000
  O   O5        1.0  0.8941282563526017  0.26193449770742205  0.7715623492715766  1.0000
  O   O6        1.0  0.1058722519174324  0.7380647128269047  0.22843631707127804  1.0000
  O   O7        1.0  0.6651537717769925  0.428743570742995  0.8060039260868663  1.0000
  O   O8        1.0  0.334845887469008  0.5712573907381324  0.1939968913326666  1.0000
  O   O9        1.0  0.4962932549015378  0.4295182764770686  0.5849645009767884  1.0000
  O   O10       1.0  0.5037047236975241  0.5704809147034311  0.41503605380052033  1.0000
