data_image0
_chemical_formula_structural       Cd4H28C32N4O32
_chemical_formula_sum              "Cd4 H28 C32 N4 O32"
_cell_length_a       5.865497121151101
_cell_length_b       8.768798761520959
_cell_length_c       20.787828111188844
_cell_angle_alpha    89.99950896403534
_cell_angle_beta     90.00009163554178
_cell_angle_gamma    98.20351416323808

_space_group_name_H-M_alt    "P 1"
_space_group_IT_number       1

loop_
  _space_group_symop_operation_xyz
  'x, y, z'

loop_
  _atom_site_type_symbol
  _atom_site_label
  _atom_site_symmetry_multiplicity
  _atom_site_fract_x
  _atom_site_fract_y
  _atom_site_fract_z
  _atom_site_occupancy
  Cd  Cd1       1.0  0.8405965294627575  0.15886562174787855  0.5363917015450781  1.0000
  Cd  Cd2       1.0  0.15940241882852746  0.3411322256573187  0.0363904280981373  1.0000
  Cd  Cd3       1.0  0.1594024302943637  0.8411353746949147  0.46361019643852325  1.0000
  Cd  Cd4       1.0  0.8406048890400868  0.658867760219117  0.9636133940923841  1.0000
  H   H1        1.0  0.5243872753670471  0.3592900293451748  0.5658118378982165  1.0000
  H   H2        1.0  0.4756025262256286  0.14070362838170786  0.0658080882468042  1.0000
  H   H3        1.0  0.47560231681067205  0.6407062183882459  0.4341905411423427  1.0000
  H   H4        1.0  0.5244066959361077  0.8592975376590032  0.9341904423839793  1.0000
  H   H5        1.0  0.7671147140291904  0.47097878440121826  0.5618160899279728  1.0000
  H   H6        1.0  0.2328752891508756  0.029016105662890403  0.061815507702938505  1.0000
  H   H7        1.0  0.23287056251936622  0.5290219859950299  0.43818195964663437  1.0000
  H   H8        1.0  0.7671322226102147  0.9709850321074572  0.9381839850289281  1.0000
  H   H9        1.0  0.28371853639260536  0.14960294414169079  0.5966441418763182  1.0000
  H   H10       1.0  0.7162806505852826  0.3503948409030997  0.09664841274381078  1.0000
  H   H11       1.0  0.7162750882663358  0.850396815726974  0.40335198349932716  1.0000
  H   H12       1.0  0.2837236442683563  0.649607392171987  0.9033534852389168  1.0000
  H   H13       1.0  0.18610405534978003  0.27950571022258686  0.6379839377336722  1.0000
  H   H14       1.0  0.8138934450975412  0.22049121352714712  0.13798728783015693  1.0000
  H   H15       1.0  0.8138960031259967  0.7204918589687495  0.3620141118505487  1.0000
  H   H16       1.0  0.18610702116637157  0.7795086593405501  0.862013167003667  1.0000
  H   H17       1.0  0.5852370248728603  0.7665911801751905  0.8161455865552796  1.0000
  H   H18       1.0  0.4147728937882532  0.7334011889551489  0.3161429118225882  1.0000
  H   H19       1.0  0.4147511400483879  0.2333970046206844  0.18385534934736109  1.0000
  H   H20       1.0  0.5852383219197179  0.26659197064024914  0.6838570619754663  1.0000
  H   H21       1.0  0.8946230928488461  0.6143098128936444  0.7831776117782782  1.0000
  H   H22       1.0  0.1053718209562504  0.8856852698823233  0.2831799970009001  1.0000
  H   H23       1.0  0.10536890066129698  0.38568073213869525  0.21682188096884403  1.0000
  H   H24       1.0  0.894626119333793  0.11430996725565733  0.716827192550987  1.0000
  H   H25       1.0  0.003674482634544107  0.6033432189951212  0.6679210137392744  1.0000
  H   H26       1.0  0.9963319296364402  0.8966520804951588  0.1679194878962775  1.0000
  H   H27       1.0  0.9963108731654555  0.3966483648497033  0.3320779979535189  1.0000
  H   H28       1.0  0.0036662145471880046  0.10334430849796662  0.8320872206028439  1.0000
  C   C1        1.0  0.5144693724195689  0.8293473593658262  0.7182809737448679  1.0000
  C   C2        1.0  0.48553495074175856  0.6706445933667808  0.2182780824667319  1.0000
  C   C3        1.0  0.48553431075262665  0.17065141816805615  0.2817199621425033  1.0000
  C   C4        1.0  0.5144597726375081  0.32935173919226207  0.78171996711837  1.0000
  C   C5        1.0  0.6306937939284296  0.7570695968899699  0.7657180290603235  1.0000
  C   C6        1.0  0.3693156878276368  0.7429214846933051  0.2657172205433582  1.0000
  C   C7        1.0  0.3693039424655281  0.24292448848010645  0.2342809826311125  1.0000
  C   C8        1.0  0.6306862849440406  0.25707726456536756  0.7342851584958368  1.0000
  C   C9        1.0  0.8050158572634982  0.6742710665888154  0.7473618093577059  1.0000
  C   C10       1.0  0.1950011918211203  0.8257342918631921  0.2473625344012618  1.0000
  C   C11       1.0  0.19497312323250068  0.32572172561310003  0.2526386454860301  1.0000
  C   C12       1.0  0.8050033069263803  0.17426909305734742  0.7526398446301528  1.0000
  C   C13       1.0  0.8664189165186895  0.6676638006970776  0.6826018250568708  1.0000
  C   C14       1.0  0.13359324711409218  0.8323347432641768  0.1826029755640661  1.0000
  C   C15       1.0  0.1335815497452231  0.33233607217061945  0.31739862977695305  1.0000
  C   C16       1.0  0.8664012723731176  0.16766043738640246  0.8174008466319053  1.0000
  C   C17       1.0  0.7575954879378912  0.7474152675476804  0.6361970929401011  1.0000
  C   C18       1.0  0.24241534628555425  0.7525864869821176  0.1361961840417933  1.0000
  C   C19       1.0  0.2424162602003648  0.2525905341306612  0.3638038429365836  1.0000
  C   C20       1.0  0.7575784822684993  0.24741442468837962  0.8638047518391687  1.0000
  C   C21       1.0  0.5763505625365468  0.8281676823388723  0.6530178006336271  1.0000
  C   C22       1.0  0.4236600775055662  0.6718325813949803  0.15301583532762922  1.0000
  C   C23       1.0  0.4236548310361599  0.1718311234702199  0.3469816921019344  1.0000
  C   C24       1.0  0.5763442173473761  0.328169651704343  0.8469836574014168  1.0000
  C   C25       1.0  0.8486878000380427  0.7548931540263909  0.568702317245247  1.0000
  C   C26       1.0  0.15131423931396878  0.7451086674412295  0.0687018697236965  1.0000
  C   C27       1.0  0.15132113897936958  0.24511604668636278  0.43129813757379754  1.0000
  C   C28       1.0  0.8486874503121412  0.2548981165331128  0.9312981040471442  1.0000
  C   C29       1.0  0.4650549497787323  0.9036163725376625  0.5981513932654466  1.0000
  C   C30       1.0  0.5349646183740545  0.5963874418266502  0.09814879733990269  1.0000
  C   C31       1.0  0.5349474307798373  0.0963846804410053  0.4018490615667218  1.0000
  C   C32       1.0  0.46504582715000703  0.40362063531586057  0.9018497332786309  1.0000
  N   N1        1.0  0.32473989162185996  0.9088076264682102  0.7382737301539634  1.0000
  N   N2        1.0  0.6752644430847353  0.5911839233547554  0.2382741115900444  1.0000
  N   N3        1.0  0.6752571538397801  0.09119218989269483  0.2617252815268785  1.0000
  N   N4        1.0  0.3247294647195033  0.4088078018079386  0.7617234569524882  1.0000
  O   O1        1.0  0.2870605618942078  0.9225439271506628  0.7971066814886782  1.0000
  O   O2        1.0  0.7129578977783737  0.5774489669263687  0.2971052080319438  1.0000
  O   O3        1.0  0.7129234912924428  0.0774499321292481  0.2028928112503863  1.0000
  O   O4        1.0  0.2870503049144871  0.42254643987253365  0.702892360507569  1.0000
  O   O5        1.0  0.20738030261488657  0.9608280405129933  0.6960998874584021  1.0000
  O   O6        1.0  0.7926276324342892  0.5391655675588183  0.1960976320347356  1.0000
  O   O7        1.0  0.7926180454601023  0.0391695004128323  0.3038986431761685  1.0000
  O   O8        1.0  0.20736305846167363  0.4608272529376834  0.8038994554542426  1.0000
  O   O9        1.0  0.8926571911211169  0.6348456288036675  0.5409459192962558  1.0000
  O   O10       1.0  0.1073457270306761  0.8651521728120884  0.0409488612218567  1.0000
  O   O11       1.0  0.10731932952808877  0.365153848472886  0.4590487629233024  1.0000
  O   O12       1.0  0.8926717639912594  0.13485716920883561  0.9590511125483944  1.0000
  O   O13       1.0  0.8943005043378418  0.8893015872347833  0.5429562493420831  1.0000
  O   O14       1.0  0.1057220449568277  0.6107010922460746  0.042948570102439  1.0000
  O   O15       1.0  0.1057148684962712  0.11070542280549492  0.45704564863480357  1.0000
  O   O16       1.0  0.8942830654703042  0.38930574827867304  0.9570485173647612  1.0000
  O   O17       1.0  0.5063281624508562  0.05043116939140899  0.5927998218832684  1.0000
  O   O18       1.0  0.49368018599096075  0.4495702900476389  0.0927968830677415  1.0000
  O   O19       1.0  0.4936671726094345  0.9495686187233756  0.40719774664497527  1.0000
  O   O20       1.0  0.5063238257164001  0.5504399777673471  0.9072002043929572  1.0000
  O   O21       1.0  0.3549170686266904  0.8109073027783041  0.5595467308657263  1.0000
  O   O22       1.0  0.6451033720615909  0.6890927103468485  0.0595467409192665  1.0000
  O   O23       1.0  0.6450814833431265  0.1890913899590458  0.4404556481726871  1.0000
  O   O24       1.0  0.3549221839272291  0.3109236557894519  0.940456119144706  1.0000
  O   O25       1.0  0.6879415868132737  0.36603266075262303  0.5763598671802512  1.0000
  O   O26       1.0  0.31205266114167063  0.13396660015418863  0.07635990631149531  1.0000
  O   O27       1.0  0.31205415603487546  0.6339694310482218  0.42363914449612133  1.0000
  O   O28       1.0  0.687955258406582  0.8660368413264552  0.9236386243148189  1.0000
  O   O29       1.0  0.17456578731881928  0.2274741851341275  0.596161478393995  1.0000
  O   O30       1.0  0.8254431747474483  0.27253066203857657  0.0961660884406186  1.0000
  O   O31       1.0  0.8254354945188708  0.7725302951735386  0.4038351280257828  1.0000
  O   O32       1.0  0.17455790319763057  0.7274726663800238  0.9038343663870805  1.0000
