data_image0
_chemical_formula_structural       Tb8H64C104N8O40
_chemical_formula_sum              "Tb8 H64 C104 N8 O40"
_cell_length_a       8.211878270501055
_cell_length_b       21.81102533031073
_cell_length_c       21.81206078803384
_cell_angle_alpha    87.98706248793424
_cell_angle_beta     79.15285297221982
_cell_angle_gamma    79.17014680244567

_space_group_name_H-M_alt    "P 1"
_space_group_IT_number       1

loop_
  _space_group_symop_operation_xyz
  'x, y, z'

loop_
  _atom_site_type_symbol
  _atom_site_label
  _atom_site_symmetry_multiplicity
  _atom_site_fract_x
  _atom_site_fract_y
  _atom_site_fract_z
  _atom_site_occupancy
  Tb  Tb1       1.0  0.9880770177436773  0.16705077677055868  0.7802337457945896  1.0000
  Tb  Tb2       1.0  0.9354419566794265  0.3329820579437026  0.7197886559118487  1.0000
  Tb  Tb3       1.0  0.6550719094093296  0.7802040199864848  0.3329371724148941  1.0000
  Tb  Tb4       1.0  0.768285556743841  0.7197732669395834  0.16703467311098313  1.0000
  Tb  Tb5       1.0  0.011924271319052994  0.8329492866351628  0.219766355051128  1.0000
  Tb  Tb6       1.0  0.06456278897469045  0.6670175387738482  0.2802107057112551  1.0000
  Tb  Tb7       1.0  0.3449254569616047  0.2197974433167076  0.6670611988652553  1.0000
  Tb  Tb8       1.0  0.23171596242750067  0.2802267966393543  0.8329664330378606  1.0000
  H   H1        1.0  0.8706277083629814  0.2814501201589721  0.8420360906820576  1.0000
  H   H2        1.0  0.9943022970881756  0.21855854763011  0.6579609655817578  1.0000
  H   H3        1.0  0.6521776147790278  0.842041122634697  0.21862251537518063  1.0000
  H   H4        1.0  0.712647903296819  0.6579232125050751  0.2813727584735802  1.0000
  H   H5        1.0  0.12937265685741275  0.7185504099106481  0.15796346321261012  1.0000
  H   H6        1.0  0.005700146236378404  0.7814410488989838  0.3420382186165227  1.0000
  H   H7        1.0  0.3478193028302456  0.1579584735964801  0.7813772305641464  1.0000
  H   H8        1.0  0.2873508471336663  0.342077784480658  0.7186281703638784  1.0000
  H   H9        1.0  0.4618000896658785  0.04717166286489061  0.7680046634645166  1.0000
  H   H10       1.0  0.2772016756725791  0.45284618588471665  0.7321106538807598  1.0000
  H   H11       1.0  0.009005938381427749  0.7677837606487258  0.452875885552757  1.0000
  H   H12       1.0  0.22984788561664984  0.7322196032309376  0.0470759618952883  1.0000
  H   H13       1.0  0.5381982061197306  0.9528284006045878  0.23199718185021823  1.0000
  H   H14       1.0  0.7228028305817984  0.5471548115721633  0.2678907185187711  1.0000
  H   H15       1.0  0.9909905217968036  0.23221536865109726  0.547123313322082  1.0000
  H   H16       1.0  0.7701554549203565  0.2677837278281387  0.9529229418862428  1.0000
  H   H17       1.0  0.4785858404355637  0.9758786019625346  0.8609371881679593  1.0000
  H   H18       1.0  0.3153350501105832  0.524110725122938  0.6391254824313961  1.0000
  H   H19       1.0  0.9544026763278595  0.8608240782738007  0.5241010910775472  1.0000
  H   H20       1.0  0.33912200127645076  0.6391487683503171  0.9759157851983389  1.0000
  H   H21       1.0  0.5214186720129066  0.024121461552645895  0.1390621735118671  1.0000
  H   H22       1.0  0.6846717615703853  0.47588980555154586  0.3608750620331165  1.0000
  H   H23       1.0  0.04559584987723046  0.1391759849829555  0.4758992906386935  1.0000
  H   H24       1.0  0.6608730534737931  0.3608540956769701  0.024085424736540507  1.0000
  H   H25       1.0  0.9319634811471927  0.0417194684739499  0.8787953657697541  1.0000
  H   H26       1.0  0.8524588756549751  0.4585244643602381  0.6212601126441369  1.0000
  H   H27       1.0  0.47350147474193705  0.8787959663759891  0.4582788502672415  1.0000
  H   H28       1.0  0.8104519355302601  0.6212243348550857  0.041666262505515334  1.0000
  H   H29       1.0  0.06803826256041369  0.9582815284480263  0.12120381859868701  1.0000
  H   H30       1.0  0.14754793912305086  0.5414755993434001  0.3787394264605198  1.0000
  H   H31       1.0  0.5264995839013124  0.12120409724244753  0.5417227141769629  1.0000
  H   H32       1.0  0.18954546645083076  0.37877152672761827  0.9583323889644931  1.0000
  H   H33       1.0  0.662524324639584  0.8820745260610608  0.9002249565522078  1.0000
  H   H34       1.0  0.44531350436664496  0.6180800301322052  0.5998594597492897  1.0000
  H   H35       1.0  0.044958157907359624  0.9001818135787045  0.6178740906470991  1.0000
  H   H36       1.0  0.5625714101741225  0.5995867581313093  0.8821141979702675  1.0000
  H   H37       1.0  0.3374742133319303  0.11792367008417409  0.09977634152785698  1.0000
  H   H38       1.0  0.554686881600432  0.381917232299287  0.4001404633312546  1.0000
  H   H39       1.0  0.9550366846947972  0.09981824922213887  0.38212501962877343  1.0000
  H   H40       1.0  0.43741998171986296  0.4004128378019444  0.11788610971012052  1.0000
  H   H41       1.0  0.7291273310926982  0.816405749898891  0.9916472554412223  1.0000
  H   H42       1.0  0.5378259905549994  0.6837314355449992  0.5084205333422673  1.0000
  H   H43       1.0  0.04584200711135364  0.99163025238407  0.6835758967883123  1.0000
  H   H44       1.0  0.7210597557631361  0.5082670808281762  0.8164058821107787  1.0000
  H   H45       1.0  0.2708635999623183  0.18359384645980734  0.008355979436139194  1.0000
  H   H46       1.0  0.46216517711359717  0.316267226659278  0.4915792272169028  1.0000
  H   H47       1.0  0.9541553592595877  0.008371210919122497  0.3164224744918371  1.0000
  H   H48       1.0  0.2789390008614419  0.49173298221585776  0.1835930360069753  1.0000
  H   H49       1.0  0.8600153754695017  0.9725609631694637  0.0725457233353097  1.0000
  H   H50       1.0  0.905051557298499  0.5274868708524565  0.42750115578597553  1.0000
  H   H51       1.0  0.33208595490270204  0.0726335645005065  0.5273481572833845  1.0000
  H   H52       1.0  0.9326920348095555  0.4275544682956394  0.9725880889326746  1.0000
  H   H53       1.0  0.13998385313870199  0.027437233109502298  0.9274561217525275  1.0000
  H   H54       1.0  0.09495663286968914  0.47251412667439024  0.5724990191523175  1.0000
  H   H55       1.0  0.6679134982417808  0.9273655651214978  0.4726517660240503  1.0000
  H   H56       1.0  0.06730717645989859  0.5724465282646564  0.027409912707810208  1.0000
  H   H57       1.0  0.7952651388938964  0.0386885007278934  0.9819927184978852  1.0000
  H   H58       1.0  0.8156672594328073  0.4613850726140569  0.518071500346565  1.0000
  H   H59       1.0  0.33327095718219374  0.9820682709141834  0.4611727300801149  1.0000
  H   H60       1.0  0.7769719045212258  0.5180397957737526  0.03873162787483861  1.0000
  H   H61       1.0  0.2047313327398753  0.961308761846361  0.018009865642397916  1.0000
  H   H62       1.0  0.18434783772405436  0.5386159254781617  0.4819292068662122  1.0000
  H   H63       1.0  0.6667294201155091  0.0179303916579769  0.5388252712767496  1.0000
  H   H64       1.0  0.22302064163458366  0.4819593332828802  0.9612677631581122  1.0000
  C   C1        1.0  0.6732813777353926  0.1306560634370086  0.726486673309573  1.0000
  C   C2        1.0  0.5305289783113241  0.36941289457374893  0.7735611832989945  1.0000
  C   C3        1.0  0.3039076804093168  0.7263624833831273  0.3693101494747282  1.0000
  C   C4        1.0  0.3997638456465395  0.7736331865728021  0.1306684621338405  1.0000
  C   C5        1.0  0.3267127500754583  0.8693477342250303  0.2735149950341125  1.0000
  C   C6        1.0  0.4694808594707638  0.6305825009013973  0.2264364333445883  1.0000
  C   C7        1.0  0.6960993496138386  0.2736399145761013  0.6306904839290866  1.0000
  C   C8        1.0  0.6002441258685849  0.22636594405525298  0.8693340927667634  1.0000
  C   C9        1.0  0.6861067166307109  0.08121238976257669  0.7765608474159079  1.0000
  C   C10       1.0  0.5440314970541921  0.41885793900318186  0.7234849613286869  1.0000
  C   C11       1.0  0.2672354142680932  0.7764698526108018  0.4187386745133352  1.0000
  C   C12       1.0  0.4625549904165425  0.7235155028148341  0.0812356537060168  1.0000
  C   C13       1.0  0.3138860385761359  0.9187900074913457  0.22344164863590518  1.0000
  C   C14       1.0  0.45597509071227216  0.5811416575563796  0.276512567112988  1.0000
  C   C15       1.0  0.7327608065103988  0.22353067742834298  0.581262535137931  1.0000
  C   C16       1.0  0.5374483677701039  0.2764850275769675  0.9187646246212466  1.0000
  C   C17       1.0  0.5646831049459069  0.04357767905698749  0.793833868352138  1.0000
  C   C18       1.0  0.4022300006574186  0.4564705429081996  0.7062302895385599  1.0000
  C   C19       1.0  0.10821839366394666  0.7937050123785528  0.4564121168453639  1.0000
  C   C20       1.0  0.358421115468957  0.7062825144746298  0.043572403491062124  1.0000
  C   C21       1.0  0.435315857943543  0.9564261187692437  0.20616669124271433  1.0000
  C   C22       1.0  0.5977779829350139  0.5435267202223953  0.2937707128242479  1.0000
  C   C23       1.0  0.8917849707167849  0.20629458407154996  0.5435861507621951  1.0000
  C   C24       1.0  0.6415822368344735  0.2937189494729324  0.9564274166542929  1.0000
  C   C25       1.0  0.5750883818873049  0.004069228335431801  0.8451342890924636  1.0000
  C   C26       1.0  0.4242994905423246  0.49596678785245973  0.6549200337317557  1.0000
  C   C27       1.0  0.07905253924220552  0.8450493384033848  0.4958767114770737  1.0000
  C   C28       1.0  0.41988102427091417  0.6549222375150022  0.004110567687618503  1.0000
  C   C29       1.0  0.4249103713293394  0.9959313020653937  0.1548681032867663  1.0000
  C   C30       1.0  0.5757091660371643  0.5040332760791345  0.345080141093085  1.0000
  C   C31       1.0  0.9209411494090036  0.1549511908881414  0.5041208465446161  1.0000
  C   C32       1.0  0.5801147273101109  0.34507969270431  0.9958891785353218  1.0000
  C   C33       1.0  0.706620260011462  0.0029034695755783004  0.8781721598041229  1.0000
  C   C34       1.0  0.5876887285425241  0.4971942144406043  0.6218848476428676  1.0000
  C   C35       1.0  0.20934022601486643  0.8781589853730553  0.4970204904343092  1.0000
  C   C36       1.0  0.584381379586837  0.621801890503818  0.0029539549345543254  1.0000
  C   C37       1.0  0.2933840251145623  0.9970961271814716  0.12182766011434151  1.0000
  C   C38       1.0  0.41232177572164375  0.5028049161631856  0.3781164210840728  1.0000
  C   C39       1.0  0.7906576157476267  0.12184014380827791  0.5029773335544547  1.0000
  C   C40       1.0  0.4156164618647723  0.3781972390634534  0.9970463379558295  1.0000
  C   C41       1.0  0.8253061188235761  0.041039952719167196  0.8558136711268745  1.0000
  C   C42       1.0  0.7221459756930529  0.4591155478937168  0.6442385108848399  1.0000
  C   C43       1.0  0.3661529212608769  0.8558026563732356  0.458919163652439  1.0000
  C   C44       1.0  0.6807734152291617  0.6441922321026253  0.04104539771877573  1.0000
  C   C45       1.0  0.17469078082518041  0.9589624445652234  0.14418716916834026  1.0000
  C   C46       1.0  0.27785463140236993  0.5408831152376052  0.3557629646767779  1.0000
  C   C47       1.0  0.633845835363701  0.1441974066707985  0.541079754465315  1.0000
  C   C48       1.0  0.3192239687914054  0.3558064305332919  0.9589543481071132  1.0000
  C   C49       1.0  0.727573465318237  0.964616130580552  0.9341277185659322  1.0000
  C   C50       1.0  0.6263671979371706  0.535509388821488  0.5659432295693065  1.0000
  C   C51       1.0  0.19201727269455682  0.9341487510336676  0.535299287403376  1.0000
  C   C52       1.0  0.6613544360939159  0.5658185697983811  0.9646686850472576  1.0000
  C   C53       1.0  0.27243175851360507  0.0353806654302318  0.06587255930755022  1.0000
  C   C54       1.0  0.3736412282228371  0.4644906753228284  0.4340584088540211  1.0000
  C   C55       1.0  0.8079801085398515  0.0658503781871573  0.4646989948807487  1.0000
  C   C56       1.0  0.3386383432675472  0.4341800924606288  0.03533070592897051  1.0000
  C   C57       1.0  0.7042418980070619  0.9022614285113093  0.9383460888215752  1.0000
  C   C58       1.0  0.5452450800973169  0.5978759411140189  0.5617410579729736  1.0000
  C   C59       1.0  0.10661852676821577  0.9383309942335314  0.5976895033736511  1.0000
  C   C60       1.0  0.6424367647152565  0.561531951313036  0.9023047072690318  1.0000
  C   C61       1.0  0.29575709182316245  0.09773816773510195  0.061652829239456294  1.0000
  C   C62       1.0  0.4547580597471494  0.40212272199304516  0.4382591314149876  1.0000
  C   C63       1.0  0.8933767763620253  0.061669068527820115  0.40230914860686073  1.0000
  C   C64       1.0  0.3575541607674353  0.4384685782154776  0.09769560052480131  1.0000
  C   C65       1.0  0.7421777108933443  0.8653101436903442  0.9890373982701419  1.0000
  C   C66       1.0  0.5970480770300526  0.6348274201780341  0.5110392418813916  1.0000
  C   C67       1.0  0.10765010496705671  0.9890365692918054  0.6346573757388256  1.0000
  C   C68       1.0  0.731483305427922  0.5109082844043228  0.8653121783581383  1.0000
  C   C69       1.0  0.257815074040451  0.1346875853988436  0.010964919789614704  1.0000
  C   C70       1.0  0.4029499886469451  0.36517264311822123  0.4889615981302029  1.0000
  C   C71       1.0  0.8923461251025699  0.010962559834794699  0.3653408178328803  1.0000
  C   C72       1.0  0.26851177037988094  0.4890913115988979  0.1346869318610118  1.0000
  C   C73       1.0  0.8024372832164418  0.8900649070538477  0.03701767739109842  1.0000
  C   C74       1.0  0.7299031820362247  0.6100231701722264  0.46306015098944914  1.0000
  C   C75       1.0  0.19246982151232558  0.03704962883146121  0.6098741199683886  1.0000
  C   C76       1.0  0.8398816020474416  0.4630134103399541  0.8900569698363157  1.0000
  C   C77       1.0  0.19755410836666  0.10993468926535137  0.9629850991909094  1.0000
  C   C78       1.0  0.2700987917799865  0.3899778269229726  0.5369400386821255  1.0000
  C   C79       1.0  0.807529862051638  0.9629495005778209  0.3901243397405594  1.0000
  C   C80       1.0  0.16011231361532913  0.5369875860956412  0.10994259884835601  1.0000
  C   C81       1.0  0.8174868166441768  0.9530774865872188  0.03438580608897009  1.0000
  C   C82       1.0  0.8050721314737359  0.5469958826913413  0.46569667111198504  1.0000
  C   C83       1.0  0.27029130048536115  0.0344347839860859  0.5468405429827499  1.0000
  C   C84       1.0  0.8520476780782361  0.4656863529008604  0.9530876187979018  1.0000
  C   C85       1.0  0.18250873114725868  0.0469202426509341  0.9656162311002631  1.0000
  C   C86       1.0  0.19492823064961598  0.4530051143491248  0.5343038881425314  1.0000
  C   C87       1.0  0.7297113850251052  0.9655629452187783  0.45315809398086065  1.0000
  C   C88       1.0  0.14794969727296342  0.5343137098757252  0.0469102053043073  1.0000
  C   C89       1.0  0.7813943488940468  0.989850518712082  0.9836540454962162  1.0000
  C   C90       1.0  0.7549074581181827  0.5102298455195893  0.5164138842117083  1.0000
  C   C91       1.0  0.27091506529770726  0.9836960703980251  0.5100438318801892  1.0000
  C   C92       1.0  0.7649338153458913  0.5163731443846444  0.9898868578221851  1.0000
  C   C93       1.0  0.21860856362798137  0.0101476776368514  0.016346602130376208  1.0000
  C   C94       1.0  0.24510464328626116  0.4897716188353556  0.4835846350267019  1.0000
  C   C95       1.0  0.7290871596846741  0.0163016588463378  0.489955263378782  1.0000
  C   C96       1.0  0.2350614905705157  0.4836264517917996  0.010113257700091107  1.0000
  C   C97       1.0  0.8547130508158314  0.8499611786758194  0.08994845950223151  1.0000
  C   C98       1.0  0.7948703108999664  0.6500286320265117  0.41001793705738265  1.0000
  C   C99       1.0  0.20458489771128557  0.09001397873916517  0.6499707747729673  1.0000
  C   C100      1.0  0.9450541573375802  0.41004558297796473  0.8499942502093419  1.0000
  C   C101      1.0  0.14528064619387504  0.15003795086098393  0.9100534891447508  1.0000
  C   C102      1.0  0.20513166291625148  0.34997236506868745  0.5899822526141918  1.0000
  C   C103      1.0  0.7954145380944406  0.9099879511641691  0.3500253050871152  1.0000
  C   C104      1.0  0.05494275717465068  0.5899544802240584  0.1500065010898481  1.0000
  N   N1        1.0  0.8158836205301085  0.0789266505015505  0.8067952807246641  1.0000
  N   N2        1.0  0.7017484282286973  0.4211884863895106  0.6932357200357302  1.0000
  N   N3        1.0  0.3946671169437506  0.8067575900251001  0.42103276145033425  1.0000
  N   N4        1.0  0.6225096887610135  0.6932226192028351  0.0789412398039957  1.0000
  N   N5        1.0  0.18410659016127798  0.9210776138881512  0.1932075851369817  1.0000
  N   N6        1.0  0.29825748035661814  0.5788092433107508  0.3067646466636162  1.0000
  N   N7        1.0  0.6053378529357549  0.1932429404214275  0.5789671472939871  1.0000
  N   N8        1.0  0.3774936873861496  0.3067751101357458  0.9210579441673871  1.0000
  O   O1        1.0  0.7863795883642052  0.1641768775568906  0.7167764076619747  1.0000
  O   O2        1.0  0.6674102620827826  0.3359057942200748  0.7832571601804473  1.0000
  O   O3        1.0  0.4505219597526277  0.7166745566306858  0.3358055626178427  1.0000
  O   O4        1.0  0.5032674879165101  0.7833623776753312  0.16415172770013703  1.0000
  O   O5        1.0  0.21361385159612203  0.835826453386517  0.28322617721570253  1.0000
  O   O6        1.0  0.3325974948089722  0.6640910013804985  0.2167393626177585  1.0000
  O   O7        1.0  0.5494765453949028  0.2833287746501369  0.6641969188141346  1.0000
  O   O8        1.0  0.4967404897927139  0.2166358190110174  0.8358488164807625  1.0000
  O   O9        1.0  0.5482840713625451  0.1361542746642002  0.6991863730055812  1.0000
  O   O10       1.0  0.38376358981547315  0.3638929136160556  0.80087620052484  1.0000
  O   O11       1.0  0.18449595822580273  0.6990017273287067  0.36380723366046647  1.0000
  O   O12       1.0  0.24753672612214925  0.800938104102137  0.1361859289757703  1.0000
  O   O13       1.0  0.4517072966877153  0.8638490558780274  0.3008145708487788  1.0000
  O   O14       1.0  0.6162439456370591  0.6361024816706333  0.19912123869391246  1.0000
  O   O15       1.0  0.8155034831522558  0.30099926940481225  0.6361917732831444  1.0000
  O   O16       1.0  0.7524677974709774  0.19906009307341324  0.86381928687112  1.0000
  O   O17       1.0  0.8477996635524221  0.7921764727917874  0.08910588962393722  1.0000
  O   O18       1.0  0.7292508791172877  0.7077723098361659  0.4107322540419815  1.0000
  O   O19       1.0  0.13959893446779154  0.08923889110725007  0.7077208766623144  1.0000
  O   O20       1.0  0.9371830920317307  0.4107833725312345  0.7922317837962538  1.0000
  O   O21       1.0  0.15219472719101657  0.2078221899078869  0.9108956006709689  1.0000
  O   O22       1.0  0.2707437033384465  0.2922324213421277  0.5892684978244347  1.0000
  O   O23       1.0  0.8603908370639533  0.9107621049119385  0.2922778788773428  1.0000
  O   O24       1.0  0.06281013918844282  0.5892166898289374  0.20776522716094092  1.0000
  O   O25       1.0  0.9044668631081902  0.8769246266968124  0.13221249695694579  1.0000
  O   O26       1.0  0.9137845343157666  0.6229980710583263  0.36778116275170447  1.0000
  O   O27       1.0  0.2815207787927038  0.13222492021422028  0.6230488196613493  1.0000
  O   O28       1.0  0.037065319331340094  0.3678368559142485  0.8769761586869508  1.0000
  O   O29       1.0  0.09553121154907268  0.12307403607283618  0.8677877958767154  1.0000
  O   O30       1.0  0.0862105086680529  0.3770066600804754  0.632219130819351  1.0000
  O   O31       1.0  0.7184701556702393  0.8677742087876795  0.37695094095454346  1.0000
  O   O32       1.0  0.9629350313364639  0.6321660078517938  0.12302101530212181  1.0000
  O   O33       1.0  0.968172380639537  0.27092834401668137  0.8087744164210592  1.0000
  O   O34       1.0  0.047920451144847234  0.22910696726398777  0.6912556782571784  1.0000
  O   O35       1.0  0.739179439304593  0.8087570658719723  0.22909136909537153  1.0000
  O   O36       1.0  0.7768456192313097  0.691226226033251  0.2708988671540098  1.0000
  O   O37       1.0  0.031831213849798756  0.7290712526066443  0.1912248564896331  1.0000
  O   O38       1.0  0.9520792262250168  0.7708930960869933  0.30874479217148115  1.0000
  O   O39       1.0  0.2608172361187754  0.191244397683441  0.7709089240786255  1.0000
  O   O40       1.0  0.22315474289203516  0.30877477100721507  0.7291016921005067  1.0000
