data_image0
_chemical_formula_structural       Hg2H20C28S4I4N8
_chemical_formula_sum              "Hg2 H20 C28 S4 I4 N8"
_cell_length_a       9.768517733118093
_cell_length_b       10.446228637963957
_cell_length_c       10.446211855254687
_cell_angle_alpha    74.54957513637386
_cell_angle_beta     69.28613549838299
_cell_angle_gamma    69.2858387947652

_space_group_name_H-M_alt    "P 1"
_space_group_IT_number       1

loop_
  _space_group_symop_operation_xyz
  'x, y, z'

loop_
  _atom_site_type_symbol
  _atom_site_label
  _atom_site_symmetry_multiplicity
  _atom_site_fract_x
  _atom_site_fract_y
  _atom_site_fract_z
  _atom_site_occupancy
  Hg  Hg1       1.0  0.7500018989165651  0.7399230558212719  0.26007579001085196  1.0000
  Hg  Hg2       1.0  0.2499998351730426  0.2600783805952176  0.739924534772314  1.0000
  H   H1        1.0  0.9583707488909498  0.11211996665609553  0.3729537743121938  1.0000
  H   H2        1.0  0.5416273934076015  0.6270376538349965  0.8878842617559713  1.0000
  H   H3        1.0  0.041628847004758926  0.887884601365606  0.6270416574341838  1.0000
  H   H4        1.0  0.4583737275848421  0.3729554720991715  0.11211942328372972  1.0000
  H   H5        1.0  0.9010983379785173  0.31283517153229917  0.18438132876269  1.0000
  H   H6        1.0  0.5988993333952662  0.8156113241674843  0.6871696163824624  1.0000
  H   H7        1.0  0.09889907109518253  0.6871693902022215  0.8156148421848712  1.0000
  H   H8        1.0  0.4011028906529219  0.18438180018498673  0.312834654373802  1.0000
  H   H9        1.0  0.7734038133311286  0.2887975105663116  0.023704931589129785  1.0000
  H   H10       1.0  0.7265890052416567  0.976287466710687  0.7112107542571238  1.0000
  H   H11       1.0  0.22659425047060466  0.7112049818119316  0.9762906080756723  1.0000
  H   H12       1.0  0.2734085129761397  0.0237066821081982  0.28879483288429947  1.0000
  H   H13       1.0  0.7080043576813181  0.0714503963737911  0.05824592950612839  1.0000
  H   H14       1.0  0.7919893671495968  0.9417488766832205  0.9285567345484936  1.0000
  H   H15       1.0  0.2919990859683493  0.9285489927311801  0.9417495731250657  1.0000
  H   H16       1.0  0.20800649013624203  0.05825045733958228  0.07144804250693683  1.0000
  H   H17       1.0  0.11169614248753852  0.5846305391802529  0.5295767285517174  1.0000
  H   H18       1.0  0.38830156882784905  0.47042455212891093  0.4153755086549467  1.0000
  H   H19       1.0  0.8883027500520198  0.4153729603053262  0.4704249667153918  1.0000
  H   H20       1.0  0.6116958012624776  0.5295768669879237  0.584627249847742  1.0000
  C   C1        1.0  0.8707801410056885  0.9857603111669494  0.3070242971155466  1.0000
  C   C2        1.0  0.6292199492916237  0.6929667258503898  0.014245927203702921  1.0000
  C   C3        1.0  0.1292223060848059  0.014242189060368603  0.6929707194640502  1.0000
  C   C4        1.0  0.3707808588039183  0.3070274276739795  0.9857595064531068  1.0000
  C   C5        1.0  0.9049690542140068  0.10690893620735412  0.29959325505868867  1.0000
  C   C6        1.0  0.5950314327896037  0.700399165572584  0.893094591003859  1.0000
  C   C7        1.0  0.09503195763434738  0.8930946026424421  0.7004010137871434  1.0000
  C   C8        1.0  0.40497121065207137  0.2995960407303286  0.10690803080025563  1.0000
  C   C9        1.0  0.8720352721852648  0.21791086384777  0.1954568950525228  1.0000
  C   C10       1.0  0.6279631414585294  0.8045333963981492  0.7820935616420641  1.0000
  C   C11       1.0  0.12796463660735208  0.7820926765837369  0.804536788076746  1.0000
  C   C12       1.0  0.37203763770278186  0.19546077130208767  0.21790900606328026  1.0000
  C   C13       1.0  0.8014090867609979  0.2050963163462711  0.10660033418795223  1.0000
  C   C14       1.0  0.6985872382541559  0.8933942098939625  0.7949087050027615  1.0000
  C   C15       1.0  0.1985925894601408  0.794905148421968  0.8933942586922826  1.0000
  C   C16       1.0  0.3014117831233775  0.10660202874425548  0.20509390826877194  1.0000
  C   C17       1.0  0.7672934954684082  0.08180935817777171  0.1240405335714669  1.0000
  C   C18       1.0  0.7327016569402145  0.8759525492909289  0.9181974472246353  1.0000
  C   C19       1.0  0.2327085032943755  0.9181910742749723  0.8759532660088142  1.0000
  C   C20       1.0  0.2672948550736649  0.12404471537559661  0.08180669854803571  1.0000
  C   C21       1.0  0.10440396907315362  0.7610416384220002  0.3604435740428542  1.0000
  C   C22       1.0  0.3955958884955492  0.6395571132560959  0.23896227328850742  1.0000
  C   C23       1.0  0.8955963490638013  0.23896082716638742  0.6395579136408645  1.0000
  C   C24       1.0  0.6044036587720427  0.36044431687321316  0.7610387906958423  1.0000
  C   C25       1.0  0.17464636104042336  0.6322425884350124  0.4301478958829179  1.0000
  C   C26       1.0  0.32535266339740315  0.5698544384241727  0.3677620491333756  1.0000
  C   C27       1.0  0.8253525314991349  0.3677609110505671  0.5698537993841911  1.0000
  C   C28       1.0  0.6746472353460718  0.4301459452137664  0.6322410875024858  1.0000
  S   S1        1.0  0.9100623653257213  0.8414468159603247  0.4386835718619581  1.0000
  S   S2        1.0  0.5899368602557686  0.5613111885279379  0.1585576365613266  1.0000
  S   S3        1.0  0.08993834327048227  0.15855774575438633  0.5613134009181452  1.0000
  S   S4        1.0  0.4100640254021285  0.4386860887129486  0.8414450308089841  1.0000
  I   I1        1.0  0.48184744079104985  0.8079080436936082  0.46193392691084517  1.0000
  I   I2        1.0  0.01815690959976018  0.5380649301028981  0.19209148976177198  1.0000
  I   I3        1.0  0.5181546254849394  0.1920923556820995  0.5380665598895221  1.0000
  I   I4        1.0  0.98184295056474  0.4619354724362097  0.8079078256054687  1.0000
  N   N1        1.0  0.8036394913299173  0.9725823407259642  0.22101324185319274  1.0000
  N   N2        1.0  0.6963585760525105  0.7789801526425464  0.02742192549329299  1.0000
  N   N3        1.0  0.19636438135796647  0.02741912560416179  0.7789815671430135  1.0000
  N   N4        1.0  0.3036408743632463  0.22101816322082612  0.9725799941432527  1.0000
  N   N5        1.0  0.1766498281459548  0.8227685095301922  0.2388037472511472  1.0000
  N   N6        1.0  0.32335155181328895  0.7611956356727277  0.17723427103550196  1.0000
  N   N7        1.0  0.8233518962989023  0.1772329316115844  0.7611956222148707  1.0000
  N   N8        1.0  0.676650846649096  0.2388037266621907  0.8227663777820666  1.0000
