data_image0
_chemical_formula_structural       Na2H26C20N4O12
_chemical_formula_sum              "Na2 H26 C20 N4 O12"
_cell_length_a       8.67407552939279
_cell_length_b       8.674259064894459
_cell_length_c       10.159344534342663
_cell_angle_alpha    91.55789247596842
_cell_angle_beta     114.56649760189367
_cell_angle_gamma    118.77066178706099

_space_group_name_H-M_alt    "P 1"
_space_group_IT_number       1

loop_
  _space_group_symop_operation_xyz
  'x, y, z'

loop_
  _atom_site_type_symbol
  _atom_site_label
  _atom_site_symmetry_multiplicity
  _atom_site_fract_x
  _atom_site_fract_y
  _atom_site_fract_z
  _atom_site_occupancy
  Na  Na1       1.0  0.8806841913092499  0.8807654128766272  8.478355565695795e-05  1.0000
  Na  Na2       1.0  0.13801594442087153  0.6380276858320286  0.499994102436581  1.0000
  H   H1        1.0  0.14552351051347762  0.3333008027464714  0.3880823341411456  1.0000
  H   H2        1.0  0.9451274533077836  0.7573727918871851  0.6119829330009807  1.0000
  H   H3        1.0  0.3117923774073432  0.23602742553288183  0.6274112201879162  1.0000
  H   H4        1.0  0.6084514620330663  0.6840824359091967  0.3725291314258213  1.0000
  H   H5        1.0  0.6702654186736582  0.4169455703140059  0.5722115283865747  1.0000
  H   H6        1.0  0.8443761165220425  0.09775323970634989  0.42773890364337325  1.0000
  H   H7        1.0  0.5940390546987047  0.23313562600750262  0.6525777225231266  1.0000
  H   H8        1.0  0.5802191273774965  0.9411066450427298  0.3472939020242975  1.0000
  H   H9        1.0  0.5026807202703268  0.17014749826147116  0.3491996415723904  1.0000
  H   H10       1.0  0.820642811742452  0.15323925468179309  0.6507069266233572  1.0000
  H   H11       1.0  0.3344972101776307  0.0147370580969834  0.40646428599401213  1.0000
  H   H12       1.0  0.6078554582443233  0.927845002482556  0.5934260874771694  1.0000
  H   H13       1.0  0.7089616712499948  0.0184234010201578  0.14147396873281803  1.0000
  H   H14       1.0  0.8772366809147628  0.5677968797656234  0.8585714088332139  1.0000
  H   H15       1.0  0.3420269104958464  0.9409025006700702  0.9672721461232854  1.0000
  H   H16       1.0  0.9733515424176955  0.37451678079547424  0.03243495677605776  1.0000
  H   H17       1.0  0.321535416088004  0.18865002794898086  0.8961511861337358  1.0000
  H   H18       1.0  0.29230924578544654  0.4251485223813986  0.10381442066113782  1.0000
  H   H19       1.0  0.5492553074687123  0.2906350079480617  0.8865953710779308  1.0000
  H   H20       1.0  0.40397376239669575  0.6624841869312946  0.11352847529480675  1.0000
  H   H21       1.0  0.5066353594530923  0.3137728659111191  0.16825757263598015  1.0000
  H   H22       1.0  0.14540854660118194  0.3384240333509538  0.8316497124740394  1.0000
  H   H23       1.0  0.6888473963352623  0.48602201888468943  0.1300784405264253  1.0000
  H   H24       1.0  0.3561821724611464  0.5587172521984344  0.8701421646216971  1.0000
  H   H25       1.0  0.5117514915718502  0.7689448821559068  0.756872974013767  1.0000
  H   H26       1.0  0.012037939660359794  0.7547845871878851  0.24308040947902754  1.0000
  C   C1        1.0  0.49936520910421217  0.5244799418518297  0.6815102765262537  1.0000
  C   C2        1.0  0.8428850299722724  0.8177340193278936  0.3185166768815221  1.0000
  C   C3        1.0  0.39305626265068844  0.3341588377999827  0.5772225737422829  1.0000
  C   C4        1.0  0.7567292965646788  0.8155939507669174  0.422737675419974  1.0000
  C   C5        1.0  0.5395955847523839  0.29097672815839815  0.5632905290788058  1.0000
  C   C6        1.0  0.7273321751598801  0.975985853288151  0.4366346898772093  1.0000
  C   C7        1.0  0.41510342180016824  0.158233004192752  0.40520014949615296  1.0000
  C   C8        1.0  0.7526348406238128  0.0096152208492555  0.5947059098030679  1.0000
  C   C9        1.0  0.25820843603560223  0.20316292465653157  0.3190268798997309  1.0000
  C   C10       1.0  0.8837651665571471  0.9389335052328818  0.6809252410860651  1.0000
  C   C11       1.0  0.4654952131990626  0.9521403912679459  0.8264260848503325  1.0000
  C   C12       1.0  0.1254423133952259  0.6387002536876737  0.1735357574015381  1.0000
  C   C13       1.0  0.4777927081312185  0.045165814814929185  0.9627149634304643  1.0000
  C   C14       1.0  0.08229817189203463  0.5149097482181659  0.037187185285027576  1.0000
  C   C15       1.0  0.4761822735945954  0.22116843320540613  0.9516989071068095  1.0000
  C   C16       1.0  0.2693886790789364  0.5243181209124259  0.048337220932715794  1.0000
  C   C17       1.0  0.6020719430103227  0.33884835593656265  0.11597902838885685  1.0000
  C   C18       1.0  0.2229858727202228  0.4861273365773259  0.8841078976602148  1.0000
  C   C19       1.0  0.7376840421786425  0.2694243240085968  0.1945571189307529  1.0000
  C   C20       1.0  0.07527868879159891  0.5434941309469324  0.8056171032421844  1.0000
  N   N1        1.0  0.25345239292557414  0.3021810576053739  0.42053353234854285  1.0000
  N   N2        1.0  0.8813788598764065  0.8327000992587302  0.5794514117150201  1.0000
  N   N3        1.0  0.6598796091953005  0.10452070647210122  0.1048552521150868  1.0000
  N   N4        1.0  0.9998583574684261  0.5551927539846346  0.8951928379527132  1.0000
  O   O1        1.0  0.41782831009797416  0.6179203686507648  0.6400660087582395  1.0000
  O   O2        1.0  0.9778561938010879  0.7777694473219154  0.35999975833006903  1.0000
  O   O3        1.0  0.6553985509378678  0.5774769072231792  0.8054940462157774  1.0000
  O   O4        1.0  0.7719279899329478  0.8498656259611932  0.19456474592452364  1.0000
  O   O5        1.0  0.15049265372487503  0.15609817468210713  0.17929613013762946  1.0000
  O   O6        1.0  0.9763622621928504  0.9709504159523873  0.8206543738316512  1.0000
  O   O7        1.0  0.5715626042794569  0.8755014466389923  0.858176888828396  1.0000
  O   O8        1.0  0.017278045639237516  0.7132672237234702  0.14183458386766293  1.0000
  O   O9        1.0  0.3539446800330453  0.9415074457286395  0.6967992204458113  1.0000
  O   O10       1.0  0.24411115572636533  0.6564655813867759  0.30316608799133593  1.0000
  O   O11       1.0  0.89264639408956  0.34765496360010667  0.3216193487373644  1.0000
  O   O12       1.0  0.026834417906641938  0.5718442002581556  0.678735007942521  1.0000
