data_image0
_chemical_formula_structural       H24Pb2C32S2N4O8
_chemical_formula_sum              "H24 Pb2 C32 S2 N4 O8"
_cell_length_a       8.22961743259537
_cell_length_b       8.79795465873702
_cell_length_c       10.8903960993036
_cell_angle_alpha    75.78636904950531
_cell_angle_beta     80.134389823851
_cell_angle_gamma    77.74088683636784

_space_group_name_H-M_alt    "P 1"
_space_group_IT_number       1

loop_
  _space_group_symop_operation_xyz
  'x, y, z'

loop_
  _atom_site_type_symbol
  _atom_site_label
  _atom_site_symmetry_multiplicity
  _atom_site_fract_x
  _atom_site_fract_y
  _atom_site_fract_z
  _atom_site_occupancy
  H   H1        1.0  0.5840908543666001  0.6970647081764056  0.3538780852407087  1.0000
  H   H2        1.0  0.4159113280266594  0.302935932951975  0.6461195418644152  1.0000
  H   H3        1.0  0.5003361715266123  0.715173299497188  0.5114481374845994  1.0000
  H   H4        1.0  0.4996641022128471  0.28483091091686663  0.4885508693990914  1.0000
  H   H5        1.0  0.15101728046706597  0.9425697745280529  0.4755380818637533  1.0000
  H   H6        1.0  0.8489777222808  0.05742966753015109  0.5244625365579411  1.0000
  H   H7        1.0  0.3047714537906214  0.9519742262026867  0.5696822789510635  1.0000
  H   H8        1.0  0.695229943037958  0.048024031324324284  0.4303159169398327  1.0000
  H   H9        1.0  0.7630713870274448  0.8805255058576975  0.2682560156861982  1.0000
  H   H10       1.0  0.23693078780125626  0.1194751249597843  0.7317452873892236  1.0000
  H   H11       1.0  0.6164990930352728  0.0780413848302572  0.0970569600570812  1.0000
  H   H12       1.0  0.38350330754593615  0.9219580569564556  0.9029436294242361  1.0000
  H   H13       1.0  0.7304669158439195  0.07435718614426888  0.8654758519972107  1.0000
  H   H14       1.0  0.26953469728147167  0.925639869463346  0.13452622526244082  1.0000
  H   H15       1.0  0.9417126392736319  0.9516840472806861  0.7119845519619687  1.0000
  H   H16       1.0  0.05828393460358678  0.04832016198024999  0.2880149288881952  1.0000
  H   H17       1.0  0.17950004829042848  0.7336281774918516  0.6684839943051486  1.0000
  H   H18       1.0  0.8204994455577788  0.26637365705401095  0.3315128243865857  1.0000
  H   H19       1.0  0.3863217216040553  0.49873149995013216  0.7485474702102408  1.0000
  H   H20       1.0  0.6136829254728865  0.5012691393692703  0.2514507599098082  1.0000
  H   H21       1.0  0.4925198107603349  0.29229543019273757  0.9330906999649856  1.0000
  H   H22       1.0  0.5074801232460472  0.707704010825232  0.06691020549398267  1.0000
  H   H23       1.0  0.3525065035186826  0.3105782039806826  0.15696775331136342  1.0000
  H   H24       1.0  0.6474909658040106  0.6894212388462647  0.8430325491326869  1.0000
  Pb  Pb1       1.0  0.05968040177646121  0.5378200362013813  0.3310560486113161  1.0000
  Pb  Pb2       1.0  0.9403240176568345  0.4621817895710763  0.6689438140954068  1.0000
  C   C1        1.0  0.33046787486464513  0.6568626826021243  0.4054188536304153  1.0000
  C   C2        1.0  0.6695253423482013  0.34313319675045767  0.5945781020014707  1.0000
  C   C3        1.0  0.47062222406957227  0.741257254973668  0.41323887289650685  1.0000
  C   C4        1.0  0.5293768163824736  0.25874695505601136  0.5867602919760061  1.0000
  C   C5        1.0  0.2575453770097197  0.9996206481076014  0.4767909547646313  1.0000
  C   C6        1.0  0.7424508609167046  0.00037879691269889946  0.5232085866756648  1.0000
  C   C7        1.0  0.19639826569253666  0.17831095362355848  0.4634666394385007  1.0000
  C   C8        1.0  0.8036063946223918  0.8216897037399137  0.5365251577335285  1.0000
  C   C9        1.0  0.8021286023448793  0.8768627558075862  0.16793900863378042  1.0000
  C   C10       1.0  0.19787379823632986  0.1231366859791265  0.8320615808475367  1.0000
  C   C11       1.0  0.7227158558239991  0.9896191872074311  0.07077164645713908  1.0000
  C   C12       1.0  0.27728306497405697  0.010379056662216597  0.9292314603742683  1.0000
  C   C13       1.0  0.7844373249832018  0.9870964971801469  0.9448610761139876  1.0000
  C   C14       1.0  0.21555812359626003  0.012900559083334397  0.0551408720972191  1.0000
  C   C15       1.0  0.9223364754717804  0.8683520066457928  0.9173340290276216  1.0000
  C   C16       1.0  0.07766626673364388  0.1316522071147261  0.08266374288584188  1.0000
  C   C17       1.0  0.9940491843541891  0.860396613702562  0.7893592172213816  1.0000
  C   C18       1.0  0.005951981048468697  0.13960282512204708  0.21064244924133396  1.0000
  C   C19       1.0  0.12546516991582024  0.7428458648086718  0.7656544068748091  1.0000
  C   C20       1.0  0.8745321895260785  0.25716072805363405  0.23434450518958988  1.0000
  C   C21       1.0  0.19506197400252728  0.6250997243377582  0.8682689151495993  1.0000
  C   C22       1.0  0.804933484032638  0.3748973448143502  0.13172843809874019  1.0000
  C   C23       1.0  0.330351017692017  0.5018780567893372  0.8463511390197596  1.0000
  C   C24       1.0  0.669649705661321  0.4981237729854441  0.15364735966829815  1.0000
  C   C25       1.0  0.1276484238215616  0.628820756886796  0.9971190916732269  1.0000
  C   C26       1.0  0.8723522957494934  0.371181067732536  0.0028812449999762093  1.0000
  C   C27       1.0  0.388741483810655  0.3881697092977276  0.948649681944076  1.0000
  C   C28       1.0  0.6112604709389515  0.6118321182837007  0.051349577747728886  1.0000
  C   C29       1.0  0.3124801411030588  0.3987727450013736  0.0729468799036539  1.0000
  C   C30       1.0  0.6875193489628656  0.6012290843890398  0.927051776773226  1.0000
  C   C31       1.0  0.990310157881161  0.7550692334863809  0.021949022522761787  1.0000
  C   C32       1.0  0.009687537194046992  0.2449290203097974  0.9780505663271767  1.0000
  S   S1        1.0  0.4241575089947672  0.954900014769244  0.3525777842918528  1.0000
  S   S2        1.0  0.5758422068236727  0.04510062559039339  0.6474201587909221  1.0000
  N   N1        1.0  0.9305044298437865  0.7629652335199848  0.1445698847835288  1.0000
  N   N2        1.0  0.06949954375791377  0.23703897804718813  0.8554286481336817  1.0000
  N   N3        1.0  0.18734906521386555  0.5159233794124634  0.09653147482819688  1.0000
  N   N4        1.0  0.8126486298613428  0.4840748743837083  0.9034681140217415  1.0000
  O   O1        1.0  0.28940078835753263  0.6723247387010857  0.29309736154693417  1.0000
  O   O2        1.0  0.7105993581633783  0.3276734952420312  0.706909263265949  1.0000
  O   O3        1.0  0.26177050386857553  0.5775653927135379  0.5060346949646117  1.0000
  O   O4        1.0  0.7382321130094381  0.42243284715377877  0.4939697758854749  1.0000
  O   O5        1.0  0.26085931697473796  0.27185972893567373  0.36726858907999127  1.0000
  O   O6        1.0  0.7391351297432464  0.7281361456458411  0.6327300465482182  1.0000
  O   O7        1.0  0.08353506036669238  0.21878661128200594  0.5503129276100368  1.0000
  O   O8        1.0  0.9164629536390475  0.7812163835552826  0.4496948715829419  1.0000
