data_image0
_chemical_formula_structural       V6Ni3H24C12N24O18
_chemical_formula_sum              "V6 Ni3 H24 C12 N24 O18"
_cell_length_a       10.217683048063884
_cell_length_b       10.217648458591675
_cell_length_c       10.217757661503681
_cell_angle_alpha    99.72370221186415
_cell_angle_beta     99.72321646255541
_cell_angle_gamma    99.72286662367004

_space_group_name_H-M_alt    "P 1"
_space_group_IT_number       1

loop_
  _space_group_symop_operation_xyz
  'x, y, z'

loop_
  _atom_site_type_symbol
  _atom_site_label
  _atom_site_symmetry_multiplicity
  _atom_site_fract_x
  _atom_site_fract_y
  _atom_site_fract_z
  _atom_site_occupancy
  V   V1        1.0  0.3867918835366594  0.5926203789427759  0.7345463305601427  1.0000
  V   V2        1.0  0.7345402102275287  0.3867922641965649  0.5926192291838959  1.0000
  V   V3        1.0  0.5926189751806916  0.7345466393964911  0.3867988339270028  1.0000
  V   V4        1.0  0.6131857349740102  0.40736119679988997  0.26548505940867523  1.0000
  V   V5        1.0  0.2654862832899951  0.6131943034527153  0.4073803691292782  1.0000
  V   V6        1.0  0.4073627880557852  0.26548697193961596  0.6131894200728709  1.0000
  Ni  Ni1       1.0  0.7429343584270569  0.7429350496267233  0.742934671728854  1.0000
  Ni  Ni2       1.0  0.25734589186456  0.25734752063060995  0.2573449622125707  1.0000
  Ni  Ni3       1.0  0.9997694097347749  0.9997655506065967  0.9997652295059895  1.0000
  H   H1        1.0  0.7821906112773434  0.1983443435688201  0.06450254259936362  1.0000
  H   H2        1.0  0.06450243440311705  0.7821857550812155  0.19833556460205412  1.0000
  H   H3        1.0  0.1983432250232724  0.064495798756397  0.78218721511756  1.0000
  H   H4        1.0  0.2176104291338631  0.801829960205893  0.9353877704046241  1.0000
  H   H5        1.0  0.935389972931006  0.21760551934324465  0.8018292470648448  1.0000
  H   H6        1.0  0.8018386489656422  0.93538432446708  0.21760552835912247  1.0000
  H   H7        1.0  0.5509342248579971  0.15912314109454684  0.9058488586649177  1.0000
  H   H8        1.0  0.9058443518007877  0.550930926541696  0.15911646259705484  1.0000
  H   H9        1.0  0.15911731444432314  0.90584103583717  0.5509305307060401  1.0000
  H   H10       1.0  0.448955997990481  0.840888285992726  0.09400326485721412  1.0000
  H   H11       1.0  0.0940027700916133  0.4489539055119637  0.8408883582401999  1.0000
  H   H12       1.0  0.8408953363823102  0.09399681935730797  0.44895189723339257  1.0000
  H   H13       1.0  0.49984028046003454  0.8494910242906996  0.6350615062139654  1.0000
  H   H14       1.0  0.6350550139974659  0.49984048376985163  0.8494897934042598  1.0000
  H   H15       1.0  0.8494849011777532  0.6350575620493116  0.49983823828686264  1.0000
  H   H16       1.0  0.4999749652200265  0.1504323223142521  0.364995355457836  1.0000
  H   H17       1.0  0.3649928765837842  0.4999766583221117  0.15043135847223252  1.0000
  H   H18       1.0  0.15042782141701136  0.3649986854300167  0.49997169670837144  1.0000
  H   H19       1.0  0.4272618809306152  0.990939244101263  0.6827900500955195  1.0000
  H   H20       1.0  0.6827875761716699  0.427262325931366  0.9909339745522701  1.0000
  H   H21       1.0  0.9909313078456777  0.6827893473371559  0.427259612072433  1.0000
  H   H22       1.0  0.5727181343853617  0.0090735844847956  0.3172872853911812  1.0000
  H   H23       1.0  0.31728565555800964  0.5727198781660761  0.009075886844605821  1.0000
  H   H24       1.0  0.009073943088573287  0.3172848685176817  0.5727142777999461  1.0000
  C   C1        1.0  0.599914538524452  0.9778365326193497  0.8049052798128998  1.0000
  C   C2        1.0  0.8049042529999967  0.5999133832725293  0.9778315683755565  1.0000
  C   C3        1.0  0.9778332582541298  0.8049002637291736  0.5999135062668373  1.0000
  C   C4        1.0  0.400110935922406  0.0221800633913602  0.19518350354564262  1.0000
  C   C5        1.0  0.1951828870282029  0.4001114279738118  0.022179256856091453  1.0000
  C   C6        1.0  0.022181171316724098  0.19518076330810172  0.4001091477318255  1.0000
  C   C7        1.0  0.7414452023964698  0.11263557368607738  0.9809437700280911  1.0000
  C   C8        1.0  0.9809467345577617  0.7414435140607621  0.11262797792499403  1.0000
  C   C9        1.0  0.11263442710315258  0.9809395895619982  0.7414458298763833  1.0000
  C   C10       1.0  0.2585272858279595  0.8874622431174901  0.019019727402955832  1.0000
  C   C11       1.0  0.01902243023480567  0.2585225657127879  0.8874599508013715  1.0000
  C   C12       1.0  0.8874679984423184  0.019015229509634  0.2585242171126652  1.0000
  N   N1        1.0  0.7115966567386637  0.9265116890706012  0.8291979757351984  1.0000
  N   N2        1.0  0.8291995836818842  0.7115934658837445  0.9265064551927934  1.0000
  N   N3        1.0  0.9265085061979975  0.8291970425608141  0.7115930216499748  1.0000
  N   N4        1.0  0.2885489097381395  0.07363968587629438  0.1710395995502125  1.0000
  N   N5        1.0  0.17104004388637858  0.2885497662546399  0.07363929688135328  1.0000
  N   N6        1.0  0.0736417863804348  0.17104120466841266  0.2885468619733729  1.0000
  N   N7        1.0  0.7992837372489492  0.0122665258009675  0.939430566072204  1.0000
  N   N8        1.0  0.9394317775426231  0.799281801571368  0.012261480510538398  1.0000
  N   N9        1.0  0.012267108924746037  0.9394258335624954  0.7992831920480017  1.0000
  N   N10       1.0  0.2005364798697755  0.9877239051770984  0.060425396475949356  1.0000
  N   N11       1.0  0.06042875170850689  0.200533957865801  0.987722949220327  1.0000
  N   N12       1.0  0.9877282419949935  0.0604277062225975  0.2005324044543784  1.0000
  N   N13       1.0  0.6163772228330656  0.09476119008946432  0.9000203886241139  1.0000
  N   N14       1.0  0.9000197781701831  0.6163742216345299  0.09475378728197371  1.0000
  N   N15       1.0  0.09475372596330799  0.900016438748665  0.6163736215306275  1.0000
  N   N16       1.0  0.3835539958755944  0.905271961226013  0.09991206819172041  1.0000
  N   N17       1.0  0.0999126186367505  0.38355274408568363  0.9052711064340856  1.0000
  N   N18       1.0  0.9052788012687358  0.09990747501667128  0.38355159160700936  1.0000
  N   N19       1.0  0.48784080123488843  0.9240057674590573  0.7092925727719717  1.0000
  N   N20       1.0  0.7092908407723968  0.4878392496567585  0.9239988829935797  1.0000
  N   N21       1.0  0.9239963589765453  0.7092917983930748  0.4878366525487507  1.0000
  N   N22       1.0  0.5121965797744537  0.07598732484362357  0.2908088858719751  1.0000
  N   N23       1.0  0.29080812798635247  0.5121988373802042  0.07598790054201739  1.0000
  N   N24       1.0  0.07598775729244518  0.29081068154736295  0.5121952352834995  1.0000
  O   O1        1.0  0.5538020327133991  0.6508188813171499  0.7643343501210182  1.0000
  O   O2        1.0  0.7643275490742383  0.5538056282501245  0.6508187458405744  1.0000
  O   O3        1.0  0.65082038268811  0.7643266363103578  0.5538124176118018  1.0000
  O   O4        1.0  0.44618002540418905  0.3491631426137687  0.23560686508185572  1.0000
  O   O5        1.0  0.23561827873867705  0.44618950614132286  0.3491781730094842  1.0000
  O   O6        1.0  0.3491607200133656  0.23560935835948973  0.4461862468092904  1.0000
  O   O7        1.0  0.2983641103511161  0.6432704806919958  0.5889751357422028  1.0000
  O   O8        1.0  0.5889604192589601  0.2983625293666776  0.6432566222925047  1.0000
  O   O9        1.0  0.6432557778002845  0.5889624577980327  0.2983636778152245  1.0000
  O   O10       1.0  0.7016490606767576  0.35671833747255727  0.4109961229958898  1.0000
  O   O11       1.0  0.4109932329176544  0.7016600901830826  0.3567238917088956  1.0000
  O   O12       1.0  0.3567180704431507  0.41100091002965655  0.7016551034715093  1.0000
  O   O13       1.0  0.3239956534040331  0.6443041282474125  0.8696726855810013  1.0000
  O   O14       1.0  0.8696682117848623  0.3239905631600095  0.6443065044112615  1.0000
  O   O15       1.0  0.6443134923363941  0.8696779599232157  0.3239992240110538  1.0000
  O   O16       1.0  0.6760964827189967  0.3557741767208427  0.13040403969150557  1.0000
  O   O17       1.0  0.1304085945991318  0.6761050054658427  0.35578817207803587  1.0000
  O   O18       1.0  0.3557681257472396  0.1304074150532983  0.6760964792669171  1.0000
