data_image0
_chemical_formula_structural       MnH22C26N12
_chemical_formula_sum              "Mn1 H22 C26 N12"
_cell_length_a       7.976222934157849
_cell_length_b       8.489217866479855
_cell_length_c       10.262736389481342
_cell_angle_alpha    68.58213868061549
_cell_angle_beta     84.0083826284609
_cell_angle_gamma    69.71790058895559

_space_group_name_H-M_alt    "P 1"
_space_group_IT_number       1

loop_
  _space_group_symop_operation_xyz
  'x, y, z'

loop_
  _atom_site_type_symbol
  _atom_site_label
  _atom_site_symmetry_multiplicity
  _atom_site_fract_x
  _atom_site_fract_y
  _atom_site_fract_z
  _atom_site_occupancy
  Mn  Mn1       1.0  1.8028942960864903e-05  0.9999831698820569  8.171292890438655e-06  1.0000
  H   H1        1.0  0.8530100676387632  0.3663946286156942  0.08116555852288344  1.0000
  H   H2        1.0  0.14700414044202162  0.6336000372806934  0.9188340338186335  1.0000
  H   H3        1.0  0.7017046346906424  0.11829041156130417  0.5865519390521924  1.0000
  H   H4        1.0  0.29828513351895947  0.8817136434866912  0.413442558258609  1.0000
  H   H5        1.0  0.7520466037346264  0.7910122577293207  0.6988310481790946  1.0000
  H   H6        1.0  0.24794764224525778  0.2089932054947923  0.30116758193207716  1.0000
  H   H7        1.0  0.8692357134170906  0.5882769568244439  0.563179122044467  1.0000
  H   H8        1.0  0.13075978244295072  0.41172452870760873  0.43682356564020347  1.0000
  H   H9        1.0  0.9507015997134187  0.7058245927657862  0.3115980123831577  1.0000
  H   H10       1.0  0.04930785181582558  0.29416884155460826  0.6884081327013689  1.0000
  H   H11       1.0  0.2660664722133817  0.610015275553266  0.5587613722306557  1.0000
  H   H12       1.0  0.7339347148266312  0.38998472554184355  0.44123358210786984  1.0000
  H   H13       1.0  0.1625863445317535  0.50866029824531  0.7105003658384703  1.0000
  H   H14       1.0  0.8374064395655695  0.49134237571738026  0.28949239818106065  1.0000
  H   H15       1.0  0.39076877458916925  0.20623929351793885  0.7419135622209793  1.0000
  H   H16       1.0  0.6092224437682745  0.7937635766115675  0.25809094454329806  1.0000
  H   H17       1.0  0.67572106969277  0.9952999484346279  0.8588015642508324  1.0000
  H   H18       1.0  0.32427262120693  0.004702946779708799  0.1412047137628463  1.0000
  H   H19       1.0  0.8334186879904802  0.40868292940565  0.8696737231839717  1.0000
  H   H20       1.0  0.16657834826568774  0.5913183760141364  0.13031819316898927  1.0000
  H   H21       1.0  0.5512137947456565  0.6357371300176239  0.7583481138435033  1.0000
  H   H22       1.0  0.4487777277367826  0.36426554745720807  0.2416447359643641  1.0000
  C   C1        1.0  0.8503509647444646  0.2483636760674557  0.17011615748931766  1.0000
  C   C2        1.0  0.149660809746841  0.7516269584550842  0.8298838641385654  1.0000
  C   C3        1.0  0.8683039146384673  0.9778067831364082  0.3080443221568743  1.0000
  C   C4        1.0  0.13170512026405845  0.0221879770813445  0.6919604704031528  1.0000
  C   C5        1.0  0.7982417242891343  0.09224353982060049  0.38687083946692974  1.0000
  C   C6        1.0  0.20175854173147914  0.9077551870529701  0.6131284674235358  1.0000
  C   C7        1.0  0.754173984002918  0.029183861167261696  0.5270719252331941  1.0000
  C   C8        1.0  0.24582537273300878  0.9708175656646814  0.4729275908473696  1.0000
  C   C9        1.0  0.7816279553187685  0.8461443117715816  0.5885421381640369  1.0000
  C   C10       1.0  0.218366707287835  0.1538598255551733  0.4114578444716343  1.0000
  C   C11       1.0  0.8513145834120195  0.7306538310678903  0.5116762509978656  1.0000
  C   C12       1.0  0.1486796508331452  0.26934765797631127  0.4883265224751412  1.0000
  C   C13       1.0  0.8969805980504616  0.7937102368726128  0.3718465972884246  1.0000
  C   C14       1.0  0.1030258882785589  0.20628454642397998  0.6281593382613052  1.0000
  C   C15       1.0  0.2653984311001807  0.5728794627115902  0.6732989879430917  1.0000
  C   C16       1.0  0.734594327653383  0.4271232273056569  0.3266947474894764  1.0000
  C   C17       1.0  0.48550458623771675  0.2580256928233097  0.7674522801528169  1.0000
  C   C18       1.0  0.5144879697658523  0.7419771256303846  0.23254922658402666  1.0000
  C   C19       1.0  0.6459830110592791  0.1377579102721356  0.8350949803221608  1.0000
  C   C20       1.0  0.35400519141044384  0.8622463409426899  0.16491125973337972  1.0000
  C   C21       1.0  0.7321913415699866  0.36724448119811365  0.8415488537934406  1.0000
  C   C22       1.0  0.26780651433059427  0.6327581626614388  0.15844259565972157  1.0000
  C   C23       1.0  0.5733739746716963  0.49531443957144455  0.7762086675268803  1.0000
  C   C24       1.0  0.42661870805061847  0.5046882986094658  0.2237879821447848  1.0000
  C   C25       1.0  0.44408282683657047  0.44190791301974025  0.7389827027383331  1.0000
  C   C26       1.0  0.555908101612907  0.5580962027343405  0.2610155944362731  1.0000
  N   N1        1.0  0.8988936444407755  0.08072962208229481  0.17192005127365917  1.0000
  N   N2        1.0  0.10112351710550631  0.9192597206579831  0.8280838939644963  1.0000
  N   N3        1.0  0.7901101264650022  0.2622162821194749  0.29632564595998895  1.0000
  N   N4        1.0  0.20988897931572134  0.7377823840480174  0.7036698610666717  1.0000
  N   N5        1.0  0.7704030702171207  0.1881575462565124  0.8750617967229245  1.0000
  N   N6        1.0  0.22959125179401244  0.8118478688039301  0.12493391914914306  1.0000
  N   N7        1.0  0.11892121684176261  0.19257911648072218  0.9341086953212352  1.0000
  N   N8        1.0  0.8810869984163574  0.8074143052972644  0.0658965641385906  1.0000
  N   N9        1.0  0.1709218196551704  0.26677880652156455  0.99247005737881  1.0000
  N   N10       1.0  0.8290878556112204  0.7332253689322314  0.007533752862023797  1.0000
  N   N11       1.0  0.22564823403580186  0.34263482082566543  0.0443982177240088  1.0000
  N   N12       1.0  0.7743544402305386  0.6573679534763102  0.9556016312931206  1.0000
