data_image0
_chemical_formula_structural       Tl4H40C32N4O12
_chemical_formula_sum              "Tl4 H40 C32 N4 O12"
_cell_length_a       8.433796348584346
_cell_length_b       8.43373271416413
_cell_length_c       15.038488021317036
_cell_angle_alpha    98.17708630057136
_cell_angle_beta     98.17687739853855
_cell_angle_gamma    103.03691358386193

_space_group_name_H-M_alt    "P 1"
_space_group_IT_number       1

loop_
  _space_group_symop_operation_xyz
  'x, y, z'

loop_
  _atom_site_type_symbol
  _atom_site_label
  _atom_site_symmetry_multiplicity
  _atom_site_fract_x
  _atom_site_fract_y
  _atom_site_fract_z
  _atom_site_occupancy
  Tl  Tl1       1.0  0.3607995198986274  0.6806112398211539  0.9933300396928999  1.0000
  Tl  Tl2       1.0  0.319390663325386  0.6391994580663862  0.5066689714860928  1.0000
  Tl  Tl3       1.0  0.6392044508336738  0.3193918900271839  0.0066696844442546265  1.0000
  Tl  Tl4       1.0  0.680607586569174  0.36079993401413896  0.493330640460357  1.0000
  H   H1        1.0  0.3744401605692644  0.93138645784056  0.6865346325335082  1.0000
  H   H2        1.0  0.06860788058304482  0.6255528936594104  0.8134634342500034  1.0000
  H   H3        1.0  0.6255574428728039  0.06861042478681162  0.3134680449919074  1.0000
  H   H4        1.0  0.9313970217980199  0.37445396234512873  0.18653534264358027  1.0000
  H   H5        1.0  0.4568977344320899  0.8918335134273151  0.8829224908802898  1.0000
  H   H6        1.0  0.10816988957304119  0.5431056410319143  0.6170790793516616  1.0000
  H   H7        1.0  0.5431071046525061  0.1081634384677415  0.11707679698987049  1.0000
  H   H8        1.0  0.8918307445442011  0.4568937464843614  0.38292205807325524  1.0000
  H   H9        1.0  0.5384195963388265  0.7136443519589689  0.8594850803206242  1.0000
  H   H10       1.0  0.2863566462505247  0.46158151313207435  0.6405159266463086  1.0000
  H   H11       1.0  0.4615849368058775  0.28635136249292964  0.14051408073679988  1.0000
  H   H12       1.0  0.7136470047128042  0.5384203654463775  0.359484998359882  1.0000
  H   H13       1.0  0.6381436777076388  0.874100107967898  0.9567194291671015  1.0000
  H   H14       1.0  0.1259016673846034  0.36185616751004096  0.5432829097020361  1.0000
  H   H15       1.0  0.3618614604023165  0.12589807445694126  0.043280649356681494  1.0000
  H   H16       1.0  0.8741001588439801  0.6381432177241139  0.4567189904621145  1.0000
  H   H17       1.0  0.2959756097228238  0.6247005939108945  0.1590218389787594  1.0000
  H   H18       1.0  0.3753007815263558  0.7040250446454195  0.3409774536839976  1.0000
  H   H19       1.0  0.7040268560437042  0.3753012938630392  0.8409776594473114  1.0000
  H   H20       1.0  0.6247013644711997  0.2959755918586281  0.6590232456111094  1.0000
  H   H21       1.0  0.18768220287606852  0.45077104260821704  0.07203899436905911  1.0000
  H   H22       1.0  0.5492305188546139  0.8123166102492476  0.4279607819069113  1.0000
  H   H23       1.0  0.8123208747702435  0.5492333200520318  0.9279607576824773  1.0000
  H   H24       1.0  0.4507694895537569  0.18768028855398466  0.5720414295743126  1.0000
  H   H25       1.0  0.10623791742020221  0.6298369998509372  0.08839368344275299  1.0000
  H   H26       1.0  0.37016505215717643  0.893764411053546  0.41160726699788347  1.0000
  H   H27       1.0  0.893761823611051  0.37016362047724993  0.9116074818965529  1.0000
  H   H28       1.0  0.6298371007549193  0.10623623236386949  0.5883927684563375  1.0000
  H   H29       1.0  0.43188230852746295  0.14551855866077548  0.8134372288822007  1.0000
  H   H30       1.0  0.8544745423774033  0.5681096852120859  0.686563391160739  1.0000
  H   H31       1.0  0.5681135294862543  0.8544808103305144  0.1865635129493342  1.0000
  H   H32       1.0  0.14552911550046588  0.4318922002797266  0.3134368700045655  1.0000
  H   H33       1.0  0.9298970551420495  0.03979228066584991  0.5779071668480285  1.0000
  H   H34       1.0  0.9602105235320902  0.07010564992919648  0.9220907234423023  1.0000
  H   H35       1.0  0.0701008680689981  0.9602058532314075  0.4220943098083509  1.0000
  H   H36       1.0  0.039788651096685584  0.9298974613941624  0.07790860510147009  1.0000
  H   H37       1.0  0.9841854616808233  0.2733013050203185  0.7095171848537092  1.0000
  H   H38       1.0  0.7267025240698786  0.0158175190298948  0.7904809361561149  1.0000
  H   H39       1.0  0.015812513922071517  0.7267018016717941  0.290482044791716  1.0000
  H   H40       1.0  0.2732915099527062  0.984179377357208  0.2095187893107138  1.0000
  C   C1        1.0  0.5202459759801386  0.806946081924309  0.912852123787566  1.0000
  C   C2        1.0  0.1930554097343276  0.4797555981815691  0.5871490389469471  1.0000
  C   C3        1.0  0.47975676407805423  0.1930520912380373  0.08714775693952961  1.0000
  C   C4        1.0  0.8069458362626987  0.520246264221022  0.41285235210344234  1.0000
  C   C5        1.0  0.219009201636446  0.58583725919204  0.09073799260021079  1.0000
  C   C6        1.0  0.4141637032594048  0.7809898908299359  0.40926182910556  1.0000
  C   C7        1.0  0.7809917522497685  0.41416337959412175  0.9092619439556698  1.0000
  C   C8        1.0  0.5858366318324784  0.2190082661565569  0.5907385176657343  1.0000
  C   C9        1.0  0.25302919447835853  0.37420948369331336  0.8478905023770622  1.0000
  C   C10       1.0  0.6257912434534559  0.7469668551150193  0.6521093642425484  1.0000
  C   C11       1.0  0.7469672761587633  0.6257923809243949  0.15210850155728647  1.0000
  C   C12       1.0  0.3742063807322325  0.2530300482524552  0.3478913217602084  1.0000
  C   C13       1.0  0.21269602040087682  0.2288320169307099  0.7723978874998068  1.0000
  C   C14       1.0  0.771167940934312  0.7873031388114669  0.7276014338411798  1.0000
  C   C15       1.0  0.7873055384505819  0.7711710898283997  0.2276029665224257  1.0000
  C   C16       1.0  0.2288291099343596  0.21269624863780487  0.27239807920692266  1.0000
  C   C17       1.0  0.31819329491374054  0.12662797060622208  0.764369490838007  1.0000
  C   C18       1.0  0.8733709504811388  0.6817966190293204  0.7356295071059192  1.0000
  C   C19       1.0  0.6818070401781425  0.8733701863802638  0.23563085593328026  1.0000
  C   C20       1.0  0.1266326895775762  0.31820032823448235  0.2643696818659009  1.0000
  C   C21       1.0  0.14882240868865892  0.9598432686676617  0.6236183139890485  1.0000
  C   C22       1.0  0.04015801884386865  0.8511752644385882  0.8763808788735048  1.0000
  C   C23       1.0  0.8511758095576666  0.04015117135811151  0.3763815534456967  1.0000
  C   C24       1.0  0.9598435884093703  0.14882789071409525  0.12361532826251682  1.0000
  C   C25       1.0  0.0366530792067792  0.06378498016813691  0.632392679711792  1.0000
  C   C26       1.0  0.9362129007499007  0.9633475312987371  0.8676046028916389  1.0000
  C   C27       1.0  0.9633454558840526  0.936215628615436  0.36760905057005994  1.0000
  C   C28       1.0  0.06378478965671522  0.03665435869032051  0.1323925084183912  1.0000
  C   C29       1.0  0.06873731426643559  0.19339413221614166  0.7038903786936999  1.0000
  C   C30       1.0  0.8066069509164677  0.9312612391372993  0.7961077303739259  1.0000
  C   C31       1.0  0.9312624366038235  0.8066015775375064  0.29610705908856966  1.0000
  C   C32       1.0  0.1933918792096492  0.06873567577478921  0.2038923906862848  1.0000
  N   N1        1.0  0.28635401050495807  0.9984818124576906  0.6940019506625319  1.0000
  N   N2        1.0  0.0015108245979575511  0.7136406926436861  0.8059955540832746  1.0000
  N   N3        1.0  0.7136412265335822  0.0015200129619259  0.3060002735779079  1.0000
  N   N4        1.0  0.9984913737914455  0.28636491665520936  0.1940028982008855  1.0000
  O   O1        1.0  0.16119548849020052  0.4756582016294288  0.84667368800676  1.0000
  O   O2        1.0  0.5243439778766473  0.8388065400137849  0.6533262578088568  1.0000
  O   O3        1.0  0.8388045930536451  0.5243436907087542  0.1533242849408438  1.0000
  O   O4        1.0  0.475652739393972  0.1611915823388657  0.3466757837900687  1.0000
  O   O5        1.0  0.3781169136243676  0.3939568819279842  0.910684230217072  1.0000
  O   O6        1.0  0.6060404854934021  0.6218777456499324  0.5893158382899983  1.0000
  O   O7        1.0  0.6218768391920121  0.6060437221573379  0.08931577678962552  1.0000
  O   O8        1.0  0.3939580634265027  0.3781228769603757  0.4106845643100812  1.0000
  O   O9        1.0  0.1318981976603553  0.8423119439484452  0.5585040850971694  1.0000
  O   O10       1.0  0.1576825560189974  0.8680975698684817  0.9414916640541761  1.0000
  O   O11       1.0  0.868098825550156  0.1576874158473558  0.4414980833144924  1.0000
  O   O12       1.0  0.8423247582429096  0.13190930922528565  0.058505982954322584  1.0000
