data_image0
_chemical_formula_structural       Zn4H10C24Br2O13
_chemical_formula_sum              "Zn4 H10 C24 Br2 O13"
_cell_length_a       10.839395181910003
_cell_length_b       10.859114231208531
_cell_length_c       15.64940961809902
_cell_angle_alpha    68.34484171211358
_cell_angle_beta     89.40051678256495
_cell_angle_gamma    83.77526072419082

_space_group_name_H-M_alt    "P 1"
_space_group_IT_number       1

loop_
  _space_group_symop_operation_xyz
  'x, y, z'

loop_
  _atom_site_type_symbol
  _atom_site_label
  _atom_site_symmetry_multiplicity
  _atom_site_fract_x
  _atom_site_fract_y
  _atom_site_fract_z
  _atom_site_occupancy
  Zn  Zn1       1.0  0.6017820641006394  0.5528790997652493  0.58500335656462  1.0000
  Zn  Zn2       1.0  0.6109325596275071  0.4144048948101613  0.43370525295694046  1.0000
  Zn  Zn3       1.0  0.4015090967891338  0.6484564780081498  0.41299845054944495  1.0000
  Zn  Zn4       1.0  0.40290431816885075  0.36701012363149493  0.5894296225987646  1.0000
  H   H1        1.0  0.5407816345382558  0.9362046201325569  0.6166469315389804  1.0000
  H   H2        1.0  0.48147652410938235  0.05002430378537069  0.4070749732665249  1.0000
  H   H3        1.0  0.0037912435203394795  0.572354692182877  0.3892636682047694  1.0000
  H   H4        1.0  0.014112603902567883  0.3917121952931454  0.5955914662645796  1.0000
  H   H5        1.0  0.5192198947443386  0.8271127318459008  0.819390867618516  1.0000
  H   H6        1.0  0.5401345111851653  0.8965522619539068  0.9466947956088279  1.0000
  H   H7        1.0  0.4963487068083409  0.4434509160902991  0.16938906173032112  1.0000
  H   H8        1.0  0.37918482698820805  0.21382361003741576  0.873122964546461  1.0000
  H   H9        1.0  0.3430361952938767  0.16334640926403673  0.039205450732239897  1.0000
  H   H10       1.0  0.49748956912601017  0.6522710896116237  0.7582637565179837  1.0000
  C   C1        1.0  0.5238743973695178  0.15284182749847727  0.5365435988024317  1.0000
  C   C2        1.0  0.49801978248193274  0.5430558769650842  0.11840137425240024  1.0000
  C   C3        1.0  0.527598053443576  0.7726330914445398  0.08884924950359624  1.0000
  C   C4        1.0  0.498603585636175  0.8342250256129804  0.48728421668030814  1.0000
  C   C5        1.0  0.4423920428629274  0.4034149477770442  0.85052454477772  1.0000
  C   C6        1.0  0.5028528272621315  0.9756027782185228  0.47595026475871555  1.0000
  C   C7        1.0  0.5260766733963749  0.010931235036871087  0.5471320200602321  1.0000
  C   C8        1.0  0.0430283038479544  0.5102417391148465  0.45739648577733055  1.0000
  C   C9        1.0  0.9722861517251076  0.4465171240559656  0.5269853085776931  1.0000
  C   C10       1.0  0.8346558099711315  0.4572477387737165  0.5193750560854796  1.0000
  C   C11       1.0  0.17837567793566939  0.508465154908805  0.4727664154855377  1.0000
  C   C12       1.0  0.3790562981258461  0.2558741385352832  0.9974922357763277  1.0000
  C   C13       1.0  0.5188251478916827  0.6028164608639416  0.25397645969515276  1.0000
  C   C14       1.0  0.4662479872242713  0.42230641846962413  0.7524257695659813  1.0000
  C   C15       1.0  0.5241674291600873  0.7983413314979867  0.9956221892836795  1.0000
  C   C16       1.0  0.5167372903011939  0.6422649389423684  0.15175853525610702  1.0000
  C   C17       1.0  0.3988025229157799  0.28432824820706765  0.904407349048036  1.0000
  C   C18       1.0  0.40446134232246317  0.34527214646983134  0.03781529681105408  1.0000
  C   C19       1.0  0.4514665610563853  0.46856717639382583  0.9872731444089738  1.0000
  C   C20       1.0  0.46472619018928185  0.4988505909594707  0.8897747971165303  1.0000
  C   C21       1.0  0.482056781870611  0.5677445943309322  0.02400653163559238  1.0000
  C   C22       1.0  0.5020165040277078  0.6983637589069859  0.9619411303518391  1.0000
  C   C23       1.0  0.5040582979274717  0.7267138416866386  0.86550484791119  1.0000
  C   C24       1.0  0.4908692203859247  0.629936338638707  0.8316702407222181  1.0000
  Br  Br1       1.0  0.5590355678351245  0.912825605095037  0.1281483508610037  1.0000
  Br  Br2       1.0  0.35718821332967826  0.2877715664813322  0.16393506999730792  1.0000
  O   O1        1.0  0.503583264646629  0.4967840670827002  0.5044168771640258  1.0000
  O   O2        1.0  0.5827632295365035  0.49251189299886994  0.3001965409778649  1.0000
  O   O3        1.0  0.3944748243447052  0.37047489998584376  0.7140450465439586  1.0000
  O   O4        1.0  0.4533966278873862  0.6790579250086566  0.28625595579092794  1.0000
  O   O5        1.0  0.5583605875251011  0.48378322939474566  0.7150240214375502  1.0000
  O   O6        1.0  0.7780423315643221  0.49244741404622533  0.5801113691122097  1.0000
  O   O7        1.0  0.23146491933008656  0.4100783303648469  0.5399642017579112  1.0000
  O   O8        1.0  0.5751722951809485  0.22892348941505958  0.466064017293256  1.0000
  O   O9        1.0  0.4286688534335639  0.814599882573084  0.4295096232057674  1.0000
  O   O10       1.0  0.47009924122406244  0.18515130645548075  0.599577172536101  1.0000
  O   O11       1.0  0.5651820588754717  0.7461240929815601  0.5529056475749101  1.0000
  O   O12       1.0  0.7864598557472462  0.4308559703433447  0.4551872770714239  1.0000
  O   O13       1.0  0.2286340796899466  0.6073944419010929  0.41712682016748204  1.0000
