data_image0
_chemical_formula_structural       Mn2H32C38N4O16
_chemical_formula_sum              "Mn2 H32 C38 N4 O16"
_cell_length_a       7.496246455329379
_cell_length_b       9.63941070553475
_cell_length_c       14.549906996079455
_cell_angle_alpha    103.45896640966006
_cell_angle_beta     97.49007823326873
_cell_angle_gamma    112.61704485982213

_space_group_name_H-M_alt    "P 1"
_space_group_IT_number       1

loop_
  _space_group_symop_operation_xyz
  'x, y, z'

loop_
  _atom_site_type_symbol
  _atom_site_label
  _atom_site_symmetry_multiplicity
  _atom_site_fract_x
  _atom_site_fract_y
  _atom_site_fract_z
  _atom_site_occupancy
  Mn  Mn1       1.0  0.7566122468144415  0.27601346324588144  0.7995283531256234  1.0000
  Mn  Mn2       1.0  0.4570957755260423  0.4770651401106177  0.20069900715665767  1.0000
  H   H1        1.0  0.25678275059995315  0.9661181146817411  0.8221575077571613  1.0000
  H   H2        1.0  0.9353406459124683  0.1451493596252078  0.177826247187717  1.0000
  H   H3        1.0  0.8183930123721481  0.8022975633805061  0.5518812365819628  1.0000
  H   H4        1.0  0.7676347189851283  0.2518263357747798  0.4481193786999214  1.0000
  H   H5        1.0  0.05221342031133966  0.5614698791079178  0.7398341250692866  1.0000
  H   H6        1.0  0.8119514626449486  0.8224814551029025  0.2597852806797718  1.0000
  H   H7        1.0  0.8888347862759574  0.0797103813773603  0.5615486465210751  1.0000
  H   H8        1.0  0.8276312933474655  0.5193457757321552  0.43840800148826986  1.0000
  H   H9        1.0  0.016389819298012785  0.21891584732070865  0.9804347493028658  1.0000
  H   H10       1.0  0.5366967090340609  0.23844972816738874  0.019828176359475015  1.0000
  H   H11       1.0  0.5194668198515869  0.15458117272223856  0.5839715064308918  1.0000
  H   H12       1.0  0.43650805957867067  0.5713920683374593  0.4162156731105283  1.0000
  H   H13       1.0  0.284769430574059  0.8970954490307933  0.45496187214023814  1.0000
  H   H14       1.0  0.3303303967992122  0.44290507314887156  0.5450844037281968  1.0000
  H   H15       1.0  0.5360105948357372  0.6784362611336546  0.7873433333772866  1.0000
  H   H16       1.0  0.24745627261533099  0.8912551419738435  0.2124197734163999  1.0000
  H   H17       1.0  0.004306651376829352  0.9965585895485272  0.04277993650367043  1.0000
  H   H18       1.0  0.4614526690522354  0.9535523587699045  0.9573826586756055  1.0000
  H   H19       1.0  0.7537806662579598  0.7195222922706249  0.9447613846012785  1.0000
  H   H20       1.0  0.3079857593362549  0.7745604045965067  0.0551264398582276  1.0000
  H   H21       1.0  0.5086120465182802  0.40421262365169497  0.7091754765251679  1.0000
  H   H22       1.0  0.2997458470383094  0.6960645990453428  0.2911901371362404  1.0000
  H   H23       1.0  0.7102172029518882  0.4518418391932497  0.6727986356919757  1.0000
  H   H24       1.0  0.5378409856975422  0.7801400532243148  0.3275300940286954  1.0000
  H   H25       1.0  0.21790556707134806  0.6455644370635837  0.4940834055352353  1.0000
  H   H26       1.0  0.22352256687140934  0.1521056672817807  0.5057119993456496  1.0000
  H   H27       1.0  0.3940342121601716  0.6569637704949044  0.6555100991927816  1.0000
  H   H28       1.0  0.23791774292877224  0.0018519229341152  0.34430239588767353  1.0000
  H   H29       1.0  0.9802190773387592  0.4662612363083837  0.9851432751177569  1.0000
  H   H30       1.0  0.4945811113086834  0.48072909617593507  0.014883185168010037  1.0000
  H   H31       1.0  0.12206064645114618  0.43268256856806175  0.9169933856484462  1.0000
  H   H32       1.0  0.7046338333109786  0.5156701944327792  0.0831312792432826  1.0000
  C   C1        1.0  0.6652007608192747  0.9278928055525952  0.7992921974519261  1.0000
  C   C2        1.0  0.3654136750308511  0.12882668546107115  0.200608788498954  1.0000
  C   C3        1.0  0.14386480105418545  0.34643343631852014  0.7072815586480912  1.0000
  C   C4        1.0  0.9364103755389691  0.6401641286383677  0.29264201525310085  1.0000
  C   C5        1.0  0.10818179319488765  0.17957968730190293  0.6998737399606509  1.0000
  C   C6        1.0  0.9084459178091676  0.4808173690296443  0.3001198394923605  1.0000
  C   C7        1.0  0.1761840151249816  0.9917719159643853  0.7655847408157258  1.0000
  C   C8        1.0  0.9113226038334973  0.22738147641376116  0.23440717184286092  1.0000
  C   C9        1.0  0.9290996618675466  0.899909043949016  0.6133037903370991  1.0000
  C   C10       1.0  0.8166377124870648  0.28785501485945275  0.38666005867340647  1.0000
  C   C11       1.0  0.21649157820304768  0.14827092131187666  0.7722860507462315  1.0000
  C   C12       1.0  0.9445971121486495  0.377153090738318  0.2277516386789884  1.0000
  C   C13       1.0  0.02959744117399047  0.8672795285677494  0.6877275159176435  1.0000
  C   C14       1.0  0.8427089846424636  0.180756430956059  0.312216820393985  1.0000
  C   C15       1.0  0.9686621721257042  0.055341049012859904  0.6193086233781457  1.0000
  C   C16       1.0  0.8497954090288931  0.4372075518509675  0.38066696896979835  1.0000
  C   C17       1.0  0.9119538920475067  0.09784140167857909  0.9388777842165223  1.0000
  C   C18       1.0  0.47320430053004253  0.15896127010511657  0.06126119002881581  1.0000
  C   C19       1.0  0.9761414504340707  0.6999910359020658  0.682660322761059  1.0000
  C   C20       1.0  0.7939947223344602  0.0184529717831268  0.31721145742731943  1.0000
  C   C21       1.0  0.48757324093708115  0.040728591883677695  0.5956521374443043  1.0000
  C   C22       1.0  0.3925159219374308  0.44578458994787695  0.4044779229895781  1.0000
  C   C23       1.0  0.3574208265446046  0.8989788205748112  0.525214583818169  1.0000
  C   C24       1.0  0.3327028497613044  0.3744829986945888  0.474821047486742  1.0000
  C   C25       1.0  0.5502492077876653  0.9119250615522105  0.7036518487141094  1.0000
  C   C26       1.0  0.3464191826266045  0.2087453836255548  0.2962518595094537  1.0000
  C   C27       1.0  0.6454467845650882  0.7969220185298126  0.8307716228162293  1.0000
  C   C28       1.0  0.3136892934018434  0.9662433628990071  0.1690792745745497  1.0000
  C   C29       1.0  0.9044901554161414  0.9731407495072802  0.9738214042130835  1.0000
  C   C30       1.0  0.43042405266885453  0.9991626558008943  0.026286004814636468  1.0000
  C   C31       1.0  0.766928135532986  0.8199980615071212  0.9192361009069642  1.0000
  C   C32       1.0  0.34698788253876245  0.9006551890502194  0.0807392687201798  1.0000
  C   C33       1.0  0.3713214451633462  0.27963067391304003  0.8581097740304529  1.0000
  C   C34       1.0  0.013252953663162344  0.4224835999481442  0.14189005834850832  1.0000
  C   C35       1.0  0.3222260860138279  0.7587196291480255  0.5467806680814604  1.0000
  C   C36       1.0  0.27550603414331215  0.21254101186688953  0.453098623445058  1.0000
  C   C37       1.0  0.42053769611922587  0.7647503122378865  0.6365720661097356  1.0000
  C   C38       1.0  0.2837223605094082  0.1286753642266234  0.36323908759324297  1.0000
  N   N1        1.0  0.7946100483451702  0.07688282889849767  0.8540451828070629  1.0000
  N   N2        1.0  0.440586098798711  0.22303251495155513  0.1460123669293978  1.0000
  N   N3        1.0  0.5807869426874106  0.0477998601196248  0.682999621574865  1.0000
  N   N4        1.0  0.3980323402919979  0.36538451585242626  0.31705273158028996  1.0000
  O   O1        1.0  0.30929665429912484  0.44045666183945537  0.6997015208251864  1.0000
  O   O2        1.0  0.10943269116840779  0.7417604944456996  0.3001887463615063  1.0000
  O   O3        1.0  0.8348486094574595  0.5884171146243489  0.6181957893559443  1.0000
  O   O4        1.0  0.7176030561148751  0.9715655708030012  0.3817730570839756  1.0000
  O   O5        1.0  0.9987559701745355  0.38222424911919717  0.7192899093451074  1.0000
  O   O6        1.0  0.7792617860259626  0.6638910464147827  0.2806111441200585  1.0000
  O   O7        1.0  0.08815687804239057  0.6804948760001821  0.7522563148791548  1.0000
  O   O8        1.0  0.8355212708742175  0.92901350559125  0.24734224321637294  1.0000
  O   O9        1.0  0.6354712506711451  0.391364589274488  0.7129905766337215  1.0000
  O   O10       1.0  0.4227308920881257  0.6792774505826173  0.2875943188831087  1.0000
  O   O11       1.0  0.32690096469315216  0.3836089427967408  0.9071403741379099  1.0000
  O   O12       1.0  0.919318384636334  0.476820798543926  0.09266314520324667  1.0000
  O   O13       1.0  0.0009307418896327192  0.45140062872240344  0.9173017910042559  1.0000
  O   O14       1.0  0.583004801887064  0.5338502172020795  0.08278236097018518  1.0000
  O   O15       1.0  0.5408091225216366  0.2772094912767287  0.8790690000192853  1.0000
  O   O16       1.0  0.16194889868454962  0.39929496286845273  0.12099488772525287  1.0000
