data_image0
_chemical_formula_structural       Cu6H16C20I4N16O4
_chemical_formula_sum              "Cu6 H16 C20 I4 N16 O4"
_cell_length_a       7.270254188609834
_cell_length_b       7.270236894155063
_cell_length_c       15.763181598431089
_cell_angle_alpha    83.82815442641405
_cell_angle_beta     83.82617059463658
_cell_angle_gamma    79.58188639679759

_space_group_name_H-M_alt    "P 1"
_space_group_IT_number       1

loop_
  _space_group_symop_operation_xyz
  'x, y, z'

loop_
  _atom_site_type_symbol
  _atom_site_label
  _atom_site_symmetry_multiplicity
  _atom_site_fract_x
  _atom_site_fract_y
  _atom_site_fract_z
  _atom_site_occupancy
  Cu  Cu1       1.0  0.3231999862306409  0.6767972333571493  0.25000394312155544  1.0000
  Cu  Cu2       1.0  0.6768032314687815  0.3232032214698606  0.7499972135818068  1.0000
  Cu  Cu3       1.0  0.4571402193527945  0.12047159821729989  0.4406551965707947  1.0000
  Cu  Cu4       1.0  0.879526579474728  0.542863823626483  0.0593462714105755  1.0000
  Cu  Cu5       1.0  0.5428701572853499  0.8795275015705711  0.5593456565095847  1.0000
  Cu  Cu6       1.0  0.12046466796402909  0.4571336993499814  0.940652492782817  1.0000
  H   H1        1.0  0.056806570975382435  0.31421458607221087  0.4507571034898631  1.0000
  H   H2        1.0  0.6857793451404177  0.9431989448037329  0.04924723394702109  1.0000
  H   H3        1.0  0.9432007919748812  0.6857858982400984  0.5492438348257734  1.0000
  H   H4        1.0  0.3142136162136849  0.05680416550995909  0.9507467074875249  1.0000
  H   H5        1.0  0.8949150732135749  0.9245154093222894  0.22751958917666568  1.0000
  H   H6        1.0  0.0754670697894539  0.10508403528515942  0.2724959617181995  1.0000
  H   H7        1.0  0.10507993847502921  0.0754765165858373  0.7724792708511641  1.0000
  H   H8        1.0  0.9245280091516364  0.8949234123254114  0.7275071582136474  1.0000
  H   H9        1.0  0.6275008905465853  0.8524432157513573  0.3358000410809935  1.0000
  H   H10       1.0  0.1475276924488398  0.3724843778214506  0.1642069412682758  1.0000
  H   H11       1.0  0.3725003072376865  0.1475529998684735  0.6642008086066227  1.0000
  H   H12       1.0  0.8524660822562709  0.6275145830060042  0.8357928843312475  1.0000
  H   H13       1.0  0.7176610107102589  0.553182027200819  0.4325297854898338  1.0000
  H   H14       1.0  0.446786008147349  0.28232547724273616  0.06746917467850007  1.0000
  H   H15       1.0  0.28234334552868023  0.44681984864232765  0.5674718717383058  1.0000
  H   H16       1.0  0.5532044957059982  0.7176762652840554  0.932530042122458  1.0000
  C   C1        1.0  0.0020480041699997044  0.5531718531692177  0.358443889183384  1.0000
  C   C2        1.0  0.4468120875976993  0.9979511098610346  0.14156422802382446  1.0000
  C   C3        1.0  0.997953824802579  0.4468285848229457  0.6415567066386315  1.0000
  C   C4        1.0  0.5531881164138427  0.0020507294904134996  0.8584370139147948  1.0000
  C   C5        1.0  0.12216880929970128  0.3962940511303471  0.3976496895360809  1.0000
  C   C6        1.0  0.6036915285121225  0.8778396898776677  0.10235379014465447  1.0000
  C   C7        1.0  0.8778420677130895  0.6037022402949219  0.6023512842574233  1.0000
  C   C8        1.0  0.3963031484982977  0.1221621101600476  0.8976477429775966  1.0000
  C   C9        1.0  0.904320486185803  0.8064819914414161  0.2759324266709129  1.0000
  C   C10       1.0  0.1934901495118311  0.0956806533542505  0.22407685643418765  1.0000
  C   C11       1.0  0.09567855835654628  0.1935184058746628  0.7240664137111563  1.0000
  C   C12       1.0  0.8065065683434227  0.9043254069098623  0.7759268847355681  1.0000
  C   C13       1.0  0.5648901733478482  0.3290631314720045  0.28552629539179  1.0000
  C   C14       1.0  0.6709315037260738  0.4351088466411426  0.2144681588214325  1.0000
  C   C15       1.0  0.43510659411546726  0.6709344238117937  0.7144715439407177  1.0000
  C   C16       1.0  0.3290761913892625  0.5648972151799542  0.7855280295312635  1.0000
  C   C17       1.0  0.81264474802731  0.6111827112130682  0.3833542241509419  1.0000
  C   C18       1.0  0.3887854041484217  0.18735250540777318  0.11665466562096326  1.0000
  C   C19       1.0  0.18735722124861806  0.38880931288208126  0.6166487076381202  1.0000
  C   C20       1.0  0.6112122865498791  0.8126479101055039  0.8833467822660308  1.0000
  I   I1        1.0  0.6970785522586808  0.1736350347991831  0.541739459180171  1.0000
  I   I2        1.0  0.8263720665358038  0.30290650187748713  0.9582629776205918  1.0000
  I   I3        1.0  0.3029329280361779  0.8263654509727941  0.4582587260387213  1.0000
  I   I4        1.0  0.17363036125540537  0.6970826718166093  0.0417362728180706  1.0000
  N   N1        1.0  0.055748149663898475  0.6784544064046046  0.2909314247781153  1.0000
  N   N2        1.0  0.3215296761046885  0.9442528394471096  0.20907651012426948  1.0000
  N   N3        1.0  0.9442518041603166  0.32154883712814103  0.7090697568039415  1.0000
  N   N4        1.0  0.6784666747026904  0.055747608276178105  0.7909288126221623  1.0000
  N   N5        1.0  0.3009329345072373  0.3361887528012345  0.37839788796180324  1.0000
  N   N6        1.0  0.6638073069393472  0.6990701662354226  0.12160219634959896  1.0000
  N   N7        1.0  0.6990755530294237  0.6638131385143994  0.6216022835241046  1.0000
  N   N8        1.0  0.3361887029854386  0.300931594585876  0.8783948282359615  1.0000
  N   N9        1.0  0.3959348964857695  0.4271294730028857  0.31259367993396125  1.0000
  N   N10       1.0  0.5728665806536242  0.6040726392043467  0.18740867872973865  1.0000
  N   N11       1.0  0.604068300283977  0.5728709608048986  0.6874055757376354  1.0000
  N   N12       1.0  0.4271281992642173  0.39593616354268585  0.8125899451047756  1.0000
  N   N13       1.0  0.7568673955842443  0.7691119895647276  0.33102739701971007  1.0000
  N   N14       1.0  0.2308622692924303  0.24313323734751444  0.16897821842576374  1.0000
  N   N15       1.0  0.24313869103627894  0.2308800359900829  0.6689727816726145  1.0000
  N   N16       1.0  0.7691321505541068  0.7568699598650923  0.831022620662665  1.0000
  O   O1        1.0  0.6342836536534122  0.16612963526509358  0.3141737054629274  1.0000
  O   O2        1.0  0.8338682889841068  0.3657219194856651  0.18581715540431523  1.0000
  O   O3        1.0  0.3657190993263129  0.8338651089313911  0.6858201613355488  1.0000
  O   O4        1.0  0.16613665658378807  0.6342841366913846  0.8141804458947061  1.0000
