data_image0
_chemical_formula_structural       Cd6H56C52N8Cl12
_chemical_formula_sum              "Cd6 H56 C52 N8 Cl12"
_cell_length_a       8.120530700588297
_cell_length_b       11.993550077324928
_cell_length_c       15.9644
_cell_angle_alpha    99.2226831721305
_cell_angle_beta     104.66166980838793
_cell_angle_gamma    90.01205530596312

_space_group_name_H-M_alt    "P 1"
_space_group_IT_number       1

loop_
  _space_group_symop_operation_xyz
  'x, y, z'

loop_
  _atom_site_type_symbol
  _atom_site_label
  _atom_site_symmetry_multiplicity
  _atom_site_fract_x
  _atom_site_fract_y
  _atom_site_fract_z
  _atom_site_occupancy
  Cd  Cd1       1.0  0.1923877947985417  0.9893115435367079  0.10626563149474316  1.0000
  Cd  Cd2       1.0  0.0862340063366744  0.510607718560273  0.8935475391538998  1.0000
  Cd  Cd3       1.0  0.8076169308486101  0.010687614119341  0.8937351260588073  1.0000
  Cd  Cd4       1.0  0.9137682279235619  0.4893922845679768  0.10645174665066291  1.0000
  Cd  Cd5       1.0  0.8604813997751324  0.7499608992567914  0.00011811565657636752  1.0000
  Cd  Cd6       1.0  0.13952078008095734  0.2500382583992504  0.9998829405236973  1.0000
  H   H1        1.0  0.3081449106899187  0.19328255487761237  0.21456695685556326  1.0000
  H   H2        1.0  0.09375354483641733  0.3067871981432688  0.7851705062152303  1.0000
  H   H3        1.0  0.6918561050789407  0.8067182937228383  0.7854329002646806  1.0000
  H   H4        1.0  0.9062410520506534  0.6932128049849811  0.2148277962882972  1.0000
  H   H5        1.0  0.44719804148492415  0.0972944047156972  0.24549312187470204  1.0000
  H   H6        1.0  0.20207366769868434  0.4026172450032064  0.7540931040946361  1.0000
  H   H7        1.0  0.5528042471794594  0.9027064438847534  0.7545094047039526  1.0000
  H   H8        1.0  0.7979221476797634  0.5973819126528426  0.24590462709320343  1.0000
  H   H9        1.0  0.4114475451912796  0.9786814215271776  0.3559123803339331  1.0000
  H   H10       1.0  0.05499015919794911  0.5218338984729769  0.6438733192563575  1.0000
  H   H11       1.0  0.5885482701871683  0.0213177361288643  0.644088482822532  1.0000
  H   H12       1.0  0.9450043832849746  0.4781652591830651  0.3561248744417043  1.0000
  H   H13       1.0  0.0299756659862922  0.2797346240608007  0.4333809031609447  1.0000
  H   H14       1.0  0.5977722910582771  0.2198549007487216  0.5671124042415414  1.0000
  H   H15       1.0  0.9700154386390738  0.7202704519006675  0.5666175605248611  1.0000
  H   H16       1.0  0.4022247972157019  0.7801442569073274  0.43288549082980404  1.0000
  H   H17       1.0  0.12027388185365603  0.2687206576710679  0.2948268099592681  1.0000
  H   H18       1.0  0.8264171152732516  0.23144209729215254  0.7055177596970664  1.0000
  H   H19       1.0  0.8797218247164978  0.7312768090405728  0.7051725827988164  1.0000
  H   H20       1.0  0.17357864570104917  0.7685562148916887  0.29448111547275596  1.0000
  H   H21       1.0  0.3224615655107854  0.9910980263018487  0.494660865806402  1.0000
  H   H22       1.0  0.8270256067557328  0.5091163055940058  0.5054247015906695  1.0000
  H   H23       1.0  0.6775294847104334  0.0089062041874115  0.5053387418613936  1.0000
  H   H24       1.0  0.1729689901313378  0.4908836975342368  0.49457234812540907  1.0000
  H   H25       1.0  0.006804164228675801  0.0738528424126557  0.5459508273158704  1.0000
  H   H26       1.0  0.46108252036022185  0.425920995337144  0.454659389687066  1.0000
  H   H27       1.0  0.9931967971360367  0.926147160715594  0.4540514265738124  1.0000
  H   H28       1.0  0.5389158408092811  0.574078162318898  0.5453374164803292  1.0000
  H   H29       1.0  0.0363653714679657  0.2209007498639508  0.5629072946514737  1.0000
  H   H30       1.0  0.4734831190687175  0.2788460327753484  0.4378386016146506  1.0000
  H   H31       1.0  0.9636343714053626  0.7791000987364995  0.4370974097350738  1.0000
  H   H32       1.0  0.5265140780135555  0.721154815825102  0.5621595110676338  1.0000
  H   H33       1.0  0.37644028168327287  0.287908649320336  0.6332784031540868  1.0000
  H   H34       1.0  0.7433873945775744  0.2118778705125095  0.3667361121949852  1.0000
  H   H35       1.0  0.6235619525769636  0.7120913538079137  0.36672338822537387  1.0000
  H   H36       1.0  0.25661218508331274  0.7881204416713317  0.6332620018379059  1.0000
  H   H37       1.0  0.12679475048968672  0.9882318755333515  0.6673593825946751  1.0000
  H   H38       1.0  0.45903733733869967  0.5113432793769661  0.33325536699523167  1.0000
  H   H39       1.0  0.873207374962256  0.0117664366504897  0.3326409383863974  1.0000
  H   H40       1.0  0.5409661698170681  0.4886567237512836  0.6667447090865578  1.0000
  H   H41       1.0  0.584304252869444  0.2906801072020855  0.77754437861676  1.0000
  H   H42       1.0  0.8065432933115488  0.20936428165270374  0.2222614410146377  1.0000
  H   H43       1.0  0.41569909107388275  0.709317359509555  0.2224553710486318  1.0000
  H   H44       1.0  0.19346265082698014  0.7906340305311375  0.7777381188295037  1.0000
  H   H45       1.0  0.3325781984123779  0.992002681559164  0.812448732687798  1.0000
  H   H46       1.0  0.5194666857756405  0.5078404880395341  0.1879823188135745  1.0000
  H   H47       1.0  0.6674265272347741  0.0079964760968849  0.18755265125948029  1.0000
  H   H48       1.0  0.4805380398715046  0.4921586696165079  0.8120178123462549  1.0000
  H   H49       1.0  0.6525082949388478  0.2205507243718685  0.9091948869532729  1.0000
  H   H50       1.0  0.7429608532958059  0.2796475404238805  0.09067513791486449  1.0000
  H   H51       1.0  0.3474977580079752  0.7794492787563811  0.09080676968297746  1.0000
  H   H52       1.0  0.2570413809644378  0.720352462704362  0.9093241478896912  1.0000
  H   H53       1.0  0.528660374793084  0.125337872220193  0.9333074578753511  1.0000
  H   H54       1.0  0.5952931959533458  0.3750489328768438  0.0668006547973761  1.0000
  H   H55       1.0  0.47134567815373885  0.8746621309080567  0.0666941987608993  1.0000
  H   H56       1.0  0.40470909271103755  0.6249519157236065  0.9331993662063807  1.0000
  C   C1        1.0  0.2700616824736883  0.1226509615587545  0.3163636916904763  1.0000
  C   C2        1.0  0.9540845619201763  0.37756590362546666  0.6836140532052184  1.0000
  C   C3        1.0  0.7299367330999617  0.8773490415694953  0.6836376080384736  1.0000
  C   C4        1.0  0.045912471949655816  0.6224324085583746  0.31638498584811703  1.0000
  C   C5        1.0  0.16755856920689646  0.135696597652526  0.4735654925147229  1.0000
  C   C6        1.0  0.6941689227556512  0.3641651692063874  0.5267288374146232  1.0000
  C   C7        1.0  0.832436245296762  0.8643067873645336  0.5264357507855735  1.0000
  C   C8        1.0  0.3058280567100341  0.635832297505246  0.4732694664395111  1.0000
  C   C9        1.0  0.32716761025318425  0.0446130317407736  0.3729363365432974  1.0000
  C   C10       1.0  0.9541094280981215  0.4556740076362971  0.6270164266464775  1.0000
  C   C11       1.0  0.6728348960277942  0.9553911987484867  0.6270659988635002  1.0000
  C   C12       1.0  0.04588882426308772  0.5443234590753363  0.3729820410911628  1.0000
  C   C13       1.0  0.11245210261380123  0.2128205720189555  0.41615616403696976  1.0000
  C   C14       1.0  0.6970883040065206  0.2869676387582913  0.5841784797283651  1.0000
  C   C15       1.0  0.8875439303812342  0.7871819675258962  0.5838420023727336  1.0000
  C   C16       1.0  0.3029075113719274  0.7130315188977577  0.4158205042469234  1.0000
  C   C17       1.0  0.16150951100583205  0.2066291790756836  0.33804555678628384  1.0000
  C   C18       1.0  0.8241789463964083  0.2934507196116272  0.6621803661965728  1.0000
  C   C19       1.0  0.8384853034978195  0.7933742059413761  0.6619531809391075  1.0000
  C   C20       1.0  0.1758245063552124  0.7065484380444147  0.3378208538671998  1.0000
  C   C21       1.0  0.276523149237157  0.0518764834375744  0.4507818993862216  1.0000
  C   C22       1.0  0.8254111113880997  0.4483006445531004  0.5493637088684692  1.0000
  C   C23       1.0  0.7234716108623546  0.9481260561072844  0.549217355927432  1.0000
  C   C24       1.0  0.1745846495862011  0.5516976676307408  0.4506351663013604  1.0000
  C   C25       1.0  0.1037917873104561  0.141950555538827  0.555186203882428  1.0000
  C   C26       1.0  0.5486139738612579  0.35774634424048213  0.4453094776803396  1.0000
  C   C27       1.0  0.896206791475642  0.8580519840060249  0.4448154222629199  1.0000
  C   C28       1.0  0.45138444171239916  0.6422536588877606  0.5546899428674336  1.0000
  C   C29       1.0  0.2376216546009431  0.1370079250395264  0.6393304394080344  1.0000
  C   C30       1.0  0.5979399224390961  0.36255285371508716  0.36093759245186147  1.0000
  C   C31       1.0  0.7623780338682309  0.8629920780887161  0.3606716505981493  1.0000
  C   C32       1.0  0.4020620942045526  0.6374437675243456  0.6390606317371024  1.0000
  C   C33       1.0  0.3683047716908447  0.2213370135207455  0.6715768876628445  1.0000
  C   C34       1.0  0.6964874270605323  0.27836157720297194  0.328470913607937  1.0000
  C   C35       1.0  0.6316950255866304  0.7786646805519055  0.3284266727417204  1.0000
  C   C36       1.0  0.303513534304173  0.7216384259252706  0.6715288347068407  1.0000
  C   C37       1.0  0.22973092167043774  0.053153146464247  0.69002406170879  1.0000
  C   C38       1.0  0.539135651645168  0.4464414511784867  0.31034297150387147  1.0000
  C   C39       1.0  0.7702712581856516  0.9468460111917951  0.30997699447147636  1.0000
  C   C40       1.0  0.4608691284061238  0.5535585519497559  0.6896566420676961  1.0000
  C   C41       1.0  0.48508197735696273  0.2235800512755617  0.7524734326207747  1.0000
  C   C42       1.0  0.7321799119522083  0.2762724153891227  0.24745855296663413  1.0000
  C   C43       1.0  0.5149189296035956  0.7764191063804802  0.24752745967599304  1.0000
  C   C44       1.0  0.26782232230802805  0.723727587739127  0.7525419856253776  1.0000
  C   C45       1.0  0.34556235869112584  0.0545059019892022  0.7714852846746678  1.0000
  C   C46       1.0  0.5733729737953724  0.445218898372815  0.22878219620658058  1.0000
  C   C47       1.0  0.6544424213601732  0.9454941011390476  0.22851683447180446  1.0000
  C   C48       1.0  0.4266319150642134  0.5547827956998432  0.771218261369647  1.0000
  C   C49       1.0  0.4723346456316549  0.14082523203650513  0.8036576559345148  1.0000
  C   C50       1.0  0.6680780803033316  0.3590568261552818  0.19639031098741097  1.0000
  C   C51       1.0  0.5276700800154901  0.859173925619537  0.19634247522531467  1.0000
  C   C52       1.0  0.33192038967446547  0.6409440224451686  0.803608591972093  1.0000
  N   N1        1.0  0.32223441834034366  0.11745722581513723  0.23708116141094135  1.0000
  N   N2        1.0  0.08556432159254262  0.38263873684404365  0.7626956260391322  1.0000
  N   N3        1.0  0.6777641060416004  0.882544468257521  0.7629209823226616  1.0000
  N   N4        1.0  0.914431602594199  0.6173621117564068  0.23730294915336708  1.0000
  N   N5        1.0  0.5886566147621723  0.143451268699323  0.8871781968802066  1.0000
  N   N6        1.0  0.7011206447030889  0.3566945768198337  0.11286100215474448  1.0000
  N   N7        1.0  0.4113480564808327  0.8565470434845182  0.11282245186787777  1.0000
  N   N8        1.0  0.298882862452679  0.6433054263084159  0.8871384475333173  1.0000
  Cl  Cl1       1.0  0.0739804873130296  0.8776246655077031  0.9409145041792469  1.0000
  Cl  Cl2       1.0  0.1328351561182757  0.6223605434211166  0.05896235939057698  1.0000
  Cl  Cl3       1.0  0.926023019842738  0.1223753376205465  0.059086198296270744  1.0000
  Cl  Cl4       1.0  0.8671684054416391  0.37764030517933384  0.9410378254966785  1.0000
  Cl  Cl5       1.0  0.9925152095368335  0.8673868426004108  0.15880251165359024  1.0000
  Cl  Cl6       1.0  0.8340503872996978  0.6326271123833109  0.8413624674895386  1.0000
  Cl  Cl7       1.0  0.0074870791275501005  0.1326140060000398  0.8411975093501592  1.0000
  Cl  Cl8       1.0  0.16595068287330864  0.3673745816893401  0.15863749843617106  1.0000
  Cl  Cl9       1.0  0.6578574331045177  0.6211929463086392  0.04785096452364712  1.0000
  Cl  Cl10      1.0  0.6105749489486527  0.8788353817025369  0.9526293391790118  1.0000
  Cl  Cl11      1.0  0.3421435282601948  0.37880705681961063  0.9521481573974098  1.0000
  Cl  Cl12      1.0  0.38942855820711497  0.12116462142571291  0.047370736902777814  1.0000
