data_image0
_chemical_formula_structural       Zn2H24C32N2O10F2
_chemical_formula_sum              "Zn2 H24 C32 N2 O10 F2"
_cell_length_a       8.835113984908864
_cell_length_b       13.935674805634488
_cell_length_c       15.312804559556096
_cell_angle_alpha    88.52498226217551
_cell_angle_beta     91.05370652732576
_cell_angle_gamma    77.57105042351164

_space_group_name_H-M_alt    "P 1"
_space_group_IT_number       1

loop_
  _space_group_symop_operation_xyz
  'x, y, z'

loop_
  _atom_site_type_symbol
  _atom_site_label
  _atom_site_symmetry_multiplicity
  _atom_site_fract_x
  _atom_site_fract_y
  _atom_site_fract_z
  _atom_site_occupancy
  Zn  Zn1       1.0  0.47593501600083965  0.6024402388611634  0.5007094880978827  1.0000
  Zn  Zn2       1.0  0.5230146007070787  0.39587613498132873  0.5005591078850102  1.0000
  H   H1        1.0  0.5299675527667917  0.649224962887715  0.057601352995739305  1.0000
  H   H2        1.0  0.5604630766676736  0.34589654296090805  0.9527501522243043  1.0000
  H   H3        1.0  0.3802959690857434  0.3766569712821095  0.22535808319204165  1.0000
  H   H4        1.0  0.44317897641543175  0.6489594769087289  0.7656861278426279  1.0000
  H   H5        1.0  0.3834484807283259  0.3723827217672949  0.063107936727917  1.0000
  H   H6        1.0  0.3996423467405706  0.6611679167226611  0.9254893676580027  1.0000
  H   H7        1.0  0.753574254918405  0.029339838400247207  0.4670529604090987  1.0000
  H   H8        1.0  0.3512309453354733  0.9531583591536262  0.6105380250641232  1.0000
  H   H9        1.0  0.7498157291050873  0.21022337996425483  0.468645938343073  1.0000
  H   H10       1.0  0.34057298392892227  0.7749496695183424  0.6049340803683735  1.0000
  H   H11       1.0  0.285253091106128  0.27937477781347303  0.5277219970862603  1.0000
  H   H12       1.0  0.6369609421430553  0.7297123040938089  0.3971480007991275  1.0000
  H   H13       1.0  0.267955635552248  0.10187648784089022  0.5308177042718681  1.0000
  H   H14       1.0  0.6572360518216129  0.9065730607834793  0.3910017037713303  1.0000
  H   H15       1.0  0.046482515264571624  0.4379847285949198  0.31229674750775166  1.0000
  H   H16       1.0  0.9004493381329298  0.3719897401320012  0.340901514474595  1.0000
  H   H17       1.0  0.1046515346853667  0.21604985475726582  0.3586335550266355  1.0000
  H   H18       1.0  0.10838093097977008  0.26879528275619446  0.2517067449379979  1.0000
  H   H19       1.0  0.2506268370370037  0.2819899954978311  0.33217040597990183  1.0000
  H   H20       1.0  0.09016419935357335  0.6390226869148848  0.6552469291484684  1.0000
  H   H21       1.0  0.9638110774931621  0.5602597505896584  0.6874364114593308  1.0000
  H   H22       1.0  0.7344361046357405  0.7005250013328564  0.6685220841260886  1.0000
  H   H23       1.0  0.871582125936108  0.7302278579463177  0.7446970899533767  1.0000
  H   H24       1.0  0.8582779063178592  0.7801692838608288  0.6357144359136201  1.0000
  C   C1        1.0  0.4505718748739015  0.5115479977831613  0.3311216833829676  1.0000
  C   C2        1.0  0.5377034636433677  0.49208864485994763  0.6707586564739573  1.0000
  C   C3        1.0  0.6468354611928008  0.0819897810345722  0.4805743799757779  1.0000
  C   C4        1.0  0.41449830043698194  0.9068479184967373  0.561127105665328  1.0000
  C   C5        1.0  0.646393256155193  0.18171409712116576  0.4815774892855345  1.0000
  C   C6        1.0  0.4087906453311661  0.8081686426602062  0.5590461440207051  1.0000
  C   C7        1.0  0.38584979580125633  0.22060055811507343  0.5163683698804178  1.0000
  C   C8        1.0  0.5753875790034186  0.7826805370028823  0.44242947492924867  1.0000
  C   C9        1.0  0.3779879234272486  0.12208331898687422  0.5176217679268973  1.0000
  C   C10       1.0  0.5870351064373625  0.8806375984175858  0.4403964362944493  1.0000
  C   C11       1.0  0.5102972299142863  0.050292861149365806  0.4995422909072432  1.0000
  C   C12       1.0  0.5046498060628225  0.9451953659810785  0.5003368168667137  1.0000
  C   C13       1.0  0.7957085139924728  0.4692912478664156  0.4768079010695274  1.0000
  C   C14       1.0  0.20260589991404748  0.527487229873138  0.5237653254934858  1.0000
  C   C15       1.0  0.9671372010120578  0.46482096732032835  0.47854193717888904  1.0000
  C   C16       1.0  0.031132620064113294  0.5318958799680119  0.5213338576624338  1.0000
  C   C17       1.0  0.49198994305050536  0.5896031906052531  0.09219359714701623  1.0000
  C   C18       1.0  0.5302931677125287  0.41382701557785867  0.9133512860433017  1.0000
  C   C19       1.0  0.4848463581747424  0.5913840484850541  0.18267668414802074  1.0000
  C   C20       1.0  0.5524125402465216  0.40919951899370244  0.8238063914588807  1.0000
  C   C21       1.0  0.4469105694600232  0.5149182649034927  0.23300803220457317  1.0000
  C   C22       1.0  0.5222936099179735  0.49314925848501906  0.7682971308774214  1.0000
  C   C23       1.0  0.4106988438690422  0.43647647816422364  0.18706825895538515  1.0000
  C   C24       1.0  0.4679969138258004  0.5833860285151928  0.8082663452206873  1.0000
  C   C25       1.0  0.4147585793480246  0.4337486509786004  0.0965101365355494  1.0000
  C   C26       1.0  0.4448334078713431  0.5898365414130141  0.8975059021542435  1.0000
  C   C27       1.0  0.4586517432716306  0.5097313845575188  0.0474898522330136  1.0000
  C   C28       1.0  0.4762364560750712  0.5046608921537441  0.9519159036058938  1.0000
  C   C29       1.0  0.02388263870325602  0.3739628747759625  0.34969008291214726  1.0000
  C   C30       1.0  0.12823697839790782  0.2795415692965122  0.3214733759691839  1.0000
  C   C31       1.0  0.9714400183286785  0.626686952800583  0.6484443481385753  1.0000
  C   C32       1.0  0.8514439051382469  0.7148119201867972  0.6759266038538884  1.0000
  N   N1        1.0  0.518365329516513  0.24949221964209306  0.4991958195491932  1.0000
  N   N2        1.0  0.48698064310920613  0.7476000181470468  0.5004487467611725  1.0000
  O   O1        1.0  0.4258009640573733  0.5928116652895313  0.36961203067977527  1.0000
  O   O2        1.0  0.560201375072694  0.41002767783922445  0.6339007644563069  1.0000
  O   O3        1.0  0.4793468579873518  0.4259469751918844  0.36734223169036545  1.0000
  O   O4        1.0  0.5226327126759786  0.5763067654874873  0.6323723215315269  1.0000
  O   O5        1.0  0.7050313906877862  0.5531389248658484  0.4699257481637035  1.0000
  O   O6        1.0  0.2923957622207283  0.4429642336329422  0.525001723135901  1.0000
  O   O7        1.0  0.7551985728944715  0.38677625735134313  0.4828724145030351  1.0000
  O   O8        1.0  0.24422466116531902  0.6095503229195175  0.5239374660594933  1.0000
  O   O9        1.0  0.05873713549966202  0.3853400876071903  0.44101361924277444  1.0000
  O   O10       1.0  0.9375122911252307  0.6107986779582362  0.5578701223370999  1.0000
  F   F1        1.0  0.5247312762890531  0.6695960903638607  0.22145859312323077  1.0000
  F   F2        1.0  0.6082698616686598  0.3185437873709135  0.7922268601820052  1.0000
