data_image0
_chemical_formula_structural       Zn4H40C56N24
_chemical_formula_sum              "Zn4 H40 C56 N24"
_cell_length_a       14.829490532596573
_cell_length_b       14.781299253811717
_cell_length_c       15.49882118143756
_cell_angle_alpha    107.51308311571759
_cell_angle_beta     110.2217593155231
_cell_angle_gamma    110.11754383243053

_space_group_name_H-M_alt    "P 1"
_space_group_IT_number       1

loop_
  _space_group_symop_operation_xyz
  'x, y, z'

loop_
  _atom_site_type_symbol
  _atom_site_label
  _atom_site_symmetry_multiplicity
  _atom_site_fract_x
  _atom_site_fract_y
  _atom_site_fract_z
  _atom_site_occupancy
  Zn  Zn1       1.0  0.14503184527836765  0.6405116274989383  0.5097898102913803  1.0000
  Zn  Zn2       1.0  0.14261013536390282  0.4895225884813501  0.6304706617068377  1.0000
  Zn  Zn3       1.0  0.8719860850680096  0.37303247814776347  0.495954767513595  1.0000
  Zn  Zn4       1.0  0.8672331733635873  0.49837083840597535  0.3536581909879358  1.0000
  H   H1        1.0  0.8010563730201311  0.15446401884628363  0.5305228626272579  1.0000
  H   H2        1.0  0.8599932006761863  0.3374272970559886  0.15864199531081621  1.0000
  H   H3        1.0  0.2104301410937382  0.6836291177342491  0.33871547339384744  1.0000
  H   H4        1.0  0.14022266642694353  0.28776666139557255  0.47720342921436304  1.0000
  H   H5        1.0  0.3809197694522481  0.8638587614516099  0.6911825138670694  1.0000
  H   H6        1.0  0.7963720846046842  0.6382420830065599  0.48459765031255847  1.0000
  H   H7        1.0  0.6351109264395092  0.3083035954541843  0.47639969754782635  1.0000
  H   H8        1.0  0.19967252750468137  0.6359553404887421  0.8486038604700853  1.0000
  H   H9        1.0  0.9529553698766337  0.5236902936986639  0.9116925988666438  1.0000
  H   H10       1.0  0.4095988267986357  0.3540454765372303  0.28871662925626407  1.0000
  H   H11       1.0  0.014462089906778927  0.9500787335320808  0.5970672065314773  1.0000
  H   H12       1.0  0.5800615272171046  0.8778996978798618  0.9578992080516854  1.0000
  H   H13       1.0  0.37223010833356796  0.4259871353730489  0.40452709693854416  1.0000
  H   H14       1.0  0.01950897224973861  0.6289175515532363  0.07111642626973241  1.0000
  H   H15       1.0  0.6440556244891982  0.035659889602534606  0.08128444997158368  1.0000
  H   H16       1.0  0.0461260331119249  0.0999216428992682  0.6861511957765102  1.0000
  H   H17       1.0  0.22737981057542106  0.479291199082205  0.005978313005250988  1.0000
  H   H18       1.0  0.19354862245472054  0.5045275957495434  0.8978719393826111  1.0000
  H   H19       1.0  0.28299886647941724  0.61479538405127  0.027255582583912027  1.0000
  H   H20       1.0  0.3555028725596685  0.11095714132761002  0.3840345335532973  1.0000
  H   H21       1.0  0.47211781915933676  0.15659535306659933  0.3668555387728459  1.0000
  H   H22       1.0  0.48140063111299014  0.22895461543001258  0.4874054246614675  1.0000
  H   H23       1.0  0.7801505114903904  0.8694500161183214  0.6932212442686703  1.0000
  H   H24       1.0  0.7095578173337316  0.7774944877828672  0.5580742644261321  1.0000
  H   H25       1.0  0.8159534297236137  0.768927378292979  0.6475513773367396  1.0000
  H   H26       1.0  0.6660141187018951  0.05549078233174501  0.8022731258957307  1.0000
  H   H27       1.0  0.5501966470819397  0.9208934862686887  0.7254607148633311  1.0000
  H   H28       1.0  0.53584163487956  0.033584226245629595  0.7873746011896613  1.0000
  H   H29       1.0  0.18985144978461932  0.0864701122701135  0.29847502017277344  1.0000
  H   H30       1.0  0.22808658822559377  0.15964337092596279  0.43079813454608734  1.0000
  H   H31       1.0  0.12894530205942092  0.1660868237788335  0.3317025841158312  1.0000
  H   H32       1.0  0.12059598109431144  0.39624954084815306  0.06473503847283274  1.0000
  H   H33       1.0  0.2368862187051519  0.5224342113891751  0.17009617078311118  1.0000
  H   H34       1.0  0.11628962159536371  0.463989072791172  0.17853866892790657  1.0000
  H   H35       1.0  0.8245079720360026  0.11000676324703561  0.9298470885139737  1.0000
  H   H36       1.0  0.7898911195361864  0.21328716116246232  0.9656919006230495  1.0000
  H   H37       1.0  0.885124257657232  0.20246473479603108  0.06397101758465593  1.0000
  H   H38       1.0  0.7035466015016285  0.9365948006387513  0.59115646049694  1.0000
  H   H39       1.0  0.7687408476527157  0.0770657593226147  0.6247799808446501  1.0000
  H   H40       1.0  0.722368971856291  0.9747609842297891  0.4985078677473354  1.0000
  C   C1        1.0  0.2272858623492837  0.48907222809238954  0.4240771561242056  1.0000
  C   C2        1.0  0.07295932918199809  0.2786628813082999  0.6600379852691134  1.0000
  C   C3        1.0  0.591156601940675  0.99860397816952  0.796943067198491  1.0000
  C   C4        1.0  0.20635493612735445  0.16331287072434716  0.35683232493256867  1.0000
  C   C5        1.0  0.14557658392904227  0.47663369529253435  0.12489133365441062  1.0000
  C   C6        1.0  0.8083649199048184  0.1549226714332548  0.9879432828881533  1.0000
  C   C7        1.0  0.7614107906725708  0.9981474237571251  0.582418744709635  1.0000
  C   C8        1.0  0.20748291274090747  0.5334603043874679  0.9777124231741681  1.0000
  C   C9        1.0  0.42717131999209823  0.1840035733025616  0.4016781592040885  1.0000
  C   C10       1.0  0.79137145028929  0.8260408544292801  0.6299005464220997  1.0000
  C   C11       1.0  0.8045272508793604  0.20113926979247052  0.2828297099221402  1.0000
  C   C12       1.0  0.939639550313068  0.560215196599721  0.2074322108639706  1.0000
  C   C13       1.0  0.9282940433461564  0.49029505405786716  0.7157173231647603  1.0000
  C   C14       1.0  0.38360422970547586  0.6940848877314775  0.7861814827308533  1.0000
  C   C15       1.0  0.06643662671402248  0.7900805566844726  0.59784721642378  1.0000
  C   C16       1.0  0.6138309668241533  0.3906823150835237  0.2997922468898295  1.0000
  C   C17       1.0  0.8905699230527591  0.20476448559865904  0.572274386603624  1.0000
  C   C18       1.0  0.8511271294630518  0.30319614530260713  0.2099476281852971  1.0000
  C   C19       1.0  0.12120763519200743  0.6440008996254959  0.30632665528045067  1.0000
  C   C20       1.0  0.1599120311250175  0.3558964692603439  0.4603326733708428  1.0000
  C   C21       1.0  0.37307390335835316  0.7987321581776071  0.7115395572504681  1.0000
  C   C22       1.0  0.8860147679735989  0.6779471445156273  0.5198673565189152  1.0000
  C   C23       1.0  0.63838507254836  0.33512109807269047  0.4192189636457329  1.0000
  C   C24       1.0  0.11079569118644624  0.5863947376513607  0.7948042651269772  1.0000
  C   C25       1.0  0.22927342804418774  0.39264129494484484  0.4208191632755386  1.0000
  C   C26       1.0  0.973176503765281  0.18743567140282383  0.6315528055627554  1.0000
  C   C27       1.0  0.7904932115266876  0.19309255194632166  0.18475841001279036  1.0000
  C   C28       1.0  0.03821432095766396  0.5967459220371083  0.20245715424388072  1.0000
  C   C29       1.0  0.024863598725673366  0.5400994573139358  0.8142996638272136  1.0000
  C   C30       1.0  0.4452292013265194  0.8005343854369544  0.8005433488648706  1.0000
  C   C31       1.0  0.965895037596617  0.7900996084644802  0.5804995236908822  1.0000
  C   C32       1.0  0.5566227179839986  0.3405375403649842  0.3441727946392775  1.0000
  C   C33       1.0  0.10899321490121848  0.5359945571528045  0.9831401914915858  1.0000
  C   C34       1.0  0.3914897669321392  0.25399845170788643  0.3617204868235789  1.0000
  C   C35       1.0  0.8771919618950649  0.9058601716459123  0.6193788820033674  1.0000
  C   C36       1.0  0.6175235114538042  0.9830509459891064  0.8927537659939448  1.0000
  C   C37       1.0  0.29756790083242624  0.2610661711789461  0.3692574794819521  1.0000
  C   C38       1.0  0.09982040920732521  0.5358613541104802  0.07533155037761931  1.0000
  C   C39       1.0  0.7144820003408727  0.0772843743940044  0.9922819355344287  1.0000
  C   C40       1.0  0.8730566363520683  0.004945766291150696  0.6213018601874366  1.0000
  C   C41       1.0  0.027526245088260737  0.5353379500985441  0.9068223668895428  1.0000
  C   C42       1.0  0.44696026905333514  0.31496385282549266  0.327100317384371  1.0000
  C   C43       1.0  0.9545780371764752  0.886905682623336  0.6023872849586738  1.0000
  C   C44       1.0  0.55189674086094  0.8887599924188977  0.8885684851111151  1.0000
  C   C45       1.0  0.3016448980178836  0.3594459901056126  0.3957066355390992  1.0000
  C   C46       1.0  0.05120488906154464  0.588321705373943  0.11168512674902333  1.0000
  C   C47       1.0  0.7142368957792017  0.09603405476684661  0.08376508277920883  1.0000
  C   C48       1.0  0.9663862562805294  0.09622363856644969  0.6501886104267242  1.0000
  C   C49       1.0  0.29538787520937165  0.5675777776688806  0.40739428078729395  1.0000
  C   C50       1.0  0.18320162022974534  0.30101219450423855  0.7130342260344946  1.0000
  C   C51       1.0  0.7553737775508582  0.11673916110355981  0.3043872089109811  1.0000
  C   C52       1.0  0.8290088657750732  0.4998972881775927  0.12355663047381431  1.0000
  C   C53       1.0  0.8167617006430705  0.42513788615520554  0.6863340471855253  1.0000
  C   C54       1.0  0.40980027181731776  0.6513994151130192  0.8555345195586099  1.0000
  C   C55       1.0  0.17447886681308936  0.8807788387341519  0.6499361794128049  1.0000
  C   C56       1.0  0.5730535777477003  0.42073976481156444  0.22268984153406987  1.0000
  N   N1        1.0  0.15972167713024282  0.5050029330925129  0.46021816486997835  1.0000
  N   N2        1.0  0.049811071827448955  0.3437816492279922  0.6207104901732238  1.0000
  N   N3        1.0  0.8685892689393881  0.30802515374949013  0.3583953552652304  1.0000
  N   N4        1.0  0.9635977476399167  0.5831658283461466  0.3074655704921483  1.0000
  N   N5        1.0  0.9565016985243063  0.5027023095697557  0.6433106586220487  1.0000
  N   N6        1.0  0.28479412238235113  0.6344912548675269  0.694624619892494  1.0000
  N   N7        1.0  0.04570826196901827  0.6857528885623694  0.5498104836176693  1.0000
  N   N8        1.0  0.7207146983960585  0.41167935945865963  0.34539574149687985  1.0000
  N   N9        1.0  0.937281324289245  0.2965612811736591  0.5663913715218953  1.0000
  N   N10       1.0  0.8948139831396988  0.36997905398781233  0.31287209408903033  1.0000
  N   N11       1.0  0.07625725106882442  0.6349139830487333  0.3676343687165017  1.0000
  N   N12       1.0  0.12120266022094481  0.4252431008893184  0.4847948924969145  1.0000
  N   N13       1.0  0.2796476420605956  0.7009069599507569  0.6504663590848453  1.0000
  N   N14       1.0  0.9351307752314569  0.6178249123655705  0.5008787646926294  1.0000
  N   N15       1.0  0.7338598333158759  0.37732976383276207  0.418965883195213  1.0000
  N   N16       1.0  0.06867799765606009  0.561480331229184  0.6924516380026091  1.0000
  N   N17       1.0  0.3566946681849217  0.634103618966421  0.3982836432131763  1.0000
  N   N18       1.0  0.2741641956698615  0.31756212383121624  0.7536168302937867  1.0000
  N   N19       1.0  0.7115048450525311  0.0473691743396571  0.3215257136161043  1.0000
  N   N20       1.0  0.7385553450395009  0.4459130585901577  0.05202222267346462  1.0000
  N   N21       1.0  0.7243682403981713  0.3673778981965513  0.6598128873922633  1.0000
  N   N22       1.0  0.4300199823623033  0.6184367505573009  0.9154281772723749  1.0000
  N   N23       1.0  0.2639819468574133  0.9550573114357519  0.6901876950466176  1.0000
  N   N24       1.0  0.53652354675544  0.4458389689936268  0.15993166747461635  1.0000
