data_image0
_chemical_formula_structural       Mn2H24C28S2N4O8
_chemical_formula_sum              "Mn2 H24 C28 S2 N4 O8"
_cell_length_a       7.945687165534058
_cell_length_b       9.016427623091229
_cell_length_c       10.425521340485389
_cell_angle_alpha    73.82573542211263
_cell_angle_beta     72.86877780179297
_cell_angle_gamma    80.02922383003163

_space_group_name_H-M_alt    "P 1"
_space_group_IT_number       1

loop_
  _space_group_symop_operation_xyz
  'x, y, z'

loop_
  _atom_site_type_symbol
  _atom_site_label
  _atom_site_symmetry_multiplicity
  _atom_site_fract_x
  _atom_site_fract_y
  _atom_site_fract_z
  _atom_site_occupancy
  Mn  Mn1       1.0  0.4052647344735333  0.4922182797932706  0.17836228831986037  1.0000
  Mn  Mn2       1.0  0.5947406469687521  0.5077802381874079  0.8216359389045707  1.0000
  H   H1        1.0  0.14840588110357084  0.21710862106790066  0.914563442123395  1.0000
  H   H2        1.0  0.8515948898217685  0.7829084774208964  0.08542366797104252  1.0000
  H   H3        1.0  0.9822049585919784  0.3679097280259427  0.9545161475086276  1.0000
  H   H4        1.0  0.017797041280800778  0.6320957649049533  0.04547156648921204  1.0000
  H   H5        1.0  0.8669996332192794  0.0461776886335201  0.018332586386982458  1.0000
  H   H6        1.0  0.13299335872358847  0.9538382948988228  0.9816622974966053  1.0000
  H   H7        1.0  0.7562370860766164  0.004216142578748398  0.19947737993953038  1.0000
  H   H8        1.0  0.2437803110856008  0.9957683897344934  0.8005176804108487  1.0000
  H   H9        1.0  0.20853091072094534  0.19221957327100372  0.3377542148035815  1.0000
  H   H10       1.0  0.7914681325652992  0.8077766619307524  0.6622517437339895  1.0000
  H   H11       1.0  0.026063284986811697  0.07005495708963849  0.5751512498938142  1.0000
  H   H12       1.0  0.9739362147326814  0.9299493943036978  0.4248526487313597  1.0000
  H   H13       1.0  0.9700310574766815  0.20854741769890947  0.7640372747454265  1.0000
  H   H14       1.0  0.029960778589412464  0.7914546555344728  0.23596506038802542  1.0000
  H   H15       1.0  0.1082307076593167  0.45458884141155653  0.7122642840096773  1.0000
  H   H16       1.0  0.8917637655053524  0.545413217720757  0.2877393797047461  1.0000
  H   H17       1.0  0.27356930908693755  0.631297130160867  0.663098545251998  1.0000
  H   H18       1.0  0.7264359539382425  0.3687025499426043  0.33690518346914194  1.0000
  H   H19       1.0  0.37998324749641904  0.8906707323201885  0.5753661737621982  1.0000
  H   H20       1.0  0.6200181829300603  0.10932780843313586  0.42463581426703456  1.0000
  H   H21       1.0  0.46962227257610306  0.005857028390273902  0.3159972347713378  1.0000
  H   H22       1.0  0.5303742582047304  0.9941380609511439  0.6840095652569006  1.0000
  H   H23       1.0  0.47012217699978  0.8376561198507488  0.15984633192257997  1.0000
  H   H24       1.0  0.5298753008668767  0.1623424431348752  0.8401574990193696  1.0000
  C   C1        1.0  0.22406165167582495  0.37440836873357597  0.0038312646759451124  1.0000
  C   C2        1.0  0.7759438016121221  0.6256017415404784  0.9961449671766048  1.0000
  C   C3        1.0  0.08578067184046738  0.2844171132677502  0.9922440145769115  1.0000
  C   C4        1.0  0.9142173785605221  0.7155884029761452  0.007749378117807742  1.0000
  C   C5        1.0  0.8123613853619103  0.095081458054068  0.10930954642999784  1.0000
  C   C6        1.0  0.18763789784656376  0.9049124539827885  0.8906892448983329  1.0000
  C   C7        1.0  0.6727989549553327  0.22975576369816506  0.08089847406935041  1.0000
  C   C8        1.0  0.3272066671811941  0.7702404313877836  0.9190935448918865  1.0000
  C   C9        1.0  0.18553477679763825  0.24374040777559708  0.4250561397177535  1.0000
  C   C10       1.0  0.814463897341163  0.7562593089314261  0.5749490622811778  1.0000
  C   C11       1.0  0.08416763014652417  0.1775093981627052  0.5563198281909933  1.0000
  C   C12       1.0  0.915830921715141  0.8224914793162414  0.44368608057442316  1.0000
  C   C13       1.0  0.05508116300057249  0.2536204146547192  0.6616965664305852  1.0000
  C   C14       1.0  0.9449201474647918  0.7463792876810584  0.33830900520327145  1.0000
  C   C15       1.0  0.13114739741608616  0.39116321307784563  0.6329472526405482  1.0000
  C   C16       1.0  0.8688567931581089  0.6088341530726494  0.36705631614919554  1.0000
  C   C17       1.0  0.23258594441805502  0.4497770889592728  0.4987132680930131  1.0000
  C   C18       1.0  0.7674168053297163  0.5502214450136902  0.5012903431727411  1.0000
  C   C19       1.0  0.3097472061459852  0.599223501205934  0.4570777513419415  1.0000
  C   C20       1.0  0.6902535248369757  0.4007692454400101  0.5429296280247583  1.0000
  C   C21       1.0  0.31525025359576375  0.6803808649819061  0.552077671762042  1.0000
  C   C22       1.0  0.6847486650973165  0.319616530181257  0.44792611670389704  1.0000
  C   C23       1.0  0.37542248923601557  0.8269407121061861  0.5020577762467794  1.0000
  C   C24       1.0  0.6245749878586364  0.17305785060926124  0.49794509574913093  1.0000
  C   C25       1.0  0.42823037756465243  0.8889660786265664  0.3595707379301204  1.0000
  C   C26       1.0  0.5717606336927614  0.1110313601906796  0.6404338595231281  1.0000
  C   C27       1.0  0.4266545078240325  0.7973977710864021  0.2720836241029829  1.0000
  C   C28       1.0  0.5733376981615093  0.20260082091188988  0.727920426515155  1.0000
  S   S1        1.0  0.9867397630425713  0.15810109805345007  0.156373086552243  1.0000
  S   S2        1.0  0.01326874229081197  0.8418927619279161  0.8436207653490583  1.0000
  N   N1        1.0  0.25766059935661184  0.3768103191668644  0.3965875032034702  1.0000
  N   N2        1.0  0.7423423972614598  0.6231858940727619  0.6034175713674302  1.0000
  N   N3        1.0  0.3697879218683724  0.6558366756389377  0.31925380891764377  1.0000
  N   N4        1.0  0.6302112429230035  0.3441583985207116  0.6807504839073958  1.0000
  O   O1        1.0  0.21889770332553832  0.38799404177057534  0.12286454499515291  1.0000
  O   O2        1.0  0.7810839185024036  0.6120173648306062  0.877131122668523  1.0000
  O   O3        1.0  0.3315582235651106  0.4310552222998751  0.8903137040429527  1.0000
  O   O4        1.0  0.6684516010895648  0.5689386309011297  0.1096817710948769  1.0000
  O   O5        1.0  0.6888821405130373  0.2989579859420459  0.9542515080818602  1.0000
  O   O6        1.0  0.3111168662378602  0.7010510071881341  0.04575042287908108  1.0000
  O   O7        1.0  0.5559605890126563  0.26392016956208414  0.18427898428909364  1.0000
  O   O8        1.0  0.4440417050738644  0.7360702484894689  0.8157276458351035  1.0000
