data_image0
_chemical_formula_structural       Mg4H56C24O44
_chemical_formula_sum              "Mg4 H56 C24 O44"
_cell_length_a       5.794444166
_cell_length_b       10.428923964
_cell_length_c       17.9763
_cell_angle_alpha    90.0
_cell_angle_beta     90.0
_cell_angle_gamma    90.0

_space_group_name_H-M_alt    "P 1"
_space_group_IT_number       1

loop_
  _space_group_symop_operation_xyz
  'x, y, z'

loop_
  _atom_site_type_symbol
  _atom_site_label
  _atom_site_symmetry_multiplicity
  _atom_site_fract_x
  _atom_site_fract_y
  _atom_site_fract_z
  _atom_site_occupancy
  Mg  Mg1       1.0  0.3393526529322699  0.6758022231563743  0.1472255135929004  1.0000
  Mg  Mg2       1.0  0.1606469875854515  0.3242002733619671  0.6472249573048927  1.0000
  Mg  Mg3       1.0  0.6606449023121002  0.1757976188462678  0.3527755989831078  1.0000
  Mg  Mg4       1.0  0.8393505676589186  0.8241991244419041  0.8527744864070999  1.0000
  H   H1        1.0  0.2065323205670211  0.5928233844010791  0.2849385023614417  1.0000
  H   H2        1.0  0.29346559415963464  0.4071762355021775  0.7849385023614417  1.0000
  H   H3        1.0  0.793465234677349  0.09282549219283712  0.2150626102145594  1.0000
  H   H4        1.0  0.7065336868758081  0.9071760454538094  0.7150614976385583  1.0000
  H   H5        1.0  0.3663871700511265  0.7151025384539835  0.29345582795124875  1.0000
  H   H6        1.0  0.13361074467552206  0.2848989991926629  0.7934552716632481  1.0000
  H   H7        1.0  0.6336086594021708  0.2151027285023588  0.20654417204875133  1.0000
  H   H8        1.0  0.8663885363599205  0.7848978502725998  0.7065441720487513  1.0000
  H   H9        1.0  0.7990775072385077  0.6905304923939539  0.15513259124514187  1.0000
  H   H10       1.0  0.7009248658967948  0.3094720041243946  0.6551320349571412  1.0000
  H   H11       1.0  0.2009234995880007  0.1905278058272373  0.3448679650428589  1.0000
  H   H12       1.0  0.29907441513864796  0.8094698963326367  0.8448674087548582  1.0000
  H   H13       1.0  0.7515233342918035  0.5429313723587939  0.1511701518109945  1.0000
  H   H14       1.0  0.748477313052426  0.45707112415955464  0.651170708098995  1.0000
  H   H15       1.0  0.24847767253471179  0.0429277269203823  0.348829291901005  1.0000
  H   H16       1.0  0.251520242191944  0.9570699752394916  0.8488298481890058  1.0000
  H   H17       1.0  0.5006450863780714  0.6341986980470012  0.0078013829319730004  1.0000
  H   H18       1.0  0.999352109384013  0.3658009218562555  0.5078008266439724  1.0000
  H   H19       1.0  0.499350743075226  0.1341998469670713  0.4921991733560276  1.0000
  H   H20       1.0  0.0006454458603571  0.8658007318078874  0.9921991733560276  1.0000
  H   H21       1.0  0.40721248361408147  0.7763936172082708  0.0138738227555137  1.0000
  H   H22       1.0  0.0927871569036327  0.2236060026949858  0.5138738227555137  1.0000
  H   H23       1.0  0.5927867974213541  0.2763938072566461  0.4861261772444863  1.0000
  H   H24       1.0  0.9072121241318027  0.7236067715183125  0.9861261772444864  1.0000
  H   H25       1.0  0.5918565960343755  0.9063188141583396  0.1576264303555206  1.0000
  H   H26       1.0  0.9081457771009269  0.0936827234883069  0.65762587406752  1.0000
  H   H27       1.0  0.4081426850010672  0.40631612759163005  0.34237412593248  1.0000
  H   H28       1.0  0.0918517781434431  0.5936815745682438  0.84237412593248  1.0000
  H   H29       1.0  0.29074229585043543  0.0216676236954072  0.9728147616584053  1.0000
  H   H30       1.0  0.2092556188762131  0.9783339139512393  0.4728136490824042  1.0000
  H   H31       1.0  0.7092569851850071  0.5216645570319544  0.5271857946295953  1.0000
  H   H32       1.0  0.7907453879502951  0.47833506287130234  0.0271869072055964  1.0000
  H   H33       1.0  0.05938274494368299  0.23482480152829777  0.9792816096749632  1.0000
  H   H34       1.0  0.44060999240975457  0.765176736118356  0.47928049709895504  1.0000
  H   H35       1.0  0.9406113587185415  0.7348236526082347  0.5207183903250368  1.0000
  H   H36       1.0  0.5593875628346153  0.265177885038419  0.0207206154770461  1.0000
  H   H37       1.0  0.4771311830429639  0.3725657616655695  0.1423451989564057  1.0000
  H   H38       1.0  0.02287018326582309  0.6274367348527718  0.642343530092397  1.0000
  H   H39       1.0  0.5228715495746171  0.8725646127455065  0.3576559136196026  1.0000
  H   H40       1.0  0.9771273719785469  0.12743692490114  0.8576553573315948  1.0000
  H   H41       1.0  0.2616299262827368  0.027277981983758103  0.2011648670749793  1.0000
  H   H42       1.0  0.2383748916081956  0.9727235556628884  0.7011637544989782  1.0000
  H   H43       1.0  0.7383797094991279  0.5272729975769153  0.29883568921302134  1.0000
  H   H44       1.0  0.7616278410093854  0.47272182796786677  0.798836245501022  1.0000
  H   H45       1.0  0.4708907225321609  0.0775161467079997  0.0807418656786965  1.0000
  H   H46       1.0  0.0291106437766331  0.9224853909386539  0.5807418656786965  1.0000
  H   H47       1.0  0.5291120100854201  0.5775121211728518  0.419257578033303  1.0000
  H   H48       1.0  0.9708869114677369  0.4224836632436322  0.9192598031853052  1.0000
  H   H49       1.0  0.9571099213522061  0.1512562566804831  0.0820068645939358  1.0000
  H   H50       1.0  0.5428924517830964  0.8487443220944755  0.5820051957299344  1.0000
  H   H51       1.0  0.042892811265375  0.6512560666321079  0.4179942479820653  1.0000
  H   H52       1.0  0.4571051034612736  0.3487425943994538  0.9179948042700659  1.0000
  H   H53       1.0  0.14310086977202016  0.2282881731824276  0.1964047106467959  1.0000
  H   H54       1.0  0.3569022223278395  0.771715282207616  0.6964041543587953  1.0000
  H   H55       1.0  0.8568984112634225  0.7282841476472797  0.303594176777203  1.0000
  H   H56       1.0  0.6430970587075961  0.271716431127679  0.8035947330652036  1.0000
  C   C1        1.0  0.0234897422601179  0.896437641339773  0.1499290732798215  1.0000
  C   C2        1.0  0.4765185272129527  0.1035600608200937  0.6499290732798216  1.0000
  C   C3        1.0  0.9765250708949507  0.396439749131531  0.3500714830081861  1.0000
  C   C4        1.0  0.523485931195701  0.6035617885151154  0.8500709267201785  1.0000
  C   C5        1.0  0.2562575386803729  0.96527887582171  0.1514677658917591  1.0000
  C   C6        1.0  0.24374555341948678  0.0347236206966386  0.6514672096037586  1.0000
  C   C7        1.0  0.7437486455193536  0.4652723537682135  0.3485327903962415  1.0000
  C   C8        1.0  0.7562520018248831  0.5347215129048735  0.8485327903962415  1.0000
  C   C9        1.0  0.2876893714467812  0.04889382660763181  0.0817537535532864  1.0000
  C   C10       1.0  0.2123137206530785  0.9511067521673199  0.5817531972652858  1.0000
  C   C11       1.0  0.7123150869618725  0.5488917188158737  0.4182456901587059  1.0000
  C   C12       1.0  0.7876838345912915  0.4511050244723052  0.9182468027347143  1.0000
  C   C13       1.0  0.1422362484457125  0.1731300377903509  0.0795041248755339  1.0000
  C   C14       1.0  0.3577633920720018  0.8268714998563027  0.5795041248755339  1.0000
  C   C15       1.0  0.8577664841718686  0.6731279299985857  0.42049476254846513  1.0000
  C   C16       1.0  0.6422324373812955  0.3268716899046709  0.9204958751244732  1.0000
  C   C17       1.0  0.20598869637981918  0.2652440471853836  0.1425944159810442  1.0000
  C   C18       1.0  0.2940092183468295  0.7347584493329579  0.6425933034050362  1.0000
  C   C19       1.0  0.7940088588645509  0.7652409805219307  0.35740502773095534  1.0000
  C   C20       1.0  0.7059866111064679  0.2347576805096381  0.8574061403069635  1.0000
  C   C21       1.0  0.0989309731144985  0.3994045804129485  0.13175347540929042  1.0000
  C   C22       1.0  0.4010703931942955  0.6005979161053929  0.6317534754092904  1.0000
  C   C23       1.0  0.9010717595030826  0.8994005548778007  0.3682459683027091  1.0000
  C   C24       1.0  0.5989271620500743  0.1005971472820661  0.8682459683027091  1.0000
  O   O1        1.0  0.2589929175270598  0.6709378670468524  0.2585170474458067  1.0000
  O   O2        1.0  0.24100327140851618  0.329063670599794  0.7585164911577991  1.0000
  O   O3        1.0  0.7410046377173103  0.1709390159669226  0.24148350884220093  1.0000
  O   O4        1.0  0.7589925580447809  0.8290615628080361  0.7414829525541933  1.0000
  O   O5        1.0  0.6780460536756151  0.6252917388707147  0.1673208613563446  1.0000
  O   O6        1.0  0.8219563194596871  0.3747117165193288  0.667320305068337  1.0000
  O   O7        1.0  0.32195667894196583  0.1252880934323031  0.3326791386436555  1.0000
  O   O8        1.0  0.1780446873668282  0.8747096087275708  0.8326791386436554  1.0000
  O   O9        1.0  0.38194172496924483  0.688699047456204  0.0314881260326061  1.0000
  O   O10       1.0  0.1180579155484764  0.3113015313187475  0.5314875697446055  1.0000
  O   O11       1.0  0.6180575560661978  0.1886973197611823  0.4685118739673939  1.0000
  O   O12       1.0  0.8819413654869592  0.8113023001420743  0.9685118739673939  1.0000
  O   O13       1.0  0.0249204230575373  0.7775308390387253  0.1347440797049444  1.0000
  O   O14       1.0  0.4750826690423224  0.2224697397362263  0.6347446359929451  1.0000
  O   O15       1.0  0.9750771321868327  0.2775300702153984  0.3652575891590573  1.0000
  O   O16       1.0  0.5249166119931132  0.7224666730727733  0.865255364007055  1.0000
  O   O17       1.0  0.8434752083173291  0.9621395298917719  0.1622870112314558  1.0000
  O   O18       1.0  0.6565271648179659  0.0378639254982716  0.6622853423674544  1.0000
  O   O19       1.0  0.15653787904667377  0.4621339667099705  0.3377135450565447  1.0000
  O   O20       1.0  0.3434669388442586  0.5378598999631166  0.8377135450565449  1.0000
  O   O21       1.0  0.4301482469405825  0.8689237769190044  0.1563341733282186  1.0000
  O   O22       1.0  0.0698548451592771  0.1310777607276421  0.6563330607522104  1.0000
  O   O23       1.0  0.5698544856769984  0.3689220492239826  0.343666382959789  1.0000
  O   O24       1.0  0.9301444358761657  0.6310746940641891  0.8436674955357901  1.0000
  O   O25       1.0  0.24325197717333677  0.971266070686255  0.0169445325233752  1.0000
  O   O26       1.0  0.2567493891354573  0.028736425832093505  0.5169434199473741  1.0000
  O   O27       1.0  0.756752481235317  0.4712633841195384  0.48305602376462536  1.0000
  O   O28       1.0  0.743246440317847  0.5287343180403283  0.9830571363406264  1.0000
  O   O29       1.0  0.1974857237756353  0.2349005523922116  0.0106401206032416  1.0000
  O   O30       1.0  0.3025104651599477  0.7651019441261298  0.5106401206032417  1.0000
  O   O31       1.0  0.8025118314687346  0.7348974857287588  0.48935876682075735  1.0000
  O   O32       1.0  0.6974870900844221  0.2650992575594131  0.9893598793967584  1.0000
  O   O33       1.0  0.4523125816585889  0.2788053695699588  0.1440607911527962  1.0000
  O   O34       1.0  0.04768705885913249  0.7211971269483898  0.6440607911527962  1.0000
  O   O35       1.0  0.5476866993768539  0.7788042206498886  0.3559392088472038  1.0000
  O   O36       1.0  0.9523087705941646  0.2211963581250629  0.855939208847204  1.0000
  O   O37       1.0  0.2443116128906055  0.49080039490831956  0.1346995766648291  1.0000
  O   O38       1.0  0.25568975341818856  0.5092030604817239  0.6346967952248265  1.0000
  O   O39       1.0  0.7556962971001936  0.9907963693731645  0.365301535911172  1.0000
  O   O40       1.0  0.7443060760351087  0.0092013327867022  0.86529931075917  1.0000
  O   O41       1.0  0.8840088631893792  0.4098294334826704  0.1224256382014062  1.0000
  O   O42       1.0  0.6159935099459233  0.590172104163976  0.6224273070654152  1.0000
  O   O43       1.0  0.11599559521926747  0.9098244490758276  0.377571580358584  1.0000
  O   O44       1.0  0.3840040452984468  0.09017325308403912  0.8775732492225856  1.0000
