data_image0
_chemical_formula_structural       Cu4H36C16O28
_chemical_formula_sum              "Cu4 H36 C16 O28"
_cell_length_a       6.967453442925412
_cell_length_b       9.818294571689018
_cell_length_c       13.835685920102147
_cell_angle_alpha    89.9994146958745
_cell_angle_beta     90.00012093610455
_cell_angle_gamma    99.24585234214251

_space_group_name_H-M_alt    "P 1"
_space_group_IT_number       1

loop_
  _space_group_symop_operation_xyz
  'x, y, z'

loop_
  _atom_site_type_symbol
  _atom_site_label
  _atom_site_symmetry_multiplicity
  _atom_site_fract_x
  _atom_site_fract_y
  _atom_site_fract_z
  _atom_site_occupancy
  Cu  Cu1       1.0  0.9551270060615309  0.3166006646705384  0.7246441100723614  1.0000
  Cu  Cu2       1.0  0.5448773824494921  0.18340047327482983  0.22464549483105145  1.0000
  Cu  Cu3       1.0  0.04486157607063752  0.6834055035792235  0.2753622007152217  1.0000
  Cu  Cu4       1.0  0.45514364783112893  0.8166017682062475  0.775362984370922  1.0000
  H   H1        1.0  0.0256702244837044  0.875929385091766  0.5635722218844563  1.0000
  H   H2        1.0  0.47431096125295374  0.6240536862934365  0.0635678924831709  1.0000
  H   H3        1.0  0.9743615603271821  0.12407735163161959  0.43643842562464386  1.0000
  H   H4        1.0  0.5256249752056661  0.3759279979570565  0.9364326361642981  1.0000
  H   H5        1.0  0.3238208238120635  0.964307053606497  0.4797428732508847  1.0000
  H   H6        1.0  0.1761676420999336  0.5356829969657113  0.9797347245108766  1.0000
  H   H7        1.0  0.6761964111644474  0.03565201195144141  0.5202699428119502  1.0000
  H   H8        1.0  0.8237660530313275  0.46429348131834314  0.020261467550057  1.0000
  H   H9        1.0  0.3072013454540397  0.13987528342664748  0.5103187190908542  1.0000
  H   H10       1.0  0.19276567874366182  0.36011494927965515  0.010321649501477698  1.0000
  H   H11       1.0  0.6928177747002026  0.8601145917079406  0.48966374050896627  1.0000
  H   H12       1.0  0.8071778157157111  0.6398598410072865  0.989683938587639  1.0000
  H   H13       1.0  0.2684679101378507  0.20977935452958726  0.7433619391072667  1.0000
  H   H14       1.0  0.2315278331918975  0.2902392215659546  0.24338397972497455  1.0000
  H   H15       1.0  0.7315062055035  0.7902355023036878  0.2566234112995858  1.0000
  H   H16       1.0  0.7684694339882798  0.7097580449656677  0.7566223311387077  1.0000
  H   H17       1.0  0.2998776498185691  0.3596738472952978  0.7878656018993269  1.0000
  H   H18       1.0  0.20013306329376954  0.1403429629622651  0.2878842165450308  1.0000
  H   H19       1.0  0.7001311554474795  0.640342288806636  0.21210457044902137  1.0000
  H   H20       1.0  0.7998850762530337  0.8596591719455875  0.7121155894262472  1.0000
  H   H21       1.0  0.05473567893516671  0.574893502302537  0.7084415142485199  1.0000
  H   H22       1.0  0.4452696300584265  0.9251367190606177  0.2084486002377446  1.0000
  H   H23       1.0  0.9452658991439477  0.425122367198526  0.29155829159706315  1.0000
  H   H24       1.0  0.5547410852694766  0.07489178335707439  0.7915569877051708  1.0000
  H   H25       1.0  0.2534345248378429  0.5374798653514787  0.6772584052313206  1.0000
  H   H26       1.0  0.24656846816058922  0.9625607054290626  0.17726544812905587  1.0000
  H   H27       1.0  0.7465928857693739  0.4625543760334879  0.32275368763869483  1.0000
  H   H28       1.0  0.753407079857162  0.03746342606007861  0.8227712187999001  1.0000
  H   H29       1.0  0.6272684902150091  0.4103430789198655  0.717807466943178  1.0000
  H   H30       1.0  0.8727484977507559  0.08967393483997203  0.21782325599703967  1.0000
  H   H31       1.0  0.3727628045651413  0.5896697878201566  0.2821721014760428  1.0000
  H   H32       1.0  0.1272556654104164  0.9103307586702132  0.7821758271536793  1.0000
  H   H33       1.0  0.6001025987016108  0.2653134420208474  0.6665213250944291  1.0000
  H   H34       1.0  0.8999170293176774  0.23469783059246654  0.1665311803555767  1.0000
  H   H35       1.0  0.3999164960721728  0.7346948761382494  0.3334676393125591  1.0000
  H   H36       1.0  0.10008521084076702  0.7653037179948472  0.8334722394208569  1.0000
  C   C1        1.0  0.987184312373138  0.0660524835810037  0.6322426158970772  1.0000
  C   C2        1.0  0.5128011224149844  0.4339392910531856  0.1322285409225259  1.0000
  C   C3        1.0  0.012800398427707166  0.9339658378735292  0.3677709224939676  1.0000
  C   C4        1.0  0.48721802304526557  0.5660321410214308  0.8677582553998491  1.0000
  C   C5        1.0  0.05319306851955472  0.9867506102614885  0.5467238921700001  1.0000
  C   C6        1.0  0.44683796972475426  0.5132374751808728  0.0467127974952035  1.0000
  C   C7        1.0  0.9468159083136383  0.013257334714055002  0.4532889235781212  1.0000
  C   C8        1.0  0.5531871290730237  0.48672597905797943  0.9532898998008363  1.0000
  C   C9        1.0  0.27503530099545515  0.032079769456594  0.534320259816127  1.0000
  C   C10       1.0  0.2249331573548616  0.46791242064112043  0.0343213429564031  1.0000
  C   C11       1.0  0.7250038953366628  0.967909821265657  0.4656889422778931  1.0000
  C   C12       1.0  0.7749189585901418  0.532056950557788  0.9657044824482384  1.0000
  C   C13       1.0  0.3772083180271437  0.013035111672707001  0.6287604839309322  1.0000
  C   C14       1.0  0.12277441154328982  0.48696420746126284  0.128766586106174  1.0000
  C   C15       1.0  0.6228343806351332  0.9869771508904179  0.3712335398946962  1.0000
  C   C16       1.0  0.8771967047295776  0.5130126261168898  0.8712267149759609  1.0000
  O   O1        1.0  0.9742423342457017  0.1921962771384003  0.6163980140678474  1.0000
  O   O2        1.0  0.5257168360256159  0.30778232854756743  0.11639563847820968  1.0000
  O   O3        1.0  0.025778415689167413  0.8077762387186029  0.3836054059311138  1.0000
  O   O4        1.0  0.47424555716578  0.692231071303219  0.8836019989737096  1.0000
  O   O5        1.0  0.9588749073493544  0.006512184832146792  0.7140783789811067  1.0000
  O   O6        1.0  0.5411669263363238  0.49346068246255487  0.2140608472572438  1.0000
  O   O7        1.0  0.04115061841763891  0.9934912471369018  0.2859149220838971  1.0000
  O   O8        1.0  0.4588659984477985  0.5065348251062647  0.785907156971973  1.0000
  O   O9        1.0  0.4304309156471716  0.1168749677153542  0.6839209809128235  1.0000
  O   O10       1.0  0.0695674459711739  0.38311844703400777  0.183923713409861  1.0000
  O   O11       1.0  0.569574826717357  0.8831492526537376  0.3160853298114077  1.0000
  O   O12       1.0  0.9304250074377194  0.6168755679849769  0.8160833202293745  1.0000
  O   O13       1.0  0.3952432485193356  0.8893444597016469  0.6490224318318595  1.0000
  O   O14       1.0  0.10476340487872449  0.6106523558621505  0.1490170519962817  1.0000
  O   O15       1.0  0.6047795835706468  0.11063223159528955  0.3509824336848126  1.0000
  O   O16       1.0  0.8952275905251527  0.3893508274072985  0.8509813083603888  1.0000
  O   O17       1.0  0.20320367853915403  0.27258122593813994  0.7834006064994269  1.0000
  O   O18       1.0  0.2968046826579069  0.22743859851995304  0.2834222963550985  1.0000
  O   O19       1.0  0.7968056041840371  0.7274380017149654  0.216586912279169  1.0000
  O   O20       1.0  0.7031977039701331  0.7725732021002188  0.7165890738153634  1.0000
  O   O21       1.0  0.1155116749481664  0.521525214546557  0.6598076137858156  1.0000
  O   O22       1.0  0.3844934933941175  0.9785093937753263  0.15981012778371445  1.0000
  O   O23       1.0  0.8845045162601222  0.4784922184842132  0.3401965287005169  1.0000
  O   O24       1.0  0.6154915358554264  0.02151098878186991  0.8401940146033836  1.0000
  O   O25       1.0  0.694242324711702  0.35192834757121016  0.6752253548455585  1.0000
  O   O26       1.0  0.8057848883408739  0.14808622623101542  0.17523286517422323  1.0000
  O   O27       1.0  0.3057751655378311  0.6480788867818604  0.3247542135713104  1.0000
  O   O28       1.0  0.1942295644918275  0.8519106494143359  0.8247611586697658  1.0000
