data_image0
_chemical_formula_structural       U2H20C14N4O14
_chemical_formula_sum              "U2 H20 C14 N4 O14"
_cell_length_a       6.928969572058886
_cell_length_b       8.173006608999648
_cell_length_c       11.125292154117105
_cell_angle_alpha    106.81442933840565
_cell_angle_beta     95.9583492627239
_cell_angle_gamma    110.78815959502678

_space_group_name_H-M_alt    "P 1"
_space_group_IT_number       1

loop_
  _space_group_symop_operation_xyz
  'x, y, z'

loop_
  _atom_site_type_symbol
  _atom_site_label
  _atom_site_symmetry_multiplicity
  _atom_site_fract_x
  _atom_site_fract_y
  _atom_site_fract_z
  _atom_site_occupancy
  U   U1        1.0  0.031257441402885874  0.14316947322247126  0.744439974125825  1.0000
  U   U2        1.0  0.9687288385304883  0.8568214667975907  0.2555608656721374  1.0000
  H   H1        1.0  0.45150181131123196  0.17299386978886125  0.13009642666332158  1.0000
  H   H2        1.0  0.5485010158961999  0.8270111435726405  0.869900421022116  1.0000
  H   H3        1.0  0.5321333716182862  0.4136911221061864  0.15401329782294934  1.0000
  H   H4        1.0  0.46787380262749406  0.5863139040810592  0.8459874346012838  1.0000
  H   H5        1.0  0.6891208466132285  0.15108408138324583  0.9710285702388786  1.0000
  H   H6        1.0  0.3108800663842715  0.8489167245736979  0.0289708477757245  1.0000
  H   H7        1.0  0.7861729801473133  0.396049438175922  0.01090614828220996  1.0000
  H   H8        1.0  0.21383229397942916  0.6039513918464647  0.9890944612277008  1.0000
  H   H9        1.0  0.8478003226671974  0.1906884963771631  0.181670577650543  1.0000
  H   H10       1.0  0.15220412799150296  0.8093137218473173  0.8183302741642605  1.0000
  H   H11       1.0  0.11270558593623993  0.35119207373198674  0.3531576720898712  1.0000
  H   H12       1.0  0.8873040587136671  0.6488087878489779  0.646842333419677  1.0000
  H   H13       1.0  0.24829440765668656  0.6402984308045916  0.5931482784604896  1.0000
  H   H14       1.0  0.7517052464230501  0.3596995839533932  0.4068495613648437  1.0000
  H   H15       1.0  0.4751697396781154  0.8358751267393102  0.6042903903829284  1.0000
  H   H16       1.0  0.5248332416143029  0.1641270709747998  0.39571305675953977  1.0000
  H   H17       1.0  0.4031067927761285  0.7250587967249017  0.35825038556900773  1.0000
  H   H18       1.0  0.5968999460199385  0.27494205006129135  0.6417485263610628  1.0000
  H   H19       1.0  0.47613272725520506  0.582813975566921  0.4283958498255912  1.0000
  H   H20       1.0  0.5238717281004597  0.4171882464041233  0.5716041042413806  1.0000
  C   C1        1.0  0.3378667242837565  0.22524436934813952  0.9689308262790701  1.0000
  C   C2        1.0  0.6621367206401486  0.7747620302464282  0.031069054870584974  1.0000
  C   C3        1.0  0.5093204190108196  0.278500449575084  0.0843745562753284  1.0000
  C   C4        1.0  0.49068594116084796  0.7215059723073903  0.9156246229581412  1.0000
  C   C5        1.0  0.718140363353804  0.2826143103730415  0.047582236208953084  1.0000
  C   C6        1.0  0.28186617908462336  0.7173893183414461  0.9524181559945575  1.0000
  C   C7        1.0  0.03674044465691396  0.4672219105821895  0.22720605269479682  1.0000
  C   C8        1.0  0.9632604683405858  0.5327788953747542  0.7727933653198065  1.0000
  C   C9        1.0  0.31838854931188365  0.734925180613345  0.5418564125697003  1.0000
  C   C10       1.0  0.6816123636856162  0.2650756253435985  0.4581430054449028  1.0000
  C   C11       1.0  0.19063723244488515  0.8494395342523046  0.5341035135615184  1.0000
  C   C12       1.0  0.8093574052134542  0.15055704023463082  0.4658972832869495  1.0000
  C   C13       1.0  0.34999443743059533  0.6309641169553827  0.4120553809602541  1.0000
  C   C14       1.0  0.6500081318969038  0.36903392009050867  0.5879417569488935  1.0000
  N   N1        1.0  0.8718334785142333  0.306463568238712  0.15728750308907993  1.0000
  N   N2        1.0  0.128169311117503  0.6935414151502498  0.8427165265790109  1.0000
  N   N3        1.0  0.15980054799524615  0.4703339930356946  0.33109241416064344  1.0000
  N   N4        1.0  0.8401995415342186  0.5296682011233428  0.6689072461588523  1.0000
  O   O1        1.0  0.21931405563381648  0.31490129891827917  0.969563594804967  1.0000
  O   O2        1.0  0.7806755796939983  0.6850938465373131  0.030437465823141024  1.0000
  O   O3        1.0  0.30669814045875654  0.08772979334078457  0.8657366637400514  1.0000
  O   O4        1.0  0.6933086645565537  0.9122808154358776  0.1342625404919174  1.0000
  O   O5        1.0  0.23564966470650012  0.2956358870447957  0.6903170604693969  1.0000
  O   O6        1.0  0.7643394928989337  0.704355045290633  0.30969025939503325  1.0000
  O   O7        1.0  0.8207368118028596  0.9809704930716732  0.7894845751340609  1.0000
  O   O8        1.0  0.1792434126337881  0.019013452282933888  0.2105116744851613  1.0000
  O   O9        1.0  0.07818525483660453  0.6150542671533114  0.19729652672132392  1.0000
  O   O10       1.0  0.921816907684736  0.3849493225094562  0.8027062649782124  1.0000
  O   O11       1.0  0.07895410210657858  0.8718308220887322  0.6169344872515267  1.0000
  O   O12       1.0  0.9210344659641548  0.12815874649304956  0.383064412661703  1.0000
  O   O13       1.0  0.2035501971255797  0.9243101478010444  0.44768111038820985  1.0000
  O   O14       1.0  0.7964408981745947  0.07568501067178349  0.5523191504078894  1.0000
