data_image0
_chemical_formula_structural       Zn2H30C64Br2N4O12
_chemical_formula_sum              "Zn2 H30 C64 Br2 N4 O12"
_cell_length_a       14.65396938100046
_cell_length_b       15.689445033518103
_cell_length_c       23.78185791336303
_cell_angle_alpha    89.83048654297431
_cell_angle_beta     105.86545681521997
_cell_angle_gamma    98.65817649763021

_space_group_name_H-M_alt    "P 1"
_space_group_IT_number       1

loop_
  _space_group_symop_operation_xyz
  'x, y, z'

loop_
  _atom_site_type_symbol
  _atom_site_label
  _atom_site_symmetry_multiplicity
  _atom_site_fract_x
  _atom_site_fract_y
  _atom_site_fract_z
  _atom_site_occupancy
  Zn  Zn1       1.0  0.5934449673451848  0.48407122066771535  0.5164253891968543  1.0000
  Zn  Zn2       1.0  0.4068367233736436  0.5165083347474139  0.48582346733210363  1.0000
  H   H1        1.0  0.6511344883809186  0.6880068998518141  0.9721381166484946  1.0000
  H   H2        1.0  0.34925100759235034  0.3120607354749652  0.030074968943011975  1.0000
  H   H3        1.0  0.8021759524997305  0.9095178116959771  0.5101561474579555  1.0000
  H   H4        1.0  0.19485879368117046  0.0905839725560966  0.4206762921983369  1.0000
  H   H5        1.0  0.6339974306132488  0.1488363076915249  0.4732983019156976  1.0000
  H   H6        1.0  0.3613647094106013  0.8513130836765656  0.43146222318824806  1.0000
  H   H7        1.0  0.9791716335292048  0.6779949170092864  0.40254028476652337  1.0000
  H   H8        1.0  0.020286066343622598  0.32165647813295106  0.5978002552852502  1.0000
  H   H9        1.0  0.7666782506697059  0.5396264470677322  0.4836361564853391  1.0000
  H   H10       1.0  0.23369015935463713  0.4623689002298903  0.5190026370679705  1.0000
  H   H11       1.0  0.6896110157601426  0.34689059467368105  0.5875868026871274  1.0000
  H   H12       1.0  0.3101079589648065  0.6520746796888306  0.41295938701383517  1.0000
  H   H13       1.0  0.8606622097433598  0.6002334986905494  0.44628652070966274  1.0000
  H   H14       1.0  0.13892426177186215  0.3998183867357171  0.5543176069249824  1.0000
  H   H15       1.0  0.6460514011357501  0.691983392767803  0.07768961498553745  1.0000
  H   H16       1.0  0.354523103611811  0.30796071768649824  0.9245741770018372  1.0000
  H   H17       1.0  0.3514964034754158  0.5365650074670543  0.1919325888334598  1.0000
  H   H18       1.0  0.362555770351406  0.5261480684103647  0.7646351051744276  1.0000
  H   H19       1.0  0.35381379543278507  0.5338469737064316  0.2981040090496805  1.0000
  H   H20       1.0  0.3602672716985324  0.5278465264920129  0.6585781967776683  1.0000
  H   H21       1.0  0.6390777260819431  0.4710599103562458  0.34342853346923613  1.0000
  H   H22       1.0  0.6462962328212141  0.46663389205530587  0.7036378339499052  1.0000
  H   H23       1.0  0.6374989035150946  0.4733259150226843  0.23734813376232472  1.0000
  H   H24       1.0  0.6488758613337492  0.4637505283316655  0.8097329286566222  1.0000
  H   H25       1.0  0.7565509465461414  0.05410219335959  0.49112417286989535  1.0000
  H   H26       1.0  0.23907496843646917  0.94587777557922  0.41397194504894225  1.0000
  H   H27       1.0  0.5391929594443495  0.221319750888938  0.48365777144539374  1.0000
  H   H28       1.0  0.45924595985474775  0.7789757673211568  0.47122446069831625  1.0000
  H   H29       1.0  0.24317474211317597  0.24903524415493913  0.44508802404458686  1.0000
  H   H30       1.0  0.7559232193851597  0.7511647972770135  0.5204125523353369  1.0000
  C   C1        1.0  0.5741259175481231  0.6636460453167601  0.5040366768152751  1.0000
  C   C2        1.0  0.42602168729231943  0.3365398012873371  0.48314675948959257  1.0000
  C   C3        1.0  0.4143325797442115  0.5226807796398844  0.2253789943084072  1.0000
  C   C4        1.0  0.42418238473131  0.5127740103008449  0.7508027574060635  1.0000
  C   C5        1.0  0.41553178412496533  0.521177899272132  0.2841051945895643  1.0000
  C   C6        1.0  0.42286145441178036  0.5135625308571364  0.6920697890142407  1.0000
  C   C7        1.0  0.49665430941241334  0.5027575130901738  0.3265938199932137  1.0000
  C   C8        1.0  0.50300537944247  0.496862384119261  0.6750673714428146  1.0000
  C   C9        1.0  0.5767987362782775  0.4856334716305498  0.3097996166575996  1.0000
  C   C10       1.0  0.5844037467674921  0.47895333531610623  0.717577823083488  1.0000
  C   C11       1.0  0.5758337624884786  0.4866912977739518  0.2511387659854734  1.0000
  C   C12       1.0  0.5858140537544967  0.47741982815860956  0.7763827879612961  1.0000
  C   C13       1.0  0.4945587651033776  0.505242318912245  0.20940065119491183  1.0000
  C   C14       1.0  0.5056770469830595  0.49463961805030715  0.7925659871905354  1.0000
  C   C15       1.0  0.6038772844641682  0.7573875153925016  0.49595442859398275  1.0000
  C   C16       1.0  0.39493293464811774  0.24263332191662806  0.4662513380519187  1.0000
  C   C17       1.0  0.7267275746228492  0.8806416875725135  0.5009747735078136  1.0000
  C   C18       1.0  0.27055930202402567  0.11937274028466051  0.4342310101549671  1.0000
  C   C19       1.0  0.7017906017237007  0.7933112700254625  0.506689055075249  1.0000
  C   C20       1.0  0.2966106323765913  0.20669557809402053  0.44776642031013136  1.0000
  C   C21       1.0  0.5334231548133203  0.8094892702441285  0.47817613343885057  1.0000
  C   C22       1.0  0.4645485984816842  0.19058530740741728  0.46900165045750003  1.0000
  C   C23       1.0  0.4975660212673814  0.5013298798577139  0.3897884111155321  1.0000
  C   C24       1.0  0.5018747744037453  0.49859448651938715  0.6117338623353349  1.0000
  C   C25       1.0  0.5565188398347798  0.8988679122485762  0.4720528978385232  1.0000
  C   C26       1.0  0.44029368411446507  0.1011865313389038  0.45556457078158996  1.0000
  C   C27       1.0  0.6558392478474458  0.9353821867453505  0.48487543768251845  1.0000
  C   C28       1.0  0.34076508793899746  0.0646453990311926  0.4387413847862902  1.0000
  C   C29       1.0  0.4838749982344338  0.9546539384024159  0.4570149802043346  1.0000
  C   C30       1.0  0.5124121046157342  0.04538652710595411  0.4616130219568859  1.0000
  C   C31       1.0  0.6121231026973177  0.07928996857232562  0.4730773513295432  1.0000
  C   C32       1.0  0.3837862680369212  0.92078055124842  0.43852459152989803  1.0000
  C   C33       1.0  0.6808781770088073  0.026519116432154995  0.4829967805747728  1.0000
  C   C34       1.0  0.31505757796368516  0.9735680068996757  0.428554456841688  1.0000
  C   C35       1.0  0.1638671304614974  0.6464677560774067  0.4184981120283524  1.0000
  C   C36       1.0  0.8358755768617454  0.35310689806190965  0.5820886183975489  1.0000
  C   C37       1.0  0.2531935496660863  0.6211081584924827  0.4309640703707914  1.0000
  C   C38       1.0  0.7466951632102049  0.3787243321092575  0.5700282866123203  1.0000
  C   C39       1.0  0.20943656345639278  0.5138553846861811  0.49067506619235957  1.0000
  C   C40       1.0  0.7907339950156992  0.4872641537280558  0.5111411778963628  1.0000
  C   C41       1.0  0.11621346836076898  0.5345862744715221  0.4804821833496646  1.0000
  C   C42       1.0  0.8836303178033375  0.46599207105252566  0.5206928041964503  1.0000
  C   C43       1.0  0.09170801403203649  0.6037871940689854  0.44274435586135036  1.0000
  C   C44       1.0  0.9080116188457337  0.39635902740104  0.5580294671980894  1.0000
  C   C45       1.0  0.45021384733817615  0.42466495235469637  0.8715976660943029  1.0000
  C   C46       1.0  0.5504481499895275  0.5752218332865624  0.1306015914330985  1.0000
  C   C47       1.0  0.0461804276760773  0.48825298021081665  0.5066298298445275  1.0000
  C   C48       1.0  0.953566151774332  0.5122242769601968  0.49440119223255163  1.0000
  C   C49       1.0  0.9317344157565157  0.5814048593079947  0.45631403917054303  1.0000
  C   C50       1.0  0.06794657560740089  0.4187879166260303  0.5444596798748265  1.0000
  C   C51       1.0  0.9978064470732019  0.6255885144599916  0.4314852820494367  1.0000
  C   C52       1.0  0.001808354890876303  0.3743831998785296  0.5691201807893336  1.0000
  C   C53       1.0  0.5612952835786443  0.5664893138087874  0.8894117425692087  1.0000
  C   C54       1.0  0.4389708275534331  0.4336225108566012  0.112659588387011  1.0000
  C   C55       1.0  0.5577575795556341  0.5672590669628975  0.951195195583658  1.0000
  C   C56       1.0  0.4427752227247834  0.43272998853624495  0.05097211182899739  1.0000
  C   C57       1.0  0.5018762608885438  0.49876012147758797  0.9714322485301423  1.0000
  C   C58       1.0  0.4988274742348364  0.501138680472927  0.030786550915145493  1.0000
  C   C59       1.0  0.44879868544433055  0.42805671554127395  0.9337157943959865  1.0000
  C   C60       1.0  0.551910959953531  0.5718479446148735  0.06850524757334853  1.0000
  C   C61       1.0  0.6089762035289181  0.6361024939770131  0.9890332475936745  1.0000
  C   C62       1.0  0.3915452924197424  0.3638849892620968  0.013174232740212198  1.0000
  C   C63       1.0  0.6061060583023729  0.6383702501977029  0.04758335490373611  1.0000
  C   C64       1.0  0.394547713957074  0.3615652178510302  0.954660372928501  1.0000
  Br  Br1       1.0  0.14099160508368408  0.7395992197516108  0.36803324228741735  1.0000
  Br  Br2       1.0  0.8584781304048902  0.25868822618339493  0.6312824071316286  1.0000
  N   N1        1.0  0.5065136557485771  0.49480055672633944  0.8535107183524957  1.0000
  N   N2        1.0  0.49392946982195685  0.5051730176260634  0.1485496178986807  1.0000
  N   N3        1.0  0.27440875414157506  0.5553197008080845  0.4667254419273377  1.0000
  N   N4        1.0  0.7258818813289449  0.4454773224493209  0.535090536106388  1.0000
  O   O1        1.0  0.6391357220932433  0.6155073878458595  0.5167633971047394  1.0000
  O   O2        1.0  0.3613402134924326  0.38485814728600337  0.4754430853385827  1.0000
  O   O3        1.0  0.4847488803753705  0.6384798240884636  0.4973029880612003  1.0000
  O   O4        1.0  0.5160500279262477  0.3616209866641072  0.5038946755341271  1.0000
  O   O5        1.0  0.5741336842275401  0.48593491770827063  0.4264286175002212  1.0000
  O   O6        1.0  0.42317004420599585  0.5082849817129756  0.5747526887026311  1.0000
  O   O7        1.0  0.42164392908365755  0.5157000276481015  0.4019282746325601  1.0000
  O   O8        1.0  0.57981226935064  0.49029173071309634  0.5998012530026458  1.0000
  O   O9        1.0  0.4052444755074518  0.3649133276859118  0.8371000584234737  1.0000
  O   O10       1.0  0.5955446530288524  0.6348245787692548  0.1651888333451907  1.0000
  O   O11       1.0  0.6081163647137657  0.6245441209542192  0.8696163626972079  1.0000
  O   O12       1.0  0.3918107792201865  0.37577699593824593  0.1324138581792198  1.0000
