data_image0
_chemical_formula_structural       Zn2H24C40Br2N2O12
_chemical_formula_sum              "Zn2 H24 C40 Br2 N2 O12"
_cell_length_a       11.071251854524832
_cell_length_b       16.409844262307164
_cell_length_c       17.808411853630247
_cell_angle_alpha    95.48912342105184
_cell_angle_beta     90.41316550696578
_cell_angle_gamma    92.20864956262993

_space_group_name_H-M_alt    "P 1"
_space_group_IT_number       1

loop_
  _space_group_symop_operation_xyz
  'x, y, z'

loop_
  _atom_site_type_symbol
  _atom_site_label
  _atom_site_symmetry_multiplicity
  _atom_site_fract_x
  _atom_site_fract_y
  _atom_site_fract_z
  _atom_site_occupancy
  Zn  Zn1       1.0  0.49512649286941024  0.41412108983148244  0.4982637177535594  1.0000
  Zn  Zn2       1.0  0.504631999621097  0.5857879421577435  0.5052252219013837  1.0000
  H   H1        1.0  0.37896166236275536  0.7127598155913262  0.4256477818393733  1.0000
  H   H2        1.0  0.38140973638967074  0.8628638016412823  0.4274839715173613  1.0000
  H   H3        1.0  0.6656255552783181  0.8696717317571159  0.5990213843551118  1.0000
  H   H4        1.0  0.648217957631161  0.721298125699427  0.5888407953301922  1.0000
  H   H5        1.0  0.3346303432213348  0.13022850305782896  0.4005409073120347  1.0000
  H   H6        1.0  0.6186146211559347  0.13613227182212026  0.5718438255677752  1.0000
  H   H7        1.0  0.6220150795680583  0.2870928002282938  0.5734633473439175  1.0000
  H   H8        1.0  0.35161673309199415  0.2788401280806596  0.4115605305047509  1.0000
  H   H9        1.0  0.5066213736536298  0.6180531917552586  0.2643999642029513  1.0000
  H   H10       1.0  0.5072583669393539  0.6108112489940609  0.1260354098606413  1.0000
  H   H11       1.0  0.49114423540545726  0.3451685963456513  0.11916036939539511  1.0000
  H   H12       1.0  0.4907945237687273  0.3559875284643823  0.2549951522335263  1.0000
  H   H13       1.0  0.5090847902917945  0.6552563649191329  0.8839099225712985  1.0000
  H   H14       1.0  0.49321666964698363  0.3894723703873736  0.8761738694958439  1.0000
  H   H15       1.0  0.4935399064980005  0.3830131239683682  0.7375746496659517  1.0000
  H   H16       1.0  0.509315926530583  0.6449219069795122  0.7480748619025732  1.0000
  H   H17       1.0  0.7803104746923708  0.6021135412636199  0.4006425490472694  1.0000
  H   H18       1.0  0.22937169655358505  0.5995873878850659  0.399967122349409  1.0000
  H   H19       1.0  0.1087784362371735  0.41111733935841244  0.5771856531129984  1.0000
  H   H20       1.0  0.8826246837681926  0.41179868500487526  0.5775315116913687  1.0000
  H   H21       1.0  0.6585112689163568  0.9690785218239882  0.5944285533051712  1.0000
  H   H22       1.0  0.34147189078424844  0.030168932608177105  0.4047696684554367  1.0000
  H   H23       1.0  0.4909114140014879  0.35290151761643784  0.030313113828213997  1.0000
  H   H24       1.0  0.5092486416404968  0.6472195074365458  0.9722692720609915  1.0000
  C   C1        1.0  0.49710861591464106  0.4928995383087056  0.35354346164090333  1.0000
  C   C2        1.0  0.26289540201926803  0.4976202029351101  0.5000608971158158  1.0000
  C   C3        1.0  0.5028364827287177  0.5093305382081468  0.6493351875979414  1.0000
  C   C4        1.0  0.7368419246657825  0.4988183952138031  0.5010049139174129  1.0000
  C   C5        1.0  0.4405997995172301  0.7508096721171004  0.4634319806313201  1.0000
  C   C6        1.0  0.44268294790574464  0.8354921445223911  0.4645554846908482  1.0000
  C   C7        1.0  0.5233367054546536  0.8842747116930171  0.5135326459177065  1.0000
  C   C8        1.0  0.5985345935316816  0.8405106411223572  0.5587519102245864  1.0000
  C   C9        1.0  0.5907297633765297  0.755648108893979  0.5543186816358059  1.0000
  C   C10       1.0  0.5330623168381906  0.9741133750887984  0.5198260855088535  1.0000
  C   C11       1.0  0.46662714141104555  0.025543164801241903  0.4798163307520226  1.0000
  C   C12       1.0  0.4015680168689642  0.1593543698460138  0.4409338028395737  1.0000
  C   C13       1.0  0.476575152917107  0.11535665031246371  0.4860672805099142  1.0000
  C   C14       1.0  0.5575560754477564  0.16397195773914322  0.5350012871834193  1.0000
  C   C15       1.0  0.5599151880018242  0.24865187154209428  0.5362854352435135  1.0000
  C   C16       1.0  0.40928209207661587  0.2442608707339745  0.4457737206327863  1.0000
  C   C17       1.0  0.4977320906353101  0.48766049758597063  0.26930894780590353  1.0000
  C   C18       1.0  0.5027978234830359  0.5586104087308288  0.23129254139104924  1.0000
  C   C19       1.0  0.5032978861763127  0.5544406539899782  0.1530462287841132  1.0000
  C   C20       1.0  0.4986913964463398  0.47823069746107905  0.10811904164015118  1.0000
  C   C21       1.0  0.49428389081676033  0.4072674257305522  0.1479112851085986  1.0000
  C   C22       1.0  0.4938339568505229  0.41166566667907745  0.22615941243287807  1.0000
  C   C23       1.0  0.49825065269159563  0.4692238145558179  0.025230386681364788  1.0000
  C   C24       1.0  0.5021381537518793  0.5309145139542437  0.9773884245957163  1.0000
  C   C25       1.0  0.5059865955089435  0.5932276357954863  0.8550315091742036  1.0000
  C   C26       1.0  0.5017175064573467  0.5220516517027748  0.8945268054060376  1.0000
  C   C27       1.0  0.49715693004846895  0.44598249329630607  0.8493423173104517  1.0000
  C   C28       1.0  0.49745903496300076  0.4422359426832473  0.771095839652446  1.0000
  C   C29       1.0  0.502345471070754  0.5134349725739329  0.7334776552442079  1.0000
  C   C30       1.0  0.5063097285822239  0.5892129883008651  0.7768513411272195  1.0000
  C   C31       1.0  0.8721756753161715  0.5002949878670293  0.4974933334538675  1.0000
  C   C32       1.0  0.937466324536743  0.55158930183638  0.4499365763793363  1.0000
  C   C33       1.0  0.9340950389573596  0.45052683630284224  0.5417649633624606  1.0000
  C   C34       1.0  0.878502612374817  0.6014001642345476  0.4011026331877687  1.0000
  C   C35       1.0  0.9434568813648028  0.6496124391203325  0.3551976745165817  1.0000
  C   C36       1.0  0.12760957611864404  0.49941169447045325  0.49696452629625304  1.0000
  C   C37       1.0  0.0610241010362955  0.45007395597647815  0.5415684502115496  1.0000
  C   C38       1.0  0.067158016816613  0.5510046931374575  0.4497156760874432  1.0000
  C   C39       1.0  0.13125740988107992  0.6002792335672282  0.40080874560528906  1.0000
  C   C40       1.0  0.07155567492579712  0.6491580971957237  0.35526284410532577  1.0000
  Br  Br1       1.0  0.8572531720263047  0.7152763565730639  0.2925104820554623  1.0000
  Br  Br2       1.0  0.16561757730314505  0.7149787789216406  0.2933562142346133  1.0000
  N   N1        1.0  0.5125993505732751  0.7109846102840224  0.5075437399207132  1.0000
  N   N2        1.0  0.4874380238448098  0.2886981283910898  0.49268933558423816  1.0000
  O   O1        1.0  0.4933683495470406  0.4256060987508549  0.3841906116269413  1.0000
  O   O2        1.0  0.5005869037552914  0.5644123710510557  0.3888263846455331  1.0000
  O   O3        1.0  0.3207776279432366  0.5665633359865295  0.5047035169133096  1.0000
  O   O4        1.0  0.3087397203225919  0.42763341341186134  0.49849229045869237  1.0000
  O   O5        1.0  0.5078639243025194  0.577206386765255  0.6198857857754163  1.0000
  O   O6        1.0  0.4980259401113544  0.43814812623040933  0.6133702571744877  1.0000
  O   O7        1.0  0.6827701443423564  0.42898958868563153  0.5005237140166159  1.0000
  O   O8        1.0  0.687075000597986  0.5678047002527721  0.5046085186269522  1.0000
  O   O9        1.0  0.6166112788531565  0.011100899190104502  0.570777583331143  1.0000
  O   O10       1.0  0.38293302659849365  0.9884508596987093  0.4290861857617827  1.0000
  O   O11       1.0  0.4933233515116982  0.3900757470502897  0.9909528480222746  1.0000
  O   O12       1.0  0.5070771872452228  0.6100336814768  0.011624207503039902  1.0000
