data_image0
_chemical_formula_structural       Sm4H48C56N8O32
_chemical_formula_sum              "Sm4 H48 C56 N8 O32"
_cell_length_a       11.096363383869287
_cell_length_b       11.19044434985522
_cell_length_c       16.11296191515823
_cell_angle_alpha    73.9856543255778
_cell_angle_beta     82.9862465925197
_cell_angle_gamma    74.33715278291066

_space_group_name_H-M_alt    "P 1"
_space_group_IT_number       1

loop_
  _space_group_symop_operation_xyz
  'x, y, z'

loop_
  _atom_site_type_symbol
  _atom_site_label
  _atom_site_symmetry_multiplicity
  _atom_site_fract_x
  _atom_site_fract_y
  _atom_site_fract_z
  _atom_site_occupancy
  Sm  Sm1       1.0  0.5991087206863527  0.8413200679749053  0.3827951835486869  1.0000
  Sm  Sm2       1.0  0.40088748527060153  0.15868205459089066  0.6172052110529547  1.0000
  Sm  Sm3       1.0  0.795873022412117  0.9978865694400981  0.1317560924983852  1.0000
  Sm  Sm4       1.0  0.2041249950575548  0.002115562627970701  0.8682429052481664  1.0000
  H   H1        1.0  0.6572913897953684  0.9602898057135358  0.9374204408606059  1.0000
  H   H2        1.0  0.34270706640151627  0.03971044952461968  0.06257638362423278  1.0000
  H   H3        1.0  0.2163892576840568  0.8273621137375429  0.5744875762286978  1.0000
  H   H4        1.0  0.783612602839348  0.17263525607668836  0.4255088714652757  1.0000
  H   H5        1.0  0.16950144737601383  0.837341013069434  0.3100365620742095  1.0000
  H   H6        1.0  0.8304956468978448  0.16265732417435425  0.6899613528981374  1.0000
  H   H7        1.0  0.704179322949784  0.3808186704666666  0.7827453068893887  1.0000
  H   H8        1.0  0.2958198588042719  0.6191862546863831  0.21725742078876914  1.0000
  H   H9        1.0  0.5387418106226959  0.4365669848964587  0.7950304518700901  1.0000
  H   H10       1.0  0.46125577174058935  0.5634370134474692  0.204971341436213  1.0000
  H   H11       1.0  0.6048184684779515  0.28674204740872966  0.768630665110919  1.0000
  H   H12       1.0  0.3951825139263435  0.713262918908768  0.23136879881801056  1.0000
  H   H13       1.0  0.7174388119550984  0.816157982898737  0.5672329132230445  1.0000
  H   H14       1.0  0.282557386760196  0.18384416077516616  0.4327662367825126  1.0000
  H   H15       1.0  0.5694701875319981  0.8583132695278903  0.5682061091109318  1.0000
  H   H16       1.0  0.43052555863746284  0.1416869503487348  0.4317940552526308  1.0000
  H   H17       1.0  0.596997375976386  0.13197365711884854  0.3521792923616757  1.0000
  H   H18       1.0  0.4030033732456745  0.8680284469864074  0.6478200992944066  1.0000
  H   H19       1.0  0.6076788100949885  0.0647375143655324  0.45313541865155565  1.0000
  H   H20       1.0  0.39231853117973264  0.9352674857176951  0.5468637274973458  1.0000
  H   H21       1.0  0.639578445093733  0.5633758273069701  0.5161112563526089  1.0000
  H   H22       1.0  0.3604277574353035  0.4366224096914023  0.4838883865168737  1.0000
  H   H23       1.0  0.6379005306986586  0.5709205866088779  0.41617413292350847  1.0000
  H   H24       1.0  0.36209839319205644  0.4290777073669003  0.5838254966839571  1.0000
  H   H25       1.0  0.8531717812776096  0.8560499673702465  0.4914484271991525  1.0000
  H   H26       1.0  0.1468305351150221  0.1439301120241367  0.5085536575791352  1.0000
  H   H27       1.0  0.8630654932559665  0.27933571019101316  0.09507161014519022  1.0000
  H   H28       1.0  0.1369411973625035  0.7206681879074991  0.9049319110582484  1.0000
  H   H29       1.0  0.6630989061115004  0.46610448570925184  0.28933409579727254  1.0000
  H   H30       1.0  0.3369080038705762  0.533898473974304  0.7106683387753134  1.0000
  H   H31       1.0  0.6341749358902649  0.8952515694726769  0.689512438566737  1.0000
  H   H32       1.0  0.36582374262637535  0.10475157963988829  0.3104825912968251  1.0000
  H   H33       1.0  0.8879765704396761  0.6601994982652782  0.08714245151195844  1.0000
  H   H34       1.0  0.11202875034943104  0.3398063457904144  0.9128595852944411  1.0000
  H   H35       1.0  0.9942008222536531  0.8659443874117088  0.7791360833887494  1.0000
  H   H36       1.0  0.005797641849568408  0.1340520038749062  0.22086331598064385  1.0000
  H   H37       1.0  0.8656460116853211  0.2182519856467025  0.8371597600286049  1.0000
  H   H38       1.0  0.13435381862642978  0.7817424702367929  0.16284050143978132  1.0000
  H   H39       1.0  0.9227201314275889  0.19782511388409327  0.9402975515515236  1.0000
  H   H40       1.0  0.0772792470030055  0.8021635753586835  0.059705054563330896  1.0000
  H   H41       1.0  0.8551663838623612  0.3541894627016475  0.8772621388173859  1.0000
  H   H42       1.0  0.14483754803114132  0.6458030192618551  0.12274000095757738  1.0000
  H   H43       1.0  0.4327961108464748  0.36730359687928177  0.934084756702411  1.0000
  H   H44       1.0  0.5672016800179379  0.6326994947118576  0.06591408307890843  1.0000
  H   H45       1.0  0.5121230372117226  0.22337926759623628  0.009132165548976376  1.0000
  H   H46       1.0  0.48787202552113496  0.7766238414036549  0.9908669026208514  1.0000
  H   H47       1.0  0.4609356403573556  0.2144211283574363  0.9110184465564968  1.0000
  H   H48       1.0  0.5390610181454392  0.7855829180056373  0.08898093368713945  1.0000
  C   C1        1.0  0.7073566864146131  0.24578196968993635  0.24023887712259298  1.0000
  C   C2        1.0  0.2926483896651036  0.7542248866591095  0.7597598902283591  1.0000
  C   C3        1.0  0.7582362184894933  0.36039598008937895  0.19746876031843635  1.0000
  C   C4        1.0  0.2417693216632131  0.6396089255513572  0.8025321898571106  1.0000
  C   C5        1.0  0.9092488029814804  0.9196999709759976  0.9345259476390522  1.0000
  C   C6        1.0  0.09074603381078822  0.08030025470354468  0.06547429285401309  1.0000
  C   C7        1.0  0.49079165207483333  0.9777646243923424  0.8202917129086629  1.0000
  C   C8        1.0  0.5092075049981164  0.0222365317956843  0.17970798897165705  1.0000
  C   C9        1.0  0.6307074768140098  0.9338544714299029  0.8137925918869937  1.0000
  C   C10       1.0  0.36929007658266494  0.0661496113464821  0.1862042230349771  1.0000
  C   C11       1.0  0.7028510342854305  0.9355753595444085  0.8784010608841866  1.0000
  C   C12       1.0  0.2971462859290028  0.0644258610197355  0.12159568176492995  1.0000
  C   C13       1.0  0.8339639736320308  0.9101328758903052  0.8660125134682344  1.0000
  C   C14       1.0  0.16603358405014756  0.08986735348859297  0.1339862540402379  1.0000
  C   C15       1.0  0.34009523747793224  0.8353135225409504  0.4157474560963975  1.0000
  C   C16       1.0  0.6599041287608215  0.16468288405085468  0.584250622547401  1.0000
  C   C17       1.0  0.207355666832413  0.8292999617877966  0.44014280214349094  1.0000
  C   C18       1.0  0.7926452843138067  0.17069741382935885  0.5598537216799853  1.0000
  C   C19       1.0  0.1574263656274156  0.829777008780766  0.5243407161543914  1.0000
  C   C20       1.0  0.8425736804271153  0.17021651924182624  0.4756578363850961  1.0000
  C   C21       1.0  0.13064395112265723  0.8340928954572815  0.3758245743963613  1.0000
  C   C22       1.0  0.869354049572238  0.16590160369421614  0.6241739724369066  1.0000
  C   C23       1.0  0.6175471607981677  0.3507947405232698  0.8060741737492803  1.0000
  C   C24       1.0  0.3824515503059089  0.6492083136027772  0.1939264567966674  1.0000
  C   C25       1.0  0.7735111224832071  0.5745596122977118  0.1928372352095806  1.0000
  C   C26       1.0  0.22649307747143876  0.4254433120243134  0.8071685392417222  1.0000
  C   C27       1.0  0.7363150701298196  0.6910376103959308  0.22761658262368906  1.0000
  C   C28       1.0  0.2636831775659445  0.30896355159500627  0.7723831953861333  1.0000
  C   C29       1.0  0.953427474131715  0.8431369383671377  0.4790161482141712  1.0000
  C   C30       1.0  0.0465741611157853  0.15685370528331077  0.5209828020914954  1.0000
  C   C31       1.0  0.8377929334172693  0.3613235346368171  0.12317873255393146  1.0000
  C   C32       1.0  0.16221216143125622  0.6386794260985197  0.8768244765757058  1.0000
  C   C33       1.0  0.7265521068613768  0.4669343265842869  0.23219698836965813  1.0000
  C   C34       1.0  0.2734545765154337  0.5330695926223469  0.767805288237696  1.0000
  C   C35       1.0  0.002733526663725291  0.8426278695523802  0.3952990492289246  1.0000
  C   C36       1.0  0.9972660668449649  0.15736373467292705  0.6047005176685615  1.0000
  C   C37       1.0  0.8209222779523845  0.8715009439587644  0.727004676815241  1.0000
  C   C38       1.0  0.17907845745104825  0.12849735951929378  0.27299355593713404  1.0000
  C   C39       1.0  0.9131695763760419  0.8599532898934256  0.3276019479325996  1.0000
  C   C40       1.0  0.08682776393656158  0.1400363493701491  0.6724018970721202  1.0000
  C   C41       1.0  0.029734866924378912  0.8351475101345828  0.544408322693897  1.0000
  C   C42       1.0  0.9702658661875817  0.16484311821067618  0.4555919483373643  1.0000
  C   C43       1.0  0.6902475238492445  0.8981166852935231  0.7395055370640548  1.0000
  C   C44       1.0  0.30975048275794853  0.10188547843671357  0.2604915937883661  1.0000
  C   C45       1.0  0.8869084452653766  0.4677493031257355  0.08485358242516128  1.0000
  C   C46       1.0  0.11309984112303083  0.5322555323359595  0.9151502508520859  1.0000
  C   C47       1.0  0.8535388273554221  0.5755337374820542  0.11890825556780266  1.0000
  C   C48       1.0  0.14646786688386731  0.4244701500624046  0.8810958879336821  1.0000
  C   C49       1.0  0.8931473818927955  0.8804567422058012  0.7900423134987875  1.0000
  C   C50       1.0  0.10684948939663032  0.11954254400700391  0.20995606580637363  1.0000
  C   C51       1.0  0.8490842908409776  0.25366314951526187  0.8956992306138858  1.0000
  C   C52       1.0  0.15091531286551435  0.7463322658913041  0.1043008728892758  1.0000
  C   C53       1.0  0.7251140489235723  0.2416560385734171  0.942388497162774  1.0000
  C   C54       1.0  0.2748864605392854  0.7583393815842853  0.05761090791283148  1.0000
  C   C55       1.0  0.49910029574736126  0.2727076385237907  0.940991464886366  1.0000
  C   C56       1.0  0.5008947706063227  0.7272954599220468  0.05900822558150762  1.0000
  N   N1        1.0  0.9677873676927297  0.45881395164271754  0.010729816367415912  1.0000
  N   N2        1.0  0.03222113443845134  0.5411899559580744  0.9892723079809326  1.0000
  N   N3        1.0  0.9841762874086372  0.8448014826368462  0.6289405435997323  1.0000
  N   N4        1.0  0.01582513933772843  0.15519006776639796  0.37106136023092506  1.0000
  N   N5        1.0  0.8691193875696616  0.8468351304472532  0.6459382010151626  1.0000
  N   N6        1.0  0.13087975568465993  0.15316222511356867  0.3540603419614499  1.0000
  N   N7        1.0  0.6198295492152115  0.2881370490996317  0.8983234269843905  1.0000
  N   N8        1.0  0.3801714338537679  0.7118640743744392  0.10167736723300179  1.0000
  O   O1        1.0  0.750105057405847  0.14511651136538006  0.212828258943773  1.0000
  O   O2        1.0  0.2498893212257159  0.8548933296012179  0.7871683827438644  1.0000
  O   O3        1.0  0.8543365611645298  0.9197714906334087  0.00868279728395288  1.0000
  O   O4        1.0  0.14565826542993682  0.08022492386487558  0.991316906603451  1.0000
  O   O5        1.0  0.02174507004929186  0.9258854059975691  0.9153370931398753  1.0000
  O   O6        1.0  0.9782479720050362  0.0741224430962646  0.08466499512157095  1.0000
  O   O7        1.0  0.434243771137247  0.0145904464505975  0.7492574876661988  1.0000
  O   O8        1.0  0.5657517760642108  0.9854183342035012  0.2507448365395532  1.0000
  O   O9        1.0  0.43174343838616386  0.9777644350248874  0.8924130855205871  1.0000
  O   O10       1.0  0.5682566461681092  0.022236662589932597  0.10758965172043836  1.0000
  O   O11       1.0  0.3945671109008659  0.8824493565027821  0.46096278941152485  1.0000
  O   O12       1.0  0.6054302135990782  0.11754801066387437  0.5390359058241001  1.0000
  O   O13       1.0  0.39760085465023565  0.7988238613654984  0.3507119018289869  1.0000
  O   O14       1.0  0.6024007907950661  0.20117059346620883  0.649287585082348  1.0000
  O   O15       1.0  0.9466014615270242  0.8927395845273833  0.24848779903847884  1.0000
  O   O16       1.0  0.05339315294549611  0.1072577472777496  0.7515142360758629  1.0000
  O   O17       1.0  0.645662205272103  0.810652174131704  0.5396050234581222  1.0000
  O   O18       1.0  0.354332853839928  0.1893509454222482  0.4603934224136664  1.0000
  O   O19       1.0  0.5740163951005145  0.056442089119443  0.400868543874985  1.0000
  O   O20       1.0  0.425983444744361  0.9435600207887305  0.5991309239106001  1.0000
  O   O21       1.0  0.6703762307917956  0.68476921149891  0.29896128809274086  1.0000
  O   O22       1.0  0.32961495267906565  0.31523876529539047  0.7010341071492403  1.0000
  O   O23       1.0  0.6008091786853386  0.6133594473982171  0.46231411387903876  1.0000
  O   O24       1.0  0.399197257025932  0.386641651812397  0.5376856012632911  1.0000
  O   O25       1.0  0.7718219882339526  0.7891051926847156  0.18389073590162028  1.0000
  O   O26       1.0  0.2281771717951458  0.21089979579267043  0.8161082579882758  1.0000
  O   O27       1.0  0.6261006895251314  0.2547782533950168  0.3021819191335382  1.0000
  O   O28       1.0  0.3739057642902709  0.7452227930453145  0.6978209074990075  1.0000
  O   O29       1.0  0.8049858113480188  0.8428943533156995  0.356364723241846  1.0000
  O   O30       1.0  0.19501447579507675  0.15709817296758635  0.6436364764550432  1.0000
  O   O31       1.0  0.7204170827513966  0.18933251725824354  0.022594105560585775  1.0000
  O   O32       1.0  0.27957979577968245  0.81066674784644  0.9774055183406601  1.0000
