data_image0
_chemical_formula_structural       Al6H71C95N5O28
_chemical_formula_sum              "Al6 H71 C95 N5 O28"
_cell_length_a       12.80310831537356
_cell_length_b       12.862899901102738
_cell_length_c       27.708394583658254
_cell_angle_alpha    88.71074335211048
_cell_angle_beta     89.23834480447888
_cell_angle_gamma    60.35352529734944

_space_group_name_H-M_alt    "P 1"
_space_group_IT_number       1

loop_
  _space_group_symop_operation_xyz
  'x, y, z'

loop_
  _atom_site_type_symbol
  _atom_site_label
  _atom_site_symmetry_multiplicity
  _atom_site_fract_x
  _atom_site_fract_y
  _atom_site_fract_z
  _atom_site_occupancy
  Al  Al1       1.0  0.5801848038952997  0.8189982174446869  0.5019532108033856  1.0000
  Al  Al2       1.0  0.33738289297463797  0.0728749373741024  0.500542919166584  1.0000
  Al  Al3       1.0  0.5705202569255049  0.073487768921872  0.4997896811285327  1.0000
  Al  Al4       1.0  0.1002541662067101  0.8358252400332589  0.015119313272208496  1.0000
  Al  Al5       1.0  0.08914646505085944  0.5927773688118947  0.014286893946653795  1.0000
  Al  Al6       1.0  0.3318973947765613  0.5756777691406542  0.015529422453845093  1.0000
  H   H1        1.0  0.12633166208483002  0.42872048314252703  0.7816080813252453  1.0000
  H   H2        1.0  0.24713731403288366  0.20186730768602248  0.7387928919578569  1.0000
  H   H3        1.0  0.44263103186870717  0.13321672496549303  0.8032241645572638  1.0000
  H   H4        1.0  0.5518176873128552  0.21774906968564528  0.7344252361773369  1.0000
  H   H5        1.0  0.4349307907845412  0.44158768560855327  0.7762306354558743  1.0000
  H   H6        1.0  0.8731616451179887  0.9887830203229627  0.7856905152364602  1.0000
  H   H7        1.0  0.9970044621132171  0.8093524129520449  0.7153668405272382  1.0000
  H   H8        1.0  0.6520256552673018  0.0410257824896121  0.7422584620647185  1.0000
  H   H9        1.0  0.6394586758929321  0.8718624856060301  0.805563835912842  1.0000
  H   H10       1.0  0.7624027654295418  0.6925091441135721  0.7350562554662403  1.0000
  H   H11       1.0  0.9838425983906802  0.6388445522932996  0.7783043710819155  1.0000
  H   H12       1.0  0.5448897192554154  0.7738320873008676  0.7877693855449763  1.0000
  H   H13       1.0  0.40242565808379976  0.9923777377062494  0.7372157932868575  1.0000
  H   H14       1.0  0.12954872232830175  0.9228644887513442  0.7361536689308534  1.0000
  H   H15       1.0  0.19776547285377422  0.24598375985932106  0.38011308607114797  1.0000
  H   H16       1.0  0.4736593056619185  0.28466813599280977  0.1254032269979746  1.0000
  H   H17       1.0  0.17406265867549553  0.2834042956080509  0.29129918994738085  1.0000
  H   H18       1.0  0.1229907653574784  0.4462616433283982  0.23571255799156884  1.0000
  H   H19       1.0  0.0924216961356664  0.4977854881802342  0.14802608835090328  1.0000
  H   H20       1.0  0.4766476985603773  0.3429197994438056  0.2893045101424079  1.0000
  H   H21       1.0  0.500089704390021  0.3044279559593051  0.3778115679468284  1.0000
  H   H22       1.0  0.7805737026254322  0.702356720494869  0.22026000549528382  1.0000
  H   H23       1.0  0.8359130886974953  0.6793622763086375  0.13313035582248736  1.0000
  H   H24       1.0  0.8246088202482867  0.9873876422489899  0.28250212569462  1.0000
  H   H25       1.0  0.9901167222834883  0.8764760940280212  0.24101304249571595  1.0000
  H   H26       1.0  0.03308522395740684  0.86465588229882  0.15304036166985915  1.0000
  H   H27       1.0  0.7840719306502066  0.7020109630907427  0.3912316957600338  1.0000
  H   H28       1.0  0.5073026591217912  0.6995128243860478  0.3846891236017313  1.0000
  H   H29       1.0  0.1691460179884387  0.9634593269125276  0.21790431333563015  1.0000
  H   H30       1.0  0.1640019044283108  0.9187414262217359  0.13175709811666536  1.0000
  H   H31       1.0  0.49634653096091336  0.6604951988818755  0.2979048277496402  1.0000
  H   H32       1.0  0.5359029903337315  0.6760586527696901  0.22500447824152295  1.0000
  H   H33       1.0  0.2177851955335228  0.027687923226082496  0.277164276879219  1.0000
  H   H34       1.0  0.22257031471015407  0.0608615773759738  0.3646794617367987  1.0000
  H   H35       1.0  0.6508512403528499  0.5578043623662479  0.7624464469066935  1.0000
  H   H36       1.0  0.5457699619099969  0.5153463203835571  0.7822358845878838  1.0000
  H   H37       1.0  0.6387180992172714  0.4446366475625183  0.7316439630311603  1.0000
  H   H38       1.0  0.43857754188889697  0.591986046745923  0.6989818517371942  1.0000
  H   H39       1.0  0.5393081754222351  0.644342042882428  0.685611632658549  1.0000
  H   H40       1.0  0.11419101240193187  0.1191685281614312  0.7851276905732473  1.0000
  H   H41       1.0  0.13860274167944203  0.17958310069679576  0.8625986569078278  1.0000
  H   H42       1.0  0.2771542188293026  0.1376233974355259  0.8321214091455005  1.0000
  H   H43       1.0  0.26423948281703963  0.0359444941851734  0.8733074856477712  1.0000
  H   H44       1.0  0.3301951519300558  0.6107399597586323  0.8028489165227837  1.0000
  H   H45       1.0  0.13190374640748792  0.6642158742037766  0.8253427011641106  1.0000
  H   H46       1.0  0.07965613308232385  0.80706050938317  0.7971330891928898  1.0000
  H   H47       1.0  0.1645950345169992  0.7708142559306665  0.8511867051289811  1.0000
  H   H48       1.0  0.232399664811787  0.6051361886657388  0.7265436307324648  1.0000
  H   H49       1.0  0.11558056233531745  0.6484951524717103  0.6535376381462328  1.0000
  H   H50       1.0  0.05588416291570299  0.5802611460849292  0.6938242895014284  1.0000
  H   H51       1.0  0.16226104770121447  0.4946210745663038  0.6485214917928771  1.0000
  H   H52       1.0  0.5888688009642352  0.1720169718410887  0.18561272914252663  1.0000
  H   H53       1.0  0.6402861324856062  0.0180740911908757  0.23608920741997957  1.0000
  H   H54       1.0  0.4859899291459938  0.058402033865839094  0.23137495436186126  1.0000
  H   H55       1.0  0.5370557752463299  0.1076988409607935  0.28087262688283227  1.0000
  H   H56       1.0  0.8481819315233636  0.1284823104385708  0.31728827605312654  1.0000
  H   H57       1.0  0.6968174219367923  0.17939717601139193  0.3004134420711181  1.0000
  H   H58       1.0  0.7295143890008973  0.25258891550108586  0.346470128903448  1.0000
  H   H59       1.0  0.6559226798172444  0.12751520912194536  0.38544604901920093  1.0000
  H   H60       1.0  0.8048272648817656  0.07437589227529172  0.400803843664704  1.0000
  H   H61       1.0  0.924331198001724  0.5873449904931788  0.2743850288853906  1.0000
  H   H62       1.0  0.9227360936515081  0.43520465763222654  0.3185732822099183  1.0000
  H   H63       1.0  0.8044304694859077  0.5380350988662528  0.35588659350312196  1.0000
  H   H64       1.0  0.9544663607725423  0.5053182668477731  0.36690119231930396  1.0000
  H   H65       1.0  0.5635768184175874  0.459815261379674  0.18901071308196285  1.0000
  H   H66       1.0  0.49015072610216476  0.46977828532565274  0.13368434996235115  1.0000
  H   H67       1.0  0.649797338863223  0.3973959766835691  0.13573569875740074  1.0000
  H   H68       1.0  0.5659179731269787  0.6016158596481347  0.09816712524934697  1.0000
  H   H69       1.0  0.6388057874934743  0.5928439011521718  0.1532171164939982  1.0000
  H   H70       1.0  0.6968013378652883  0.6221059002531747  0.5313368435848389  1.0000
  H   H71       1.0  0.010542565474985102  0.033551228857781695  0.9856697576703579  1.0000
  C   C1        1.0  0.36824570021961006  0.9036441726481358  0.5699735064712426  1.0000
  C   C2        1.0  0.38642618982650123  0.20712884225676476  0.5683831126272734  1.0000
  C   C3        1.0  0.7048226295147728  0.9034619506760392  0.5700974371337608  1.0000
  C   C4        1.0  0.378951370119623  0.9058902801921603  0.43085335366752986  1.0000
  C   C5        1.0  0.38114580849046575  0.22039501971206474  0.43442834316763873  1.0000
  C   C6        1.0  0.7074668850163162  0.9025637303973822  0.4323987274966469  1.0000
  C   C7        1.0  0.2838723325934538  0.4304122999215494  0.7327349456602473  1.0000
  C   C8        1.0  0.2207236918817656  0.38228070123232527  0.7704439664614497  1.0000
  C   C9        1.0  0.303942367437024  0.39881112251396184  0.8988968577815438  1.0000
  C   C10       1.0  0.3667662294468528  0.2538959227433181  0.6161231489986746  1.0000
  C   C11       1.0  0.39144890445520286  0.38961682478294085  0.7679193255012038  1.0000
  C   C12       1.0  0.3288028539659321  0.3457239955871003  0.8065060356170334  1.0000
  C   C13       1.0  0.4573635610364803  0.26375464282773453  0.7452015002180941  1.0000
  C   C14       1.0  0.35020021669186013  0.29936126794660817  0.7088664253868514  1.0000
  C   C15       1.0  0.39668924127828825  0.21731395421468136  0.7825613272557774  1.0000
  C   C16       1.0  0.28798742828162455  0.25609861164272735  0.7477136052307852  1.0000
  C   C17       1.0  0.317270321406866  0.3714562629891276  0.8564213117818724  1.0000
  C   C18       1.0  0.3598531566324112  0.2754979562911331  0.6590941909789763  1.0000
  C   C19       1.0  0.9180689612606794  0.8231727776305675  0.7360737665830752  1.0000
  C   C20       1.0  0.8487079386584072  0.9230824757135564  0.7739050679098937  1.0000
  C   C21       1.0  0.8983891068646201  0.7956305965646135  0.901121933456636  1.0000
  C   C22       1.0  0.7510840586416522  0.8828703644235317  0.6184942965369371  1.0000
  C   C23       1.0  0.9099671566465091  0.7283913381086079  0.7697498711237996  1.0000
  C   C24       1.0  0.8417223338282227  0.8279449799273592  0.809006091932602  1.0000
  C   C25       1.0  0.787344218655633  0.7578882276314758  0.7467974241467344  1.0000
  C   C26       1.0  0.7948587416393663  0.8529102440651429  0.7117517306441952  1.0000
  C   C27       1.0  0.7184550160303119  0.8575981125978912  0.7847807676229548  1.0000
  C   C28       1.0  0.7263189181000981  0.9520479029905359  0.7508978127397368  1.0000
  C   C29       1.0  0.8688524928183695  0.8119769412144963  0.8587976839141405  1.0000
  C   C30       1.0  0.7720762523318925  0.8681726951529497  0.6616270978303689  1.0000
  C   C31       1.0  0.4121794974526267  0.7408424027052618  0.7404608706978237  1.0000
  C   C32       1.0  0.45251592629220033  0.807555481203714  0.7758151738460197  1.0000
  C   C33       1.0  0.34894447475549123  0.7779558186700016  0.9034118729915475  1.0000
  C   C34       1.0  0.335764883285435  0.8894960550840665  0.6185594219080739  1.0000
  C   C35       1.0  0.30222608233008685  0.7669056600083906  0.7741256496641707  1.0000
  C   C36       1.0  0.347374402763009  0.8325123001518904  0.8116893765200074  1.0000
  C   C37       1.0  0.22232220343418163  0.8889601800214777  0.7478562231694565  1.0000
  C   C38       1.0  0.3295323741928513  0.8645564886619044  0.7128355095569532  1.0000
  C   C39       1.0  0.2618553215616826  0.9544831489348764  0.7838085050705174  1.0000
  C   C40       1.0  0.3732846251997587  0.9289739683899824  0.7489575868177026  1.0000
  C   C41       1.0  0.35273091297217696  0.8063551997304048  0.8612886075587978  1.0000
  C   C42       1.0  0.3271762221503067  0.8803839489720886  0.6621565274640272  1.0000
  C   C43       1.0  0.35227928822242655  0.2694393224093332  0.3843985921843965  1.0000
  C   C44       1.0  0.25740675899653104  0.2687918586330936  0.3599038574628962  1.0000
  C   C45       1.0  0.2445708870697416  0.29002177828746056  0.31030372988297467  1.0000
  C   C46       1.0  0.32540582065492873  0.31318732538482413  0.2836634573779619  1.0000
  C   C47       1.0  0.41519466373808456  0.3218861355180138  0.30915896663187675  1.0000
  C   C48       1.0  0.42862043214033446  0.30024184172031443  0.35865857389560307  1.0000
  C   C49       1.0  0.4144907089954372  0.28087307412084067  0.19856805058005014  1.0000
  C   C50       1.0  0.3967143761949572  0.3190289162286247  0.14990348463871325  1.0000
  C   C51       1.0  0.18167321836182282  0.4378298704774437  0.1622973285446179  1.0000
  C   C52       1.0  0.19947652486091974  0.40711196267102423  0.21101926880164967  1.0000
  C   C53       1.0  0.31408241341623727  0.3316109769181566  0.23063520127011114  1.0000
  C   C54       1.0  0.28237648048268943  0.39608326347514117  0.13172116586599  1.0000
  C   C55       1.0  0.7637218361986767  0.8759954204905825  0.3836332176330258  1.0000
  C   C56       1.0  0.7773716562901994  0.9599349422222118  0.3541162594303982  1.0000
  C   C57       1.0  0.8180668443570409  0.9238593787708066  0.30721029951380524  1.0000
  C   C58       1.0  0.8461846929546294  0.8125591987511883  0.2884670715099061  1.0000
  C   C59       1.0  0.8385813980156982  0.7270716935245076  0.31953839929303024  1.0000
  C   C60       1.0  0.7957243247326032  0.7623561616861991  0.36647779610284187  1.0000
  C   C61       1.0  0.8390755422431296  0.7349363715602664  0.2059796467521906  1.0000
  C   C62       1.0  0.8680006188139442  0.7237439870014698  0.15701042202161367  1.0000
  C   C63       1.0  0.9783748565016238  0.829031600471957  0.16834512555438852  1.0000
  C   C64       1.0  0.9531354360808916  0.8363272923496653  0.21729034023164925  1.0000
  C   C65       1.0  0.8810762895013441  0.791529527315106  0.23717226271563865  1.0000
  C   C66       1.0  0.9367376272657425  0.772112830133608  0.1377281539553863  1.0000
  C   C67       1.0  0.36494962524918856  0.8821492694851257  0.3798612605970887  1.0000
  C   C68       1.0  0.44297617296676595  0.7696150664500719  0.3606474550292944  1.0000
  C   C69       1.0  0.43761888732065307  0.7494579543900101  0.3119583946551073  1.0000
  C   C70       1.0  0.35687464437209115  0.8414432601065159  0.280692584705882  1.0000
  C   C71       1.0  0.27932790709917305  0.9539376715265817  0.30057114808293045  1.0000
  C   C72       1.0  0.2821499603552268  0.9736315376352707  0.3494975763244738  1.0000
  C   C73       1.0  0.24829959994652018  0.8901919072160069  0.20137273839824127  1.0000
  C   C74       1.0  0.24402168057572746  0.8645210438272171  0.15342813171182706  1.0000
  C   C75       1.0  0.4486562268996225  0.6969855673710085  0.1573767914538919  1.0000
  C   C76       1.0  0.4516464961162256  0.7273670268942424  0.2053294306888773  1.0000
  C   C77       1.0  0.3524490877591829  0.8197762195908355  0.22886663286612924  1.0000
  C   C78       1.0  0.340749772496771  0.7657038007080955  0.13135109438655948  1.0000
  C   C79       1.0  0.9550305012091655  0.7664058596788054  0.9477055496535625  1.0000
  C   C80       1.0  0.2798052055953234  0.44912526688990795  0.9463741324311595  1.0000
  C   C81       1.0  0.30964952812245616  0.7509614707382751  0.9482001761798882  1.0000
  C   C82       1.0  0.9744660876797224  0.7596214704103518  0.08636290651110558  1.0000
  C   C83       1.0  0.2649545916444751  0.4415327775525526  0.08112851806219369  1.0000
  C   C84       1.0  0.31548806496459747  0.7372737474197777  0.08255924615408357  1.0000
  C   C85       1.0  0.4935439917119664  0.6255726905591104  0.7157285099047709  1.0000
  C   C86       1.0  0.5870846966424921  0.5306460198276568  0.7497605268385141  1.0000
  C   C87       1.0  0.2166084736905916  0.10513547325442828  0.8454430918195325  1.0000
  C   C88       1.0  0.15448731294065957  0.734504581208398  0.8170781405231718  1.0000
  C   C89       1.0  0.13766724465694585  0.566691539928243  0.6743657111008899  1.0000
  C   C90       1.0  0.5480482842229435  0.0900402893992052  0.24205669131550414  1.0000
  C   C91       1.0  0.7469585186747948  0.0834948175436168  0.3701057691164067  1.0000
  C   C92       1.0  0.756102301637604  0.16472425307998856  0.331259673632843  1.0000
  C   C93       1.0  0.8894510026169723  0.5187714918347764  0.338270776176742  1.0000
  C   C94       1.0  0.5606469325135067  0.5922212051842664  0.13739084615102828  1.0000
  C   C95       1.0  0.5665014485975491  0.472525240023046  0.14972775613702538  1.0000
  N   N1        1.0  0.1755054125890396  0.05596208022136301  0.807976650115563  1.0000
  N   N2        1.0  0.2625812314144865  0.6851177810267544  0.7864025944590336  1.0000
  N   N3        1.0  0.2392514987387742  0.536667079435105  0.7058307275746072  1.0000
  N   N4        1.0  0.5295079102422661  0.19508544428961017  0.21342227248412365  1.0000
  N   N5        1.0  0.8709797330382684  0.6134536997248929  0.3040880217472192  1.0000
  O   O1        1.0  0.684764319499159  0.8248648215087185  0.5530083685574069  1.0000
  O   O2        1.0  0.47348236375184155  0.829254743666212  0.5568043086737686  1.0000
  O   O3        1.0  0.28980533091887384  0.9936853844073995  0.5446348977239949  1.0000
  O   O4        1.0  0.3104792281659313  0.17901432943087056  0.5524054073965414  1.0000
  O   O5        1.0  0.48125723503752477  0.19181327858220953  0.5461999618064863  1.0000
  O   O6        1.0  0.6833017663787115  0.0027469252321878994  0.5493125266976192  1.0000
  O   O7        1.0  0.6781870774734954  0.8293909425569694  0.4503893507971809  1.0000
  O   O8        1.0  0.4689101397963071  0.826626281625842  0.4536737219302224  1.0000
  O   O9        1.0  0.3011174256124534  0.0085116349740204  0.4479246314368765  1.0000
  O   O10       1.0  0.3043852325917272  0.20118185704797745  0.4572545510617941  1.0000
  O   O11       1.0  0.4855728189924519  0.19110142715778983  0.4508019124927003  1.0000
  O   O12       1.0  0.6879512740366137  0.9996876206389448  0.4532885581049796  1.0000
  O   O13       1.0  0.49521786674288404  0.9904565113877265  0.5013915379533955  1.0000
  O   O14       1.0  0.20230098142622657  0.8244845687614697  0.9599838686858032  1.0000
  O   O15       1.0  0.9844476455588875  0.8375181858595937  0.9654728816839931  1.0000
  O   O16       1.0  0.9757881858050298  0.6646961681943466  0.9663129956561175  1.0000
  O   O17       1.0  0.17896539971982153  0.4752363796768364  0.9657530115213856  1.0000
  O   O18       1.0  0.3598397201438104  0.4688427355047509  0.9645944718850924  1.0000
  O   O19       1.0  0.3822879874662775  0.654179438360238  0.9714900388662709  1.0000
  O   O20       1.0  0.22463979333646455  0.8172960193935382  0.06040879128646988  1.0000
  O   O21       1.0  0.009856536030945188  0.8296863029585492  0.0702888804094925  1.0000
  O   O22       1.0  0.973533562441247  0.6756187239707501  0.06197972543122178  1.0000
  O   O23       1.0  0.1625557488848983  0.4738458797945596  0.061879210588592984  1.0000
  O   O24       1.0  0.3491024637147006  0.45242574922407647  0.06038174259780498  1.0000
  O   O25       1.0  0.3829833248777347  0.6300869608456665  0.06661610569531717  1.0000
  O   O26       1.0  0.1746004287330436  0.6655796182990414  0.014333181706035697  1.0000
  O   O27       1.0  0.6565657382564254  0.661737010392521  0.5016697854416136  1.0000
  O   O28       1.0  0.027000388757308195  0.9925738690264012  0.016643765499118494  1.0000
