data_image0
_chemical_formula_structural       Cd2H56C52N8O8
_chemical_formula_sum              "Cd2 H56 C52 N8 O8"
_cell_length_a       9.213352748033273
_cell_length_b       10.722117993843284
_cell_length_c       13.156778364025508
_cell_angle_alpha    74.7127684099105
_cell_angle_beta     73.91243938274205
_cell_angle_gamma    83.0929308015766

_space_group_name_H-M_alt    "P 1"
_space_group_IT_number       1

loop_
  _space_group_symop_operation_xyz
  'x, y, z'

loop_
  _atom_site_type_symbol
  _atom_site_label
  _atom_site_symmetry_multiplicity
  _atom_site_fract_x
  _atom_site_fract_y
  _atom_site_fract_z
  _atom_site_occupancy
  Cd  Cd1       1.0  0.1823213942614785  0.384742665531924  0.9948058483499697  1.0000
  Cd  Cd2       1.0  0.8176782599166401  0.6152584739657244  0.005193704976562703  1.0000
  H   H1        1.0  0.4278837913468577  0.6592741150633686  0.5930995180228325  1.0000
  H   H2        1.0  0.5721171191858687  0.34072507698148513  0.40690171752514476  1.0000
  H   H3        1.0  0.9036681482887302  0.11176466430666211  0.3927222285469656  1.0000
  H   H4        1.0  0.09632809682413779  0.8882364935224915  0.6072764817884819  1.0000
  H   H5        1.0  0.40049992738909873  0.6100163841707414  0.980123220268226  1.0000
  H   H6        1.0  0.5995021466223563  0.38998184392432494  0.019876467075320533  1.0000
  H   H7        1.0  0.2526864345362513  0.5084764762057646  0.7436244163937574  1.0000
  H   H8        1.0  0.7473155326261391  0.49152368809885183  0.25637488165084943  1.0000
  H   H9        1.0  0.08059361285157961  0.2694334795421015  0.24935258823472864  1.0000
  H   H10       1.0  0.919403791629648  0.7305676631942506  0.7506481739673136  1.0000
  H   H11       1.0  0.5742323333069732  0.7668876989897344  0.842644903856446  1.0000
  H   H12       1.0  0.42577203971554667  0.2331105066188428  0.1573573693320968  1.0000
  H   H13       1.0  0.3281026346597855  0.6721992684865797  0.14809825456033818  1.0000
  H   H14       1.0  0.6718971896547714  0.32779896284718296  0.8519026416587184  1.0000
  H   H15       1.0  0.20694525911117279  0.8143377739128965  0.13981417318981942  1.0000
  H   H16       1.0  0.7930532554242548  0.18566337297844632  0.860184846158319  1.0000
  H   H17       1.0  0.7924482988614372  0.9995555211995111  0.13236531123755688  1.0000
  H   H18       1.0  0.2075515155902892  0.00044271398380859943  0.8676348260374029  1.0000
  H   H19       1.0  0.27496160638182937  0.48970765348674694  0.3220481918772721  1.0000
  H   H20       1.0  0.7250369714409645  0.5102925214502607  0.6779517810644365  1.0000
  H   H21       1.0  0.11806571314723163  0.5063140198127344  0.4327267268847238  1.0000
  H   H22       1.0  0.8819328646755622  0.4936861551242657  0.567273246056992  1.0000
  H   H23       1.0  0.3332464602510115  0.9393160455552232  0.3403743906599674  1.0000
  H   H24       1.0  0.6667533443378774  0.060682193477653405  0.6596249876708955  1.0000
  H   H25       1.0  0.21272035702405395  0.9745862848391628  0.25043841839943337  1.0000
  H   H26       1.0  0.7872793604414383  0.02541388270415011  0.7495620885206764  1.0000
  H   H27       1.0  0.6958367496990974  0.8638958259080386  0.6471817903573014  1.0000
  H   H28       1.0  0.30416411151945505  0.13610338538460104  0.35281565047018415  1.0000
  H   H29       1.0  0.9724141748349312  0.164023346445731  0.9998022723031074  1.0000
  H   H30       1.0  0.02758709901554821  0.8359741657935515  0.00019893315560180693  1.0000
  H   H31       1.0  0.6656958848766621  0.8949295559887392  0.323124717975105  1.0000
  H   H32       1.0  0.33430157302910146  0.10507061864283432  0.6768762388764106  1.0000
  H   H33       1.0  0.9503899741017675  0.5431203179366478  0.3125786999743669  1.0000
  H   H34       1.0  0.04960749366683359  0.4568798528453686  0.6874230158212529  1.0000
  H   H35       1.0  0.9508965816689071  0.6852859546327253  0.20882289496102402  1.0000
  H   H36       1.0  0.04910653499901229  0.31471419842864634  0.7911776960060738  1.0000
  H   H37       1.0  0.42889754181219786  0.9416037180416412  0.08660055250887676  1.0000
  H   H38       1.0  0.5711011962841966  0.058393552581023314  0.9134000043812525  1.0000
  H   H39       1.0  0.5319621032426199  0.9438191308276134  0.18194553475106542  1.0000
  H   H40       1.0  0.4680375607983436  0.056182004820478006  0.818054777519571  1.0000
  H   H41       1.0  0.5050719546250236  0.7384451781080159  0.3532372894782228  1.0000
  H   H42       1.0  0.4949310888926918  0.2615559507572486  0.6467615889512077  1.0000
  H   H43       1.0  0.5019547677108348  0.6270872121296023  0.27570818148013393  1.0000
  H   H44       1.0  0.4980449694803326  0.3729129477145961  0.7242938433281767  1.0000
  H   H45       1.0  0.9852796227529054  0.8343917302586523  0.29569531641497093  1.0000
  H   H46       1.0  0.014721054356016295  0.16561134190443033  0.7043036226469115  1.0000
  H   H47       1.0  0.9456160459624244  0.7104908496059253  0.4174904549790454  1.0000
  H   H48       1.0  0.054385887501098296  0.2895102751043552  0.5825101663042817  1.0000
  H   H49       1.0  0.06529357323131531  0.8932668390103092  0.44278569705230825  1.0000
  H   H50       1.0  0.9347084235195735  0.10673331374562883  0.5572158778245967  1.0000
  H   H51       1.0  0.35883256257032764  0.5468136891500138  0.4691855117391768  1.0000
  H   H52       1.0  0.6411659716907678  0.45318745004220073  0.5308150254971553  1.0000
  H   H53       1.0  0.12048589487272922  0.6676688300956287  0.5451213466585758  1.0000
  H   H54       1.0  0.8795160722896611  0.3323313342089876  0.4548779513860241  1.0000
  H   H55       1.0  0.2785766495273593  0.7648477431746843  0.5103985092188811  1.0000
  H   H56       1.0  0.7214229175273701  0.23515532483340001  0.48960217269690554  1.0000
  C   C1        1.0  0.5140718422911519  0.7269554562127  0.7051394340741199  1.0000
  C   C2        1.0  0.48592769517507145  0.2730476233440697  0.29485897100936864  1.0000
  C   C3        1.0  0.42185894908167404  0.6521805753989655  0.6780844895086419  1.0000
  C   C4        1.0  0.5781406713975841  0.34782152450434733  0.3219163870566177  1.0000
  C   C5        1.0  0.9155408136151237  0.1217741559003045  0.30643315231243673  1.0000
  C   C6        1.0  0.08446005746625927  0.8782250515427777  0.6935650474591456  1.0000
  C   C7        1.0  0.13350602558500665  0.6640950576654421  0.28836923118098673  1.0000
  C   C8        1.0  0.8664936483187873  0.33590607413309215  0.7116318400337535  1.0000
  C   C9        1.0  0.40754020283970493  0.624768075622754  0.8936737437561323  1.0000
  C   C10       1.0  0.5924606246799797  0.37523209607554975  0.10632502031007365  1.0000
  C   C11       1.0  0.831461599679109  0.046005370055922916  0.27342999929493333  1.0000
  C   C12       1.0  0.16853574151475206  0.9539967446347577  0.7265698093135385  1.0000
  C   C13       1.0  0.32608925945121564  0.5683929016120857  0.7609425481418912  1.0000
  C   C14       1.0  0.6739116412186732  0.4316062942823181  0.23905792846198895  1.0000
  C   C15       1.0  0.09447466862440018  0.5298097708033396  0.15933225001259643  1.0000
  C   C16       1.0  0.9055251795261939  0.4701875039743158  0.8406665640236357  1.0000
  C   C17       1.0  0.013257328598321306  0.20806569729377597  0.22781089590868941  1.0000
  C   C18       1.0  0.98674468212576  0.7919335027556187  0.7721878378412871  1.0000
  C   C19       1.0  0.5055578401600868  0.7127043012973787  0.8156024632159674  1.0000
  C   C20       1.0  0.49444059711477445  0.2872987702548357  0.1843984436655219  1.0000
  C   C21       1.0  0.6111238356977466  0.7958954570073686  0.0946317737288851  1.0000
  C   C22       1.0  0.3888770255208057  0.2041037542852707  0.9053656670986006  1.0000
  C   C23       1.0  0.3605951486644087  0.8018234468962222  0.24122385407347488  1.0000
  C   C24       1.0  0.639404558938253  0.19817672449664775  0.7587758939025381  1.0000
  C   C25       1.0  0.258894926214758  0.7382740774198596  0.19584103529530952  1.0000
  C   C26       1.0  0.7411035883206695  0.2617270694714762  0.8041579840528287  1.0000
  C   C27       1.0  0.851944302110887  0.059880294359878426  0.16121498392607247  1.0000
  C   C28       1.0  0.14805421242453315  0.9401208525314646  0.838784035422066  1.0000
  C   C29       1.0  0.2074885955272095  0.5596107038951958  0.3663833462014453  1.0000
  C   C30       1.0  0.792510089144656  0.44038753483224735  0.6336170160392174  1.0000
  C   C31       1.0  0.2615512214306293  0.8956133663737803  0.3059130811005134  1.0000
  C   C32       1.0  0.7384485297337305  0.10438584076387512  0.694086102580869  1.0000
  C   C33       1.0  0.6159344948112847  0.8178711604044793  0.6218850434119577  1.0000
  C   C34       1.0  0.38406522265420767  0.18212900713884042  0.3781154635081451  1.0000
  C   C35       1.0  0.9525709363864862  0.14928599531391032  0.08778122370333113  1.0000
  C   C36       1.0  0.04742775814820988  0.8507122395639758  0.9122198974814284  1.0000
  C   C37       1.0  0.7276777497266878  0.9530282146566195  0.3529351841699794  1.0000
  C   C38       1.0  0.2723195577683128  0.04697486043972532  0.6470659476772128  1.0000
  C   C39       1.0  0.02580271019092348  0.6078044529935911  0.24346413417226395  1.0000
  C   C40       1.0  0.9741971675481694  0.39219281023538605  0.756536956696266  1.0000
  C   C41       1.0  0.4833546700022994  0.8799449196282086  0.14828373997241334  1.0000
  C   C42       1.0  0.5166473703102881  0.12005426887251502  0.851717270609868  1.0000
  C   C43       1.0  0.43083381048666786  0.6953427881845685  0.3203257409156351  1.0000
  C   C44       1.0  0.5691658535542884  0.30465834746352277  0.6796745713550014  1.0000
  C   C45       1.0  0.03808021856385579  0.7603933470386509  0.351767879325408  1.0000
  C   C46       1.0  0.9619205752569683  0.23960778506531008  0.6482322079795184  1.0000
  C   C47       1.0  0.13606467394384228  0.8238704713472846  0.39861756064149034  1.0000
  C   C48       1.0  0.863933787167049  0.17613164364883724  0.6013812640571745  1.0000
  C   C49       1.0  0.3062950863949965  0.6228086005737694  0.41366996474319984  1.0000
  C   C50       1.0  0.6937058142748924  0.3771905953206416  0.5863305118606805  1.0000
  C   C51       1.0  0.2087416508703299  0.7188049303383581  0.4763742583553496  1.0000
  C   C52       1.0  0.7912580033077957  0.28119620915929744  0.5236252949711899  1.0000
  N   N1        1.0  0.031234242484778508  0.22230381650643247  0.12023802454589837  1.0000
  N   N2        1.0  0.9687654651178762  0.7776963548864444  0.8797617234301076  1.0000
  N   N3        1.0  0.3194624205413207  0.5538607452051992  0.8670793825673119  1.0000
  N   N4        1.0  0.6805396337444661  0.44613749058897423  0.13291878688804112  1.0000
  N   N5        1.0  0.6111820006041242  0.8464015129119247  0.520831853554846  1.0000
  N   N6        1.0  0.3888176872728621  0.15359866618006637  0.479166376532966  1.0000
  N   N7        1.0  0.7131608179779149  0.9381339344941185  0.456041448072753  1.0000
  N   N8        1.0  0.2868365667776446  0.06186721594134782  0.5439577962410882  1.0000
  O   O1        1.0  0.2135024180892557  0.4579752663440788  0.16143298615962465  1.0000
  O   O2        1.0  0.7864985360051691  0.5420229614455536  0.838567685093729  1.0000
  O   O3        1.0  0.02305560579673478  0.53658545950173  0.08649023750224667  1.0000
  O   O4        1.0  0.976946448489052  0.4634127762924508  0.9135079319531062  1.0000
  O   O5        1.0  0.733951245666809  0.776828458001731  0.12452225337085567  1.0000
  O   O6        1.0  0.26605100259144626  0.22316591307245653  0.8754751767941972  1.0000
  O   O7        1.0  0.5885023147592535  0.74393797110033  0.023448206002086577  1.0000
  O   O8        1.0  0.4114972662686681  0.25606414420121837  0.9765496347867784  1.0000
