data_image0
_chemical_formula_structural       Ba2H24C14O10
_chemical_formula_sum              "Ba2 H24 C14 O10"
_cell_length_a       4.940713771605367
_cell_length_b       7.74355166212374
_cell_length_c       13.375841306646636
_cell_angle_alpha    105.53243187420871
_cell_angle_beta     98.72854176817057
_cell_angle_gamma    96.53579639114373

_space_group_name_H-M_alt    "P 1"
_space_group_IT_number       1

loop_
  _space_group_symop_operation_xyz
  'x, y, z'

loop_
  _atom_site_type_symbol
  _atom_site_label
  _atom_site_symmetry_multiplicity
  _atom_site_fract_x
  _atom_site_fract_y
  _atom_site_fract_z
  _atom_site_occupancy
  Ba  Ba1       1.0  0.7320061708456436  0.732233591737497  0.46437786528198893  1.0000
  Ba  Ba2       1.0  0.26798980537827083  0.26776442066582007  0.5356223208876967  1.0000
  H   H1        1.0  0.8344427567890237  0.7484833849196588  0.19802049803084285  1.0000
  H   H2        1.0  0.36314495305690997  0.44923613479521396  0.19800535507760486  1.0000
  H   H3        1.0  0.16556006027298054  0.251517337076919  0.8019790069885957  1.0000
  H   H4        1.0  0.6368554646644072  0.5507632169058851  0.8019952927237026  1.0000
  H   H5        1.0  0.9308836480974704  0.9745470796050738  0.2053446587136704  1.0000
  H   H6        1.0  0.27309526344787827  0.23071633532423155  0.20553399614392728  1.0000
  H   H7        1.0  0.06911542604113662  0.0254549980924281  0.7946563486489421  1.0000
  H   H8        1.0  0.7269085463304421  0.7692803024178189  0.7944649131633522  1.0000
  H   H9        1.0  0.31067541946686106  0.8958586243890352  0.1026268934672885  1.0000
  H   H10       1.0  0.7912058751599604  0.20713472209975944  0.10256236093782428  1.0000
  H   H11       1.0  0.6893264048788197  0.10414618186207747  0.8973732072643016  1.0000
  H   H12       1.0  0.20879489500714488  0.7928659986182252  0.897437777177778  1.0000
  H   H13       1.0  0.23117847733497146  0.6680393205254377  0.09958117301566459  1.0000
  H   H14       1.0  0.8682006137027329  0.43178703882183794  0.09933440276306976  1.0000
  H   H15       1.0  0.7688213032745993  0.33196550596461083  0.900418069138993  1.0000
  H   H16       1.0  0.1318049440899927  0.5682163471757279  0.9006686706446627  1.0000
  H   H17       1.0  0.8311767633219062  0.8786472241471514  0.9997906396638637  1.0000
  H   H18       1.0  0.1688223155548769  0.12135488582666198  0.00020813018909389763  1.0000
  H   H19       1.0  0.7460850067403442  0.6523758530181353  0.999964313769439  1.0000
  H   H20       1.0  0.25391237294915214  0.3476275924176591  3.6817003639598114e-05  1.0000
  H   H21       1.0  0.28841843271142403  0.7142442041545249  0.6355702032650752  1.0000
  H   H22       1.0  0.34735635051468705  0.9212953427508735  0.6355806118780831  1.0000
  H   H23       1.0  0.7115819865892804  0.28575515830534204  0.3644296986996735  1.0000
  H   H24       1.0  0.6526440703654189  0.0787040304677618  0.36441854425011394  1.0000
  C   C1        1.0  0.21452694128369382  0.8758409128133734  0.30369981706349586  1.0000
  C   C2        1.0  0.08831355144393167  0.4282295604293296  0.30368221107623566  1.0000
  C   C3        1.0  0.7854721344343076  0.1241611756429037  0.6963004444625652  1.0000
  C   C4        1.0  0.9116902535962127  0.5717670450364096  0.6963189357407059  1.0000
  C   C5        1.0  0.015663230616162514  0.8473766233345186  0.20015379185633003  1.0000
  C   C6        1.0  0.18368044960475058  0.3528265386112323  0.20019670884857274  1.0000
  C   C7        1.0  0.9843354942354382  0.1526241068636409  0.7998462335188845  1.0000
  C   C8        1.0  0.816320962412277  0.6471687395941073  0.7998025974040244  1.0000
  C   C9        1.0  0.1378021495671858  0.7907784362632169  0.10064153792103527  1.0000
  C   C10       1.0  0.9623485304189856  0.3100636879093628  0.100596402305797  1.0000
  C   C11       1.0  0.8621976294629904  0.2092263794680633  0.8993584500701741  1.0000
  C   C12       1.0  0.037652590614513225  0.6899383910667395  0.8994039719606517  1.0000
  C   C13       1.0  0.9212117067279452  0.7546399329002256  0.9999421323906572  1.0000
  C   C14       1.0  0.07879011761774278  0.24536487335088708  5.796834093990526e-05  1.0000
  O   O1        1.0  0.4653564217871704  0.8532704995695114  0.3021542401703527  1.0000
  O   O2        1.0  0.8359728752906861  0.44934464478471625  0.30211848521560103  1.0000
  O   O3        1.0  0.5346443468005405  0.1467302103896984  0.6978466437818013  1.0000
  O   O4        1.0  0.16402719156423015  0.5506533486582654  0.69788192643486  1.0000
  O   O5        1.0  0.12213801244331524  0.9247406851903219  0.3898286464960065  1.0000
  O   O6        1.0  0.26689376370980966  0.46546636432368155  0.3898540043869331  1.0000
  O   O7        1.0  0.8778610648540804  0.0752614140247232  0.6101708691935029  1.0000
  O   O8        1.0  0.7331059554375016  0.5345302923787187  0.6101446794395711  1.0000
  O   O9        1.0  0.29459435466750244  0.7946157973971637  0.5890614279754158  1.0000
  O   O10       1.0  0.7054036684513038  0.20538221628475378  0.4109381250980988  1.0000
