data_image0
_chemical_formula_structural       Cu24Si6H48C120N48
_chemical_formula_sum              "Cu24 Si6 H48 C120 N48"
_cell_length_a       29.212526768398796
_cell_length_b       29.226895641559448
_cell_length_c       29.223026007667915
_cell_angle_alpha    109.35061868396457
_cell_angle_beta     109.46157283924002
_cell_angle_gamma    109.58879813445432

_space_group_name_H-M_alt    "P 1"
_space_group_IT_number       1

loop_
  _space_group_symop_operation_xyz
  'x, y, z'

loop_
  _atom_site_type_symbol
  _atom_site_label
  _atom_site_symmetry_multiplicity
  _atom_site_fract_x
  _atom_site_fract_y
  _atom_site_fract_z
  _atom_site_occupancy
  Cu  Cu1       1.0  0.6169129006165049  0.5439393895457628  0.5670260726690801  1.0000
  Cu  Cu2       1.0  0.5658780998334121  0.6183105832892507  0.540371263455441  1.0000
  Cu  Cu3       1.0  0.541353014329722  0.5684544601912052  0.6172893703414462  1.0000
  Cu  Cu4       1.0  0.88344322734131  0.9507300823981243  0.426881895492592  1.0000
  Cu  Cu5       1.0  0.9344496809269313  0.9746236978199792  0.5520142901081472  1.0000
  Cu  Cu6       1.0  0.9590696746916404  0.07628274836416442  0.5272123739683892  1.0000
  Cu  Cu7       1.0  0.5230087060031394  0.9557092577864952  0.07344984756245058  1.0000
  Cu  Cu8       1.0  0.42180526482749764  0.8820302713502598  0.9480440541307474  1.0000
  Cu  Cu9       1.0  0.5485063302214142  0.931885344298813  0.97338364823149  1.0000
  Cu  Cu10      1.0  0.9763452950598929  0.5494429695089877  0.9326750968857241  1.0000
  Cu  Cu11      1.0  0.07758192835274955  0.5254118146333296  0.9599810609987074  1.0000
  Cu  Cu12      1.0  0.9510611861708042  0.42392081049978003  0.8830819037754555  1.0000
  Cu  Cu13      1.0  0.116157606826043  0.0669611489622  0.043480649799029415  1.0000
  Cu  Cu14      1.0  0.0650395232631524  0.039764581191320814  0.11776576729067051  1.0000
  Cu  Cu15      1.0  0.04031068127213897  0.11658868080829879  0.0679768277446442  1.0000
  Cu  Cu16      1.0  0.3849154917332811  0.9267567634389879  0.4506660971970647  1.0000
  Cu  Cu17      1.0  0.4352355474376991  0.052127855948747  0.47441798135459845  1.0000
  Cu  Cu18      1.0  0.4602819407058049  0.0272086220871586  0.5760223970062768  1.0000
  Cu  Cu19      1.0  0.023650382481058368  0.5731744383522185  0.4562950127324117  1.0000
  Cu  Cu20      1.0  0.9221299544568066  0.44784570648081273  0.3822381827790623  1.0000
  Cu  Cu21      1.0  0.04881807481033453  0.47284741285977105  0.432590211653384  1.0000
  Cu  Cu22      1.0  0.47627289788427146  0.43297289745490286  0.04890431779545424  1.0000
  Cu  Cu23      1.0  0.5777340462605167  0.46015995075420346  0.024995417746758602  1.0000
  Cu  Cu24      1.0  0.4510317421731712  0.38291841910993446  0.9234051901359523  1.0000
  Si  Si1       1.0  0.6267854034199587  0.37662997681160704  0.7495541963227199  1.0000
  Si  Si2       1.0  0.8729408988071936  0.12336839870911123  0.2501522141388507  1.0000
  Si  Si3       1.0  0.37360407978845694  0.7502753748883039  0.6239839935773264  1.0000
  Si  Si4       1.0  0.12635668106605635  0.24983390961815388  0.8765294176330303  1.0000
  Si  Si5       1.0  0.7498847815618959  0.6250157412577196  0.3743185451330718  1.0000
  Si  Si6       1.0  0.2494225710818015  0.8749669654032177  0.12536134739165322  1.0000
  H   H1        1.0  0.6846282556389056  0.5451255196109771  0.5017385113435965  1.0000
  H   H2        1.0  0.615020950624512  0.6464513904652665  0.46438830556460453  1.0000
  H   H3        1.0  0.5440124937640647  0.5025574932163579  0.6854410392419368  1.0000
  H   H4        1.0  0.6474581159501653  0.47000878651982  0.6165872933252957  1.0000
  H   H5        1.0  0.49972578103286464  0.6852257901244981  0.5418565391254121  1.0000
  H   H6        1.0  0.46649048195262577  0.6176750595179217  0.6460984905427412  1.0000
  H   H7        1.0  0.8156580312840233  0.817910204792078  0.35988992909260265  1.0000
  H   H8        1.0  0.8854294018812678  0.8493754258391493  0.5305206785128649  1.0000
  H   H9        1.0  0.9567477141346357  0.14213385346768354  0.45903511888887055  1.0000
  H   H10       1.0  0.8529626171821079  0.9700717338947342  0.32276134961484365  1.0000
  H   H11       1.0  0.0003497040729741059  0.041723921847882706  0.6850716243629265  1.0000
  H   H12       1.0  0.03374130926397358  0.17960831835652163  0.6513912658850958  1.0000
  H   H13       1.0  0.45664969359133767  0.9541802634765092  0.13995658798253163  1.0000
  H   H14       1.0  0.31784690816936484  0.8541467451904553  0.9691562239305969  1.0000
  H   H15       1.0  0.6826594614382772  0.9980077816614925  0.041810953345752445  1.0000
  H   H16       1.0  0.6465258017811093  0.0292524990648673  0.17788041605894025  1.0000
  H   H17       1.0  0.3562006508566569  0.8154121878278676  0.8150538358654277  1.0000
  H   H18       1.0  0.528019449298341  0.8830268338797963  0.8492662390463509  1.0000
  H   H19       1.0  0.04229960159468503  0.6822254229321205  0.9975770431611154  1.0000
  H   H20       1.0  0.18140423822546128  0.6505852272837985  0.036168098777395116  1.0000
  H   H21       1.0  0.8170029304881509  0.35813601838277986  0.8149743236643517  1.0000
  H   H22       1.0  0.8528661343607948  0.5302250845838187  0.8827675763027616  1.0000
  H   H23       1.0  0.1434432183238741  0.4581772474408723  0.9588940122069902  1.0000
  H   H24       1.0  0.9717381513551543  0.3204649768973127  0.8545584459727709  1.0000
  H   H25       1.0  0.18411641095262607  0.0020131305461533002  0.044588754234346994  1.0000
  H   H26       1.0  0.11405290756366075  0.9637733280629279  0.1454542679314699  1.0000
  H   H27       1.0  0.042401806614869  0.18454737062936744  0.0018120680129313897  1.0000
  H   H28       1.0  0.14664376803155924  0.11679907341284947  0.9695955897737891  1.0000
  H   H29       1.0  0.9990700307467576  0.0409769729939171  0.18494494054193228  1.0000
  H   H30       1.0  0.9654715503541309  0.14505101863120737  0.11747087495819396  1.0000
  H   H31       1.0  0.31682193656025254  0.8598304063251024  0.317830782606194  1.0000
  H   H32       1.0  0.38481342976459126  0.030624041014533504  0.34937374259724413  1.0000
  H   H33       1.0  0.45727382647400805  0.9591899811200193  0.6420735906010792  1.0000
  H   H34       1.0  0.35461235604762453  0.8225287687762517  0.47027904473582544  1.0000
  H   H35       1.0  0.5013221152414289  0.18526500270501603  0.5414582648514995  1.0000
  H   H36       1.0  0.5353478143151236  0.15151093858897724  0.6792213680459087  1.0000
  H   H37       1.0  0.9576488118000976  0.6400583238675922  0.4546230041517774  1.0000
  H   H38       1.0  0.8184105828332162  0.46927051583333684  0.35397602534931843  1.0000
  H   H39       1.0  0.18300271613367855  0.5411089532573782  0.49902612553236037  1.0000
  H   H40       1.0  0.14742339640074678  0.6774749617731145  0.5301926584764943  1.0000
  H   H41       1.0  0.8561743958792005  0.3147077596963683  0.3154144308783062  1.0000
  H   H42       1.0  0.027784491212671042  0.3485762152401649  0.38366779699448744  1.0000
  H   H43       1.0  0.5423573556053113  0.4982205060278276  0.1818050338440927  1.0000
  H   H44       1.0  0.6815061486414536  0.5364941390909765  0.14999634162407463  1.0000
  H   H45       1.0  0.3168683671991204  0.31475943296849357  0.8576310517793575  1.0000
  H   H46       1.0  0.3525283023271086  0.38308280096096337  0.029615913612666123  1.0000
  H   H47       1.0  0.6436817068144903  0.4588715617141548  0.9578203088193151  1.0000
  H   H48       1.0  0.4721139902615973  0.3542709410875275  0.8201609288631602  1.0000
  C   C1        1.0  0.6630479922153468  0.5686568309797977  0.49803939406911013  1.0000
  C   C2        1.0  0.6617065816595937  0.598886201970835  0.46923640491924357  1.0000
  C   C3        1.0  0.6273583347394123  0.6205724529047032  0.4789301100611567  1.0000
  C   C4        1.0  0.5678616203050025  0.5000229010110929  0.6640334800590894  1.0000
  C   C5        1.0  0.5992183397823891  0.4724732566896678  0.6628490671052633  1.0000
  C   C6        1.0  0.6208642616129652  0.48330562197511273  0.6287848331622572  1.0000
  C   C7        1.0  0.49702340684482477  0.6641550882681174  0.5660226514306288  1.0000
  C   C8        1.0  0.46924008224696917  0.663260637040402  0.5972302958104124  1.0000
  C   C9        1.0  0.4800046988325449  0.6295465113210242  0.6194203785629357  1.0000
  C   C10       1.0  0.8372773337433727  0.8355653838759595  0.4049605674519725  1.0000
  C   C11       1.0  0.8386516027754425  0.8079267854661939  0.43635573586963994  1.0000
  C   C12       1.0  0.8730707313441354  0.8517766735391631  0.49242536054264713  1.0000
  C   C13       1.0  0.9328120131721246  0.09691699427688152  0.4325537658965929  1.0000
  C   C14       1.0  0.901384267920953  0.06451625726106161  0.373661855444489  1.0000
  C   C15       1.0  0.8796322650393334  0.008780643231546  0.362688070474178  1.0000
  C   C16       1.0  0.0031071851444437006  0.0687249161974179  0.6668632194416518  1.0000
  C   C17       1.0  0.03087692907332949  0.1276942271119808  0.6939197572237319  1.0000
  C   C18       1.0  0.020207779596290717  0.13935218218097845  0.6495978994575895  1.0000
  C   C19       1.0  0.429395430497074  0.9309777514396987  0.0948739498143994  1.0000
  C   C20       1.0  0.37037090453732435  0.9011135681957824  0.06335077160480988  1.0000
  C   C21       1.0  0.3582958981087926  0.8797191873301172  0.007325702272389373  1.0000
  C   C22       1.0  0.6638219483436812  0.0002225390788766  0.06821622845355792  1.0000
  C   C23       1.0  0.6902576737009837  0.027444765131164707  0.1271083596561837  1.0000
  C   C24       1.0  0.6453929185258573  0.016281700980918905  0.13799097194939952  1.0000
  C   C25       1.0  0.40144282423626265  0.8364672926259547  0.8333781066961451  1.0000
  C   C26       1.0  0.4335379545481074  0.8374500239624894  0.8064869822462628  1.0000
  C   C27       1.0  0.48947124422338806  0.8711104973705801  0.8509255904637812  1.0000
  C   C28       1.0  0.06967614696547025  0.6645053044904473  0.0016001220631522923  1.0000
  C   C29       1.0  0.12871788508491028  0.6920796324586933  0.030715165621572327  1.0000
  C   C30       1.0  0.14091247785061256  0.6482161765098554  0.021334035260181777  1.0000
  C   C31       1.0  0.8357553599284983  0.4033546483065323  0.8361364163143324  1.0000
  C   C32       1.0  0.809270204654595  0.4357747219818791  0.8369783140213729  1.0000
  C   C33       1.0  0.8540541597683599  0.4915011668795017  0.8708402175202681  1.0000
  C   C34       1.0  0.09820993503541334  0.43122243961352086  0.9346828325523904  1.0000
  C   C35       1.0  0.06621209432741888  0.3722550007862395  0.9035286784467618  1.0000
  C   C36       1.0  0.010244672413804768  0.3606875465744608  0.8812366820770663  1.0000
  C   C37       1.0  0.1624111037245726  0.9980708449579582  0.06802713686177231  1.0000
  C   C38       1.0  0.16096965654033835  0.9691173651334143  0.098107525546503  1.0000
  C   C39       1.0  0.12647117129299093  0.9785252807882687  0.11970023398231439  1.0000
  C   C40       1.0  0.06648231642763137  0.16342669031389792  0.999345725203469  1.0000
  C   C41       1.0  0.09798777323303647  0.1625536272905634  0.9718765454729594  1.0000
  C   C42       1.0  0.11988278391660148  0.12873511951079314  0.9828166213622753  1.0000
  C   C43       1.0  0.9962750480612357  0.06512136117735422  0.16387375152258707  1.0000
  C   C44       1.0  0.9684273411944556  0.09621807535754104  0.16304448424698842  1.0000
  C   C45       1.0  0.979082244153126  0.11843218627961961  0.12928432101725207  1.0000
  C   C46       1.0  0.33810230479233644  0.9049496326638934  0.3355236692014573  1.0000
  C   C47       1.0  0.3387313316906742  0.936403358064098  0.30794803036416624  1.0000
  C   C48       1.0  0.37298274692693667  0.9924955416617678  0.3517715261621818  1.0000
  C   C49       1.0  0.4336308332862585  0.9325839676301656  0.5968973439381386  1.0000
  C   C50       1.0  0.4023659035250659  0.873623987842727  0.564650470763823  1.0000
  C   C51       1.0  0.38103815444694084  0.8625440374169815  0.5089054696238265  1.0000
  C   C52       1.0  0.5041981849274675  0.16700644114120422  0.5684126582616075  1.0000
  C   C53       1.0  0.5321511704516338  0.19405860920023338  0.6273416211641419  1.0000
  C   C54       1.0  0.5216277696147813  0.14971038198847003  0.6389904325275425  1.0000
  C   C55       1.0  0.9302285784065775  0.5949504194364367  0.43127001043529134  1.0000
  C   C56       1.0  0.8711671237545173  0.5635009803020878  0.4011640627838133  1.0000
  C   C57       1.0  0.8589445051232117  0.5074133071562557  0.3797128612537435  1.0000
  C   C58       1.0  0.16431512026159817  0.5676221048534487  0.501217092134425  1.0000
  C   C59       1.0  0.19092103927146553  0.6265715822501862  0.5284549139648648  1.0000
  C   C60       1.0  0.14614714612903867  0.6375186571023406  0.5172194676159024  1.0000
  C   C61       1.0  0.9014072164354943  0.3330059258696495  0.33665216288296324  1.0000
  C   C62       1.0  0.9333252943369956  0.3059762566594344  0.33772128226028303  1.0000
  C   C63       1.0  0.9893202499106832  0.3503469853448776  0.37161561113695285  1.0000
  C   C64       1.0  0.5697557893729623  0.502170538481856  0.1640597386872216  1.0000
  C   C65       1.0  0.628810462290815  0.5311817247088156  0.1915974349806859  1.0000
  C   C66       1.0  0.6409976590794315  0.5217388880477503  0.14769285090032022  1.0000
  C   C67       1.0  0.3355697257440228  0.3360377494296858  0.9028272776141438  1.0000
  C   C68       1.0  0.30899283403892497  0.3370330103513268  0.9352232012674053  1.0000
  C   C69       1.0  0.3537924758506462  0.3710228809747703  0.9909164349866022  1.0000
  C   C70       1.0  0.5984533531521662  0.43459836096936033  0.9308762868862744  1.0000
  C   C71       1.0  0.5665320019361886  0.40335979492809326  0.8719507230984436  1.0000
  C   C72       1.0  0.5105371208462869  0.3810142744210125  0.8603805052361582  1.0000
  C   C73       1.0  0.6889498569675466  0.6062457175210625  0.4384650972940563  1.0000
  C   C74       1.0  0.7129389252797436  0.6129268785351699  0.41195982846627294  1.0000
  C   C75       1.0  0.8112905879005223  0.749951287801814  0.4163608456995719  1.0000
  C   C76       1.0  0.7870986200431317  0.6995089577813118  0.39911150636994813  1.0000
  C   C77       1.0  0.33227951567897657  0.8937862133281556  0.08322788649446268  1.0000
  C   C78       1.0  0.2991032566837859  0.8870982070371056  0.10052881783767731  1.0000
  C   C79       1.0  0.16665422831443524  0.7500444121058936  0.06146229566791568  1.0000
  C   C80       1.0  0.19973773491427949  0.8005121799891982  0.08791841980368535  1.0000
  C   C81       1.0  0.6074037779222934  0.44160918139453303  0.6897744498178187  1.0000
  C   C82       1.0  0.6147335276664662  0.41493323624730044  0.7133837007755376  1.0000
  C   C83       1.0  0.7514958531296612  0.4170025578938664  0.8098813715980813  1.0000
  C   C84       1.0  0.7012383526470811  0.40082261111806616  0.7860529504712446  1.0000
  C   C85       1.0  0.8930642383078363  0.08327581689142252  0.33466546302986444  1.0000
  C   C86       1.0  0.8853796026601513  0.09938214469940479  0.3005463996133529  1.0000
  C   C87       1.0  0.7480821912520453  0.058347787378956226  0.16607383073832696  1.0000
  C   C88       1.0  0.7984076571290826  0.0850587382529682  0.19997724114747228  1.0000
  C   C89       1.0  0.4383943624300387  0.6902693695330415  0.6049931669930332  1.0000
  C   C90       1.0  0.4118575977190418  0.7140449316680064  0.6121299734647752  1.0000
  C   C91       1.0  0.4142893344179583  0.8104566938691633  0.7486565006093217  1.0000
  C   C92       1.0  0.39769423421650163  0.7866577461778307  0.6983708857214027  1.0000
  C   C93       1.0  0.08555233404463539  0.3337365253678257  0.8958308307653697  1.0000
  C   C94       1.0  0.10219598441897662  0.3000773729362366  0.8886782071664714  1.0000
  C   C95       1.0  0.06163800137522199  0.16612946504761084  0.7517848520457451  1.0000
  C   C96       1.0  0.0881197723873655  0.19969426983623612  0.8020999169976265  1.0000
  C   C97       1.0  0.18833321610296133  0.9385903245954879  0.10570499070150423  1.0000
  C   C98       1.0  0.21245916030749604  0.9123898969226332  0.11298431030273544  1.0000
  C   C99       1.0  0.3109732579713976  0.9165465147019775  0.250067911211275  1.0000
  C   C100      1.0  0.2865281974365813  0.8996080041955494  0.1997480647705956  1.0000
  C   C101      1.0  0.8330464345003816  0.5833177629688394  0.39358403168109407  1.0000
  C   C102      1.0  0.7996023464415316  0.600239870658733  0.386480272772822  1.0000
  C   C103      1.0  0.6668460706570726  0.5616946350159894  0.24952125924783541  1.0000
  C   C104      1.0  0.7000961704320758  0.5877442423759263  0.29989813689135053  1.0000
  C   C105      1.0  0.10629130775133426  0.18962599374543737  0.941116882367979  1.0000
  C   C106      1.0  0.11397912120845888  0.21340774507105212  0.9146313965240014  1.0000
  C   C107      1.0  0.25114671100639896  0.3099513280544315  0.9165093914728433  1.0000
  C   C108      1.0  0.20087308465787143  0.2861679944269114  0.900456102526903  1.0000
  C   C109      1.0  0.3938378992479697  0.8346789752454667  0.583556690218785  1.0000
  C   C110      1.0  0.386031821983245  0.8006464922513317  0.599814618289095  1.0000
  C   C111      1.0  0.24877249014446784  0.6656275530082568  0.5592781215362876  1.0000
  C   C112      1.0  0.29905965589783523  0.6997749327859496  0.5858141293855185  1.0000
  C   C113      1.0  0.9375892829085755  0.10396159104384851  0.19008720935010348  1.0000
  C   C114      1.0  0.911029910182755  0.11125414726170393  0.213815187555163  1.0000
  C   C115      1.0  0.9138943204148189  0.2480957409461695  0.3105591700752585  1.0000
  C   C116      1.0  0.8971384367395031  0.19777271720484893  0.28651239786737653  1.0000
  C   C117      1.0  0.5858934891565183  0.39565560376448167  0.833427997248208  1.0000
  C   C118      1.0  0.602410850388786  0.38845846994236416  0.7996435150847818  1.0000
  C   C119      1.0  0.5627611441048117  0.2519383949760936  0.6657591275594045  1.0000
  C   C120      1.0  0.5889514300010674  0.30225739097870274  0.6993165560664495  1.0000
  N   N1        1.0  0.6098497536419314  0.6044313461557566  0.5109509563277328  1.0000
  N   N2        1.0  0.6319772624190347  0.5722619736956318  0.5227689749494431  1.0000
  N   N3        1.0  0.6036445226251884  0.5147476767536504  0.6113049858769913  1.0000
  N   N4        1.0  0.5707909326812484  0.5251311547009437  0.6331365780402154  1.0000
  N   N5        1.0  0.5116745056271199  0.6120228016815119  0.6027106158126119  1.0000
  N   N6        1.0  0.5222292656861071  0.63349059772915  0.5695963712821241  1.0000
  N   N7        1.0  0.8905554380054637  0.901391435046996  0.4940006123899393  1.0000
  N   N8        1.0  0.8683658834827026  0.8912973809816763  0.4397991462405742  1.0000
  N   N9        1.0  0.896819697498074  0.008381567749054901  0.41126547776850936  1.0000
  N   N10       1.0  0.9297683114266062  0.0629665681825173  0.4545848169630134  1.0000
  N   N11       1.0  0.9886145124288245  0.09111504151953649  0.6003342751676898  1.0000
  N   N12       1.0  0.9780131360896287  0.0473194902187331  0.6110381838524431  1.0000
  N   N13       1.0  0.40644414569413084  0.895697588643543  0.005923525536651693  1.0000
  N   N14       1.0  0.45046240194209713  0.9274487737209327  0.06016370011440123  1.0000
  N   N15       1.0  0.5964385108133923  0.9849544276088125  0.089378314494837  1.0000
  N   N16       1.0  0.6078032022991733  0.974968868664881  0.04610379944621453  1.0000
  N   N17       1.0  0.49031851012190936  0.888550631695317  0.9001208054330833  1.0000
  N   N18       1.0  0.4357291631016408  0.8670561427805197  0.8892173893443173  1.0000
  N   N19       1.0  0.09283077781678632  0.598631884632738  0.9891535545014281  1.0000
  N   N20       1.0  0.04874166137181387  0.6087736198206387  0.9769588081857565  1.0000
  N   N21       1.0  0.9030346697751737  0.49187641704524765  0.8884842550945252  1.0000
  N   N22       1.0  0.8917524053544595  0.4372862166323942  0.867003297100702  1.0000
  N   N23       1.0  0.009299378911087872  0.40897221638022085  0.8978451964777537  1.0000
  N   N24       1.0  0.06384195471943602  0.452706013091671  0.930988029725903  1.0000
  N   N25       1.0  0.1090057938644406  0.010583762940008502  0.10370082599374093  1.0000
  N   N26       1.0  0.131283535797877  0.0226855839437548  0.07168535306049513  1.0000
  N   N27       1.0  0.10270396547596052  0.11113225948774644  0.01425655222493562  1.0000
  N   N28       1.0  0.06960249698113327  0.1326203689403798  0.024531695630010092  1.0000
  N   N29       1.0  0.01076474379955529  0.1018549362570553  0.11166667897860091  1.0000
  N   N30       1.0  0.021408450930586288  0.0687895624455237  0.13311311783076724  1.0000
  N   N31       1.0  0.39106274731413754  0.9940306508232556  0.4013190474006765  1.0000
  N   N32       1.0  0.36944313871865103  0.9397787174363615  0.39123124455234404  1.0000
  N   N33       1.0  0.39831610362497827  0.9110851805432392  0.5083519762406612  1.0000
  N   N34       1.0  0.4309196008577131  0.9545283956137922  0.5628786375295932  1.0000
  N   N35       1.0  0.48990838485703836  0.10040946325539582  0.5907753621778015  1.0000
  N   N36       1.0  0.47910494168020523  0.11114886802641884  0.5470221358176773  1.0000
  N   N37       1.0  0.9069890291575007  0.505886392608886  0.3958443030663616  1.0000
  N   N38       1.0  0.951146869498238  0.5601406428639208  0.4277944738909056  1.0000
  N   N39       1.0  0.09708452930890127  0.5889210202640172  0.485826653227278  1.0000
  N   N40       1.0  0.10830526144846422  0.5455643851720352  0.47588026927245863  1.0000
  N   N41       1.0  0.9903654416549512  0.39963833060253523  0.3890459563473956  1.0000
  N   N42       1.0  0.9358413800479398  0.3888728355126931  0.367364079204343  1.0000
  N   N43       1.0  0.5929301856508784  0.48958025039746644  0.09816804114613818  1.0000
  N   N44       1.0  0.5487910711145856  0.477461096240809  0.10832813848023894  1.0000
  N   N45       1.0  0.4028340399923636  0.38859856239731994  0.9913035309882476  1.0000
  N   N46       1.0  0.3915757656001303  0.3669241375762269  0.9367102907595425  1.0000
  N   N47       1.0  0.5094820032596272  0.397673888821231  0.9086185645239411  1.0000
  N   N48       1.0  0.5640027375021148  0.43090483145262964  0.9523249760667842  1.0000
