data_image0
_chemical_formula_structural       Cd2H20C36S2N4O8
_chemical_formula_sum              "Cd2 H20 C36 S2 N4 O8"
_cell_length_a       7.382974098878209
_cell_length_b       10.20302475721029
_cell_length_c       10.850060001599639
_cell_angle_alpha    80.61909676839285
_cell_angle_beta     72.72693474168926
_cell_angle_gamma    79.1724729160435

_space_group_name_H-M_alt    "P 1"
_space_group_IT_number       1

loop_
  _space_group_symop_operation_xyz
  'x, y, z'

loop_
  _atom_site_type_symbol
  _atom_site_label
  _atom_site_symmetry_multiplicity
  _atom_site_fract_x
  _atom_site_fract_y
  _atom_site_fract_z
  _atom_site_occupancy
  Cd  Cd1       1.0  0.20911443681992387  0.39990077079841063  0.8815221107225002  1.0000
  Cd  Cd2       1.0  0.7908867327893746  0.6000990565274054  0.11847966746680068  1.0000
  H   H1        1.0  0.36873357758620534  0.39703471995730427  0.5357799633826305  1.0000
  H   H2        1.0  0.6312620892853148  0.6029711437183707  0.4642220628776317  1.0000
  H   H3        1.0  0.8898025529750984  0.3138146942794862  0.3872444482503569  1.0000
  H   H4        1.0  0.11019721755295121  0.686185228379273  0.6127511434039621  1.0000
  H   H5        1.0  0.7598272308716291  0.34681230337515256  0.9867302776710363  1.0000
  H   H6        1.0  0.24017293470856066  0.6531855186283124  0.013271982995114161  1.0000
  H   H7        1.0  0.5675482630439178  0.1657099397707356  0.012006968090972233  1.0000
  H   H8        1.0  0.43245353495835576  0.8342869007432299  0.987993261618634  1.0000
  H   H9        1.0  0.7285526905571021  0.9505450968547889  0.9089873335889112  1.0000
  H   H10       1.0  0.27145052085232635  0.04945171399465661  0.09101446185669462  1.0000
  H   H11       1.0  0.02203011867947427  0.8228880070185126  0.7802018784597637  1.0000
  H   H12       1.0  0.9779728909061166  0.17710983445805079  0.2197979687196182  1.0000
  H   H13       1.0  0.36744915520720417  0.8047590997925911  0.661147011661676  1.0000
  H   H14       1.0  0.6325522082706528  0.1952468422303326  0.338847415145665  1.0000
  H   H15       1.0  0.6539010934899993  0.29918580426009805  0.6923261456381554  1.0000
  H   H16       1.0  0.34609824187337074  0.700816035182335  0.3076757152414659  1.0000
  H   H17       1.0  0.8380533789532195  0.1026246321401771  0.5741603516597069  1.0000
  H   H18       1.0  0.16194858713098645  0.8973782048677207  0.425840844106098  1.0000
  H   H19       1.0  0.6704169780241287  0.9066783456166692  0.5845771803009258  1.0000
  H   H20       1.0  0.32958337282907024  0.09332555168285239  0.4154205014626557  1.0000
  C   C1        1.0  0.5057912695307112  0.4516940912243755  0.26000817890741973  1.0000
  C   C2        1.0  0.4942082819824096  0.5483067832593773  0.7399910094394431  1.0000
  C   C3        1.0  0.19477194440818832  0.3615718293420755  0.15411970791972618  1.0000
  C   C4        1.0  0.805232100083238  0.6384209772021023  0.8458815631526237  1.0000
  C   C5        1.0  0.18134757644823912  0.36647704967513317  0.2940278905323127  1.0000
  C   C6        1.0  0.8186570598290716  0.6335197840445517  0.7059717740101166  1.0000
  C   C7        1.0  0.3320210718219344  0.3933140198392523  0.341035201118281  1.0000
  C   C8        1.0  0.6679784768260008  0.6066868415108146  0.658964911388381  1.0000
  C   C9        1.0  0.2869662859685036  0.3752373017526694  0.4752014762720834  1.0000
  C   C10       1.0  0.7130310133251002  0.624767580433506  0.5247985190316344  1.0000
  C   C11       1.0  0.02687818517922842  0.33171222242899745  0.3939780507450409  1.0000
  C   C12       1.0  0.9731211616448692  0.6682896695481801  0.6060201134953972  1.0000
  C   C13       1.0  0.8275239848432463  0.2524406791211646  0.9470792873892012  1.0000
  C   C14       1.0  0.17247597031755657  0.7475581341083597  0.05292379749010926  1.0000
  C   C15       1.0  0.7186892939729292  0.14942715641046786  0.9591075441369913  1.0000
  C   C16       1.0  0.28131007513236045  0.8505676559109148  0.04089529895264832  1.0000
  C   C17       1.0  0.8066013358975824  0.0332798400954886  0.9031871348046681  1.0000
  C   C18       1.0  0.193398826817429  0.9667179687742903  0.0968160500212818  1.0000
  C   C19       1.0  0.10364268907425615  0.12792058104160728  0.8304316647519702  1.0000
  C   C20       1.0  0.8963572718169107  0.8720782584552893  0.1695695718077559  1.0000
  C   C21       1.0  0.0035002598280300043  0.020440992106585995  0.8351688809711819  1.0000
  C   C22       1.0  0.9965009097812685  0.9795588352192298  0.16483289721811192  1.0000
  C   C23       1.0  0.1027160336670506  0.9040057784939746  0.7731107619077026  1.0000
  C   C24       1.0  0.897286975918533  0.09599206298259591  0.2268890852716866  1.0000
  C   C25       1.0  0.2929765278730871  0.8941336607662791  0.7077813099876381  1.0000
  C   C26       1.0  0.7070228103554614  0.10586819180984008  0.2922196267321909  1.0000
  C   C27       1.0  0.39871719378146514  0.00036148405957449597  0.7004949272127664  1.0000
  C   C28       1.0  0.601285193141507  0.9996393704962118  0.29950462012671875  1.0000
  C   C29       1.0  0.3057389788666356  0.1173582517567624  0.7624394622215648  1.0000
  C   C30       1.0  0.6942603593619127  0.8826436008193567  0.23756147449825707  1.0000
  C   C31       1.0  0.5845201843015319  0.21375948320712007  0.6920659069085675  1.0000
  C   C32       1.0  0.41547915106184535  0.7862423562353129  0.3079359539710539  1.0000
  C   C33       1.0  0.6872993773158741  0.10292768831169499  0.6266213780199693  1.0000
  C   C34       1.0  0.3126999637778597  0.8970741773981104  0.3733786345400604  1.0000
  C   C35       1.0  0.594877623459894  0.9954151393975151  0.6322080728194948  1.0000
  C   C36       1.0  0.40512130539061547  0.004588748165467399  0.3677908156874708  1.0000
  S   S1        1.0  0.06542509796670973  0.32829846824651554  0.5430011330731831  1.0000
  S   S2        1.0  0.9345724117462739  0.6717054227136003  0.4569980380173748  1.0000
  N   N1        1.0  0.014260717231586319  0.2413114747671942  0.8860699651792319  1.0000
  N   N2        1.0  0.9857378216568837  0.7586873549931566  0.11393247812387133  1.0000
  N   N3        1.0  0.40051969692933664  0.22034897717536947  0.7582328114043619  1.0000
  N   N4        1.0  0.5994824853046127  0.7796528948738413  0.2417657118286911  1.0000
  O   O1        1.0  0.6442061803624527  0.44916016238055084  0.3092360273456692  1.0000
  O   O2        1.0  0.35579701163096916  0.5508437412583831  0.690760165090943  1.0000
  O   O3        1.0  0.505673862238787  0.5085286450116656  0.14622847302641165  1.0000
  O   O4        1.0  0.49432264917545155  0.4914732668934789  0.8537693322214042  1.0000
  O   O5        1.0  0.3069794787984181  0.2679222900125708  0.09672597920511095  1.0000
  O   O6        1.0  0.6930298328650369  0.732072537929902  0.9032721133200285  1.0000
  O   O7        1.0  0.08606797371474781  0.4496950780719615  0.09819988809324093  1.0000
  O   O8        1.0  0.9139267652070374  0.5502947654403344  0.9018018125845303  1.0000
