data_image0
_chemical_formula_structural       Cd4H44C32N4Cl8O4
_chemical_formula_sum              "Cd4 H44 C32 N4 Cl8 O4"
_cell_length_a       6.45434494828968
_cell_length_b       11.318342564554435
_cell_length_c       15.079785992131242
_cell_angle_alpha    90.00004585082415
_cell_angle_beta     89.99952901504736
_cell_angle_gamma    105.71274829539381

_space_group_name_H-M_alt    "P 1"
_space_group_IT_number       1

loop_
  _space_group_symop_operation_xyz
  'x, y, z'

loop_
  _atom_site_type_symbol
  _atom_site_label
  _atom_site_symmetry_multiplicity
  _atom_site_fract_x
  _atom_site_fract_y
  _atom_site_fract_z
  _atom_site_occupancy
  Cd  Cd1       1.0  0.7812032600618151  0.06295343181378851  0.5431562190256616  1.0000
  Cd  Cd2       1.0  0.21879872295964023  0.43704591743372845  0.043155526620793715  1.0000
  Cd  Cd3       1.0  0.2187996948688563  0.9370459844747431  0.45684522959695073  1.0000
  Cd  Cd4       1.0  0.7812026821147385  0.5629534977870492  0.9568465851439358  1.0000
  H   H1        1.0  0.7314156422916936  0.2688226013517507  0.42347098086907664  1.0000
  H   H2        1.0  0.2685833260724663  0.23117598665270123  0.9234702595302764  1.0000
  H   H3        1.0  0.2685922098769992  0.7311740657550345  0.5765251626290465  1.0000
  H   H4        1.0  0.7314204970008191  0.7688252652727885  0.07653118909134803  1.0000
  H   H5        1.0  0.7206408526616813  0.48818862266951873  0.418459719161369  1.0000
  H   H6        1.0  0.2793582166924509  0.011809975407885502  0.9184588325816065  1.0000
  H   H7        1.0  0.27936148184895876  0.5118062056023762  0.581533108649012  1.0000
  H   H8        1.0  0.7206440565378927  0.9881912754511861  0.0815419529033576  1.0000
  H   H9        1.0  0.7335575081127459  0.6024349869455321  0.5624504998195834  1.0000
  H   H10       1.0  0.2664384341186402  0.8975643606411052  0.062450279946389714  1.0000
  H   H11       1.0  0.2664388134617468  0.3975635072674991  0.4375396754449029  1.0000
  H   H12       1.0  0.7335578873489368  0.10243413356126753  0.937550505548245  1.0000
  H   H13       1.0  0.7529027897239403  0.48964555021111533  0.7048463530610151  1.0000
  H   H14       1.0  0.24709240108022365  0.010352554079290102  0.20484796596956303  1.0000
  H   H15       1.0  0.24708596901133015  0.5103566088706304  0.2951464747753789  1.0000
  H   H16       1.0  0.7529023705377397  0.9896459390559895  0.7951528195278004  1.0000
  H   H17       1.0  0.6827999850867882  0.15683125960903516  0.714871057930381  1.0000
  H   H18       1.0  0.3172005214155292  0.3431686633723459  0.2148699646825493  1.0000
  H   H19       1.0  0.31719980897795347  0.8431745771438202  0.285127075002741  1.0000
  H   H20       1.0  0.6827993338092284  0.6568307507813459  0.7851321470849089  1.0000
  H   H21       1.0  0.6897448582270657  0.2912351704704932  0.7765045853779571  1.0000
  H   H22       1.0  0.3102555219851482  0.20876371187293336  0.2765047648481698  1.0000
  H   H23       1.0  0.310252270229789  0.7087715819686623  0.2234915581419656  1.0000
  H   H24       1.0  0.6897450149466238  0.7912338677108866  0.7234973469175545  1.0000
  H   H25       1.0  0.08504781277286358  0.3656031158288755  0.7618078498520975  1.0000
  H   H26       1.0  0.9149524295424883  0.1343948782371527  0.2618078471593677  1.0000
  H   H27       1.0  0.9149526629922063  0.6344008863534542  0.23819094621867276  1.0000
  H   H28       1.0  0.08504965724558389  0.8656027024144282  0.7381936014642465  1.0000
  H   H29       1.0  0.9990914546087595  0.22474902972973607  0.8174409421428878  1.0000
  H   H30       1.0  0.0009061167373047932  0.275248851446321  0.31743959648903813  1.0000
  H   H31       1.0  0.0009012718948538352  0.7752549671158134  0.18255918022028791  1.0000
  H   H32       1.0  0.999093986129843  0.7247478103196912  0.682561852137795  1.0000
  H   H33       1.0  0.16514639803414607  0.2662699235345016  0.6253216582370273  1.0000
  H   H34       1.0  0.8348534950853762  0.23372834273844498  0.12532199512784103  1.0000
  H   H35       1.0  0.8348596565957678  0.733729494888209  0.3746797903801351  1.0000
  H   H36       1.0  0.16514394213379543  0.7662692347098742  0.8746814429221033  1.0000
  H   H37       1.0  0.29447771959432595  0.22049574139263933  0.718198066967979  1.0000
  H   H38       1.0  0.7055194337071031  0.2795005025584274  0.21819888565126183  1.0000
  H   H39       1.0  0.7055194699824483  0.7795045884433522  0.28180603422259054  1.0000
  H   H40       1.0  0.2944795533616896  0.7204970759569705  0.7818045523959543  1.0000
  H   H41       1.0  0.13508481646736928  0.0479061413444413  0.6494778261320918  1.0000
  H   H42       1.0  0.8649110560730618  0.452091156420522  0.1494788470918778  1.0000
  H   H43       1.0  0.8649154728220124  0.9520941906270579  0.35052494877425033  1.0000
  H   H44       1.0  0.13508638114610955  0.5479064210277897  0.8505245909580668  1.0000
  C   C1        1.0  0.7369473646731778  0.3224039899962108  0.4840050022504131  1.0000
  C   C2        1.0  0.26305125192897083  0.177596311969296  0.9840049324251865  1.0000
  C   C3        1.0  0.26305428809035897  0.6775926728415556  0.5159918043979985  1.0000
  C   C4        1.0  0.7369514553659968  0.8224058567075828  0.015996516198661905  1.0000
  C   C5        1.0  0.7296268828123473  0.4437244056889541  0.48183326885572353  1.0000
  C   C6        1.0  0.2703735750347818  0.05627314931998482  0.9818337659872399  1.0000
  C   C7        1.0  0.27037520407594684  0.5562731749726241  0.5181582326771165  1.0000
  C   C8        1.0  0.7296298139738866  0.9437271847876972  0.0181670194954933  1.0000
  C   C9        1.0  0.7358772307131288  0.5063539305089081  0.5619365348324197  1.0000
  C   C10       1.0  0.26412182156104774  0.9936454202435884  0.06193770516099312  1.0000
  C   C11       1.0  0.2641179750563225  0.4936454804528482  0.43805629299183124  1.0000
  C   C12       1.0  0.7358784677350131  0.0063549117285788  0.9380644066059676  1.0000
  C   C13       1.0  0.7463278982872908  0.4443284635951203  0.6407373514923336  1.0000
  C   C14       1.0  0.2536747838707001  0.0556697738260326  0.14073764126770533  1.0000
  C   C15       1.0  0.2536599922986936  0.5556718598489992  0.35925613948444385  1.0000
  C   C16       1.0  0.7463250713607366  0.944329640328327  0.859263807360364  1.0000
  C   C17       1.0  0.7528860915574286  0.3215697740975613  0.6386245422484365  1.0000
  C   C18       1.0  0.2471175013268123  0.17843030320793224  0.1386242632135932  1.0000
  C   C19       1.0  0.24711946784115918  0.6784351491058375  0.36137292753488753  1.0000
  C   C20       1.0  0.7528858876618045  0.821570030897746  0.8613785116872921  1.0000
  C   C21       1.0  0.7692007414959007  0.2542432407526363  0.7228683951173381  1.0000
  C   C22       1.0  0.23079693820479014  0.2457575818372391  0.22286821259255166  1.0000
  C   C23       1.0  0.2308021522747552  0.7457625981350662  0.2771290746709454  1.0000
  C   C24       1.0  0.7692013671703463  0.7542418312493666  0.7771338991776277  1.0000
  C   C25       1.0  0.0030067113330716293  0.26797118082738086  0.7520691009052316  1.0000
  C   C26       1.0  0.9969926114709012  0.23202774956611447  0.2520682029693972  1.0000
  C   C27       1.0  0.9969906647193981  0.732032819219434  0.2479310214497588  1.0000
  C   C28       1.0  0.0030048257749939744  0.7679698278848621  0.7479325825230134  1.0000
  C   C29       1.0  0.1365656544975664  0.21550308983934496  0.6885838647998244  1.0000
  C   C30       1.0  0.8634325296675058  0.2844941314555456  0.1885847936979417  1.0000
  C   C31       1.0  0.8634330849488804  0.7844972410657363  0.31141824696985765  1.0000
  C   C32       1.0  0.1365649075583448  0.7155034459934343  0.8114179812126211  1.0000
  N   N1        1.0  0.7501785403342324  0.26281461950544843  0.5603276628442303  1.0000
  N   N2        1.0  0.24982464648882532  0.23718469629358904  0.06032740838010402  1.0000
  N   N3        1.0  0.24982683262875577  0.7371866334911346  0.43966980693835483  1.0000
  N   N4        1.0  0.7501802923560915  0.762815638879843  0.9396747033786711  1.0000
  Cl  Cl1       1.0  0.5943874456547676  0.029147412216403313  0.380215233567796  1.0000
  Cl  Cl2       1.0  0.40561747804795095  0.4708521837548504  0.880212842729243  1.0000
  Cl  Cl3       1.0  0.4056150751912426  0.9708510862523171  0.6197875413340839  1.0000
  Cl  Cl4       1.0  0.594382377190172  0.5291472304001772  0.11978794275944443  1.0000
  Cl  Cl5       1.0  0.8433666258416679  0.8462460300722442  0.5397696840912687  1.0000
  Cl  Cl6       1.0  0.1566355387643411  0.6537524495511562  0.0397716986294299  1.0000
  Cl  Cl7       1.0  0.1566363290890109  0.15375338621628737  0.46023176453135056  1.0000
  Cl  Cl8       1.0  0.8433654322120036  0.3462460478484815  0.9602330656933307  1.0000
  O   O1        1.0  0.026257909453065085  0.0881928793068809  0.6709033997193716  1.0000
  O   O2        1.0  0.9737399493230682  0.4118062120978081  0.17090268796564356  1.0000
  O   O3        1.0  0.9737428139143063  0.9118083704837687  0.3290987120470846  1.0000
  O   O4        1.0  0.02625903775908257  0.5881913664189257  0.8290994238028021  1.0000
