data_image0
_chemical_formula_structural       Zr6H50C92Cl10O32
_chemical_formula_sum              "Zr6 H50 C92 Cl10 O32"
_cell_length_a       19.20777332559328
_cell_length_b       19.158514444374802
_cell_length_c       19.17924232254156
_cell_angle_alpha    59.38944779404755
_cell_angle_beta     59.87888511588244
_cell_angle_gamma    59.98807645838432

_space_group_name_H-M_alt    "P 1"
_space_group_IT_number       1

loop_
  _space_group_symop_operation_xyz
  'x, y, z'

loop_
  _atom_site_type_symbol
  _atom_site_label
  _atom_site_symmetry_multiplicity
  _atom_site_fract_x
  _atom_site_fract_y
  _atom_site_fract_z
  _atom_site_occupancy
  Zr  Zr1       1.0  0.907262373921093  0.4074076811977818  0.5925964844382958  1.0000
  Zr  Zr2       1.0  0.09273256455041703  0.5918923111941652  0.4081304286015381  1.0000
  Zr  Zr3       1.0  0.09134650517281534  0.4057383003210902  0.594309157392857  1.0000
  Zr  Zr4       1.0  0.9085830698330568  0.593618136504489  0.40644639051430415  1.0000
  Zr  Zr5       1.0  0.9081829267727671  0.5914979417310136  0.5921146522444259  1.0000
  Zr  Zr6       1.0  0.09175584121024362  0.4079069762560649  0.4085495366077083  1.0000
  H   H1        1.0  0.9268345106770681  0.4251682381265455  0.719270696089758  1.0000
  H   H2        1.0  0.9287227073882817  0.7185936343031545  0.4258882651252662  1.0000
  H   H3        1.0  0.21745080137704054  0.42667671188470996  0.42865958168046353  1.0000
  H   H4        1.0  0.9271730347011271  0.4280069076936784  0.4273528904968131  1.0000
  H   H5        1.0  0.4543754174622734  0.6135722162735462  0.04567647336681086  1.0000
  H   H6        1.0  0.5459393496122759  0.38562829185443104  0.9551628140973846  1.0000
  H   H7        1.0  0.6814934910493308  0.6066031684025076  0.8152311349748942  1.0000
  H   H8        1.0  0.5547270520064626  0.6122424181064969  0.9443913746889617  1.0000
  H   H9        1.0  0.3151850711270611  0.39634013799381773  0.18166735837166206  1.0000
  H   H10       1.0  0.44437007966885034  0.3883149920190975  0.05498017237788836  1.0000
  H   H11       1.0  0.1130923233875125  0.9549043433253316  0.385665372093605  1.0000
  H   H12       1.0  0.8861984520499037  0.045389303097920226  0.6136151545242542  1.0000
  H   H13       1.0  0.10672647975437136  0.1813418345307625  0.39665626651140684  1.0000
  H   H14       1.0  0.11218155065013487  0.05478639385950148  0.3883946737059105  1.0000
  H   H15       1.0  0.8965180521192405  0.8149857320107685  0.6068867846675943  1.0000
  H   H16       1.0  0.8884703825674125  0.944261661275014  0.6122716415904177  1.0000
  H   H17       1.0  0.45269459385419  0.0478215773788904  0.386459353494196  1.0000
  H   H18       1.0  0.548232891411601  0.9527096948920643  0.6130487585161644  1.0000
  H   H19       1.0  0.6790130165307245  0.8163800670712721  0.396724541581264  1.0000
  H   H20       1.0  0.5524323376988036  0.9458510919190319  0.38902987978264053  1.0000
  H   H21       1.0  0.3176231621591016  0.17971971186361207  0.6072064438338244  1.0000
  H   H22       1.0  0.4473400407951402  0.0535140599565979  0.6116447066797405  1.0000
  H   H23       1.0  0.8861034068465513  0.6130115457786546  0.9529046189211314  1.0000
  H   H24       1.0  0.11312514157264526  0.3864023213866901  0.048033262322597546  1.0000
  H   H25       1.0  0.8955162206534695  0.6069179227665631  0.18017395804685052  1.0000
  H   H26       1.0  0.8876604165109826  0.6115974874102506  0.05380245395982527  1.0000
  H   H27       1.0  0.1079179527765391  0.3964514283325542  0.8168416131350185  1.0000
  H   H28       1.0  0.11279710159436016  0.3890034557582284  0.946135339157017  1.0000
  H   H29       1.0  0.11176709204243442  0.8180430727261195  0.17903107979244473  1.0000
  H   H30       1.0  0.8909582294365989  0.817797928391343  0.17923300556910957  1.0000
  H   H31       1.0  0.8912440916214877  0.17815491897714966  0.8187899029890816  1.0000
  H   H32       1.0  0.11211178761040935  0.17836420658632324  0.8185644023041903  1.0000
  H   H33       1.0  0.4538160442400497  0.3845908286648125  0.6147700373233107  1.0000
  H   H34       1.0  0.5469240687138355  0.6144165925559902  0.3849795839236805  1.0000
  H   H35       1.0  0.6804243944230847  0.395842722275745  0.6073366035012954  1.0000
  H   H36       1.0  0.5541578941224686  0.3875141453822266  0.6131781794375611  1.0000
  H   H37       1.0  0.31623286147870994  0.6068844753649927  0.3964496905980965  1.0000
  H   H38       1.0  0.4450203029711517  0.6128464168518377  0.3879443227201945  1.0000
  H   H39       1.0  0.1974778897808634  0.0919012462592832  0.9731960149980168  1.0000
  H   H40       1.0  0.19392519005352682  0.13170445135553874  0.8688380120825131  1.0000
  H   H41       1.0  0.26259124697522657  0.027457347386629798  0.9080868066259172  1.0000
  H   H42       1.0  0.2623320727909471  0.9067577854801526  0.028605508267098356  1.0000
  H   H43       1.0  0.19295225143990521  0.8684791530708226  0.13273206052458142  1.0000
  H   H44       1.0  0.19737592525915185  0.9725367660965533  0.0925412114887222  1.0000
  H   H45       1.0  0.8023617433719465  0.02764239061861692  0.907625558633569  1.0000
  H   H46       1.0  0.805843388851578  0.13183980946072174  0.8692432451883931  1.0000
  H   H47       1.0  0.7376139842877196  0.09160615608143269  0.9733771611548789  1.0000
  H   H48       1.0  0.7374585629980359  0.9723276754212336  0.09278153613959707  1.0000
  H   H49       1.0  0.8056093702497619  0.868038254716389  0.13255915195785645  1.0000
  H   H50       1.0  0.8018749503919766  0.9071819986724564  0.028382291827107012  1.0000
  C   C1        1.0  0.7633254715039898  0.49857014876779016  0.7324902392400574  1.0000
  C   C2        1.0  0.005587636171647216  0.731949209081982  0.4991074141504014  1.0000
  C   C3        1.0  0.23238854189923322  0.5052504174132652  0.2636438368501216  1.0000
  C   C4        1.0  0.9986689132267871  0.26306743585429637  0.5057883365505162  1.0000
  C   C5        1.0  0.002117758200284963  0.26111816830924534  0.734670213537875  1.0000
  C   C6        1.0  0.7634080622343262  0.5059282109799667  0.49830584909918213  1.0000
  C   C7        1.0  0.0021026358638917314  0.7339088200277146  0.26193289686569426  1.0000
  C   C8        1.0  0.23235769385600247  0.49767660354508797  0.5065811115914441  1.0000
  C   C9        1.0  0.99929662788702  0.5037306535187088  0.7331540074748516  1.0000
  C   C10       1.0  0.2313552667555427  0.2619678503882881  0.5012823085450719  1.0000
  C   C11       1.0  0.00538335207653499  0.5007399643556526  0.26256422149708664  1.0000
  C   C12       1.0  0.7638375498834619  0.7325993427758778  0.5042226533700642  1.0000
  C   C13       1.0  0.31067186600038343  0.5077470504509521  0.18600552386150324  1.0000
  C   C14       1.0  0.6860585749819843  0.4950725301329302  0.8111022969321623  1.0000
  C   C15       1.0  0.35208600532145357  0.5688656631823718  0.1457456009360242  1.0000
  C   C16       1.0  0.42547535445934404  0.5647082162753634  0.07380797671502395  1.0000
  C   C17       1.0  0.6460303738820912  0.4325511474409041  0.8527764709897667  1.0000
  C   C18       1.0  0.573978395830018  0.43538489207997344  0.9260730330752907  1.0000
  C   C19       1.0  0.6503989077557435  0.558584462886472  0.8472245788897581  1.0000
  C   C20       1.0  0.5788868218071385  0.561163874087221  0.9200672677671731  1.0000
  C   C21       1.0  0.34699298895849023  0.4436093099601025  0.15048967002734762  1.0000
  C   C22       1.0  0.4198911233448612  0.4396681279827561  0.07904245545789473  1.0000
  C   C23       1.0  0.46107280517030347  0.500822270329472  0.03852898079147579  1.0000
  C   C24       1.0  0.5384448224361691  0.4992513869847743  0.9613554251773452  1.0000
  C   C25       1.0  0.0076594897285177  0.8107217092663602  0.49538885407795163  1.0000
  C   C26       1.0  0.9954979279231397  0.18556584237699514  0.5080716631931067  1.0000
  C   C27       1.0  0.06850806113464362  0.8524203542545193  0.4327681908106555  1.0000
  C   C28       1.0  0.06439976792753291  0.9258050916630723  0.4354658709744256  1.0000
  C   C29       1.0  0.9332071208970376  0.1453314134470959  0.5691239101618208  1.0000
  C   C30       1.0  0.9358550628267681  0.0735047544562733  0.5648241737244818  1.0000
  C   C31       1.0  0.05881852525207174  0.15014795894586536  0.4438639177078514  1.0000
  C   C32       1.0  0.06127089450396987  0.07879560292096946  0.43978622835768993  1.0000
  C   C33       1.0  0.943647322917066  0.8469495269761251  0.558807027379437  1.0000
  C   C34       1.0  0.9397358440368252  0.9198582020817625  0.5612615269550998  1.0000
  C   C35       1.0  0.0007995357044520635  0.9611335720964717  0.4993117784997522  1.0000
  C   C36       1.0  0.999425553619773  0.03830376186387965  0.5008863507441247  1.0000
  C   C37       1.0  0.31049060487234936  0.18544282577022383  0.49679723651448887  1.0000
  C   C38       1.0  0.6861447923974068  0.8106581797315615  0.5071466766803994  1.0000
  C   C39       1.0  0.35107477745065563  0.14659552003509904  0.4341357133199821  1.0000
  C   C40       1.0  0.42469394658815673  0.07489938120241393  0.43626953394814894  1.0000
  C   C41       1.0  0.6471721548920114  0.8511794765770944  0.5681377096169911  1.0000
  C   C42       1.0  0.5752255217624979  0.9245861780219898  0.5642767013679945  1.0000
  C   C43       1.0  0.6491236659216216  0.8477654281213631  0.4436124622864026  1.0000
  C   C44       1.0  0.5776930628549691  0.9206985243176861  0.4399467168790563  1.0000
  C   C45       1.0  0.3484178981921032  0.14926481443161066  0.5593763923651309  1.0000
  C   C46       1.0  0.42160838780342413  0.07814731989312666  0.5612316818073922  1.0000
  C   C47       1.0  0.46148636086420686  0.038523541261220456  0.49954926003698563  1.0000
  C   C48       1.0  0.5386219135473383  0.9611425261572889  0.5008038616237014  1.0000
  C   C49       1.0  0.9960629396935375  0.5068313717513249  0.811092451946557  1.0000
  C   C50       1.0  0.0073438452816957205  0.4965014664677057  0.18585321838148153  1.0000
  C   C51       1.0  0.933570038046206  0.567931525553213  0.8514957688719703  1.0000
  C   C52       1.0  0.9359715462514018  0.5641819374069288  0.9248570332540141  1.0000
  C   C53       1.0  0.06828078041476719  0.4339224419458532  0.14691392760585123  1.0000
  C   C54       1.0  0.06423505164184454  0.4361704999650726  0.0751573908119879  1.0000
  C   C55       1.0  0.9430285627539235  0.5591456772573977  0.14966896528945722  1.0000
  C   C56       1.0  0.9391244986066312  0.5611144776842919  0.07847973799638193  1.0000
  C   C57       1.0  0.05952759387371021  0.44338413977637003  0.8481756681465954  1.0000
  C   C58       1.0  0.061736149329782074  0.43985777285496397  0.921018870660852  1.0000
  C   C59       1.0  0.9995059715731285  0.50074931894563  0.9614051339385056  1.0000
  C   C60       1.0  0.0005371699009726532  0.499480581535103  0.03878922660511819  1.0000
  C   C61       1.0  0.06426281719779334  0.8496368863303657  0.14795503091900733  1.0000
  C   C62       1.0  0.06550156319199377  0.9241228603068519  0.074722194104062  1.0000
  C   C63       1.0  0.1300930876166998  0.9631669617131209  0.036543497377984  1.0000
  C   C64       1.0  0.9379976657474882  0.8495022484841642  0.1480746527609255  1.0000
  C   C65       1.0  0.9355252926862789  0.9239903308772881  0.0748283418035099  1.0000
  C   C66       1.0  0.8702030189724824  0.9629717533745464  0.036666920954793354  1.0000
  C   C67       1.0  0.9382301981289702  0.1470981654821556  0.8503984234164861  1.0000
  C   C68       1.0  0.935709899359175  0.07389548597272742  0.9248951683206101  1.0000
  C   C69       1.0  0.8702478077335345  0.03573386507838463  0.9639131555108946  1.0000
  C   C70       1.0  0.06449500545333095  0.1472221024259142  0.850262452442543  1.0000
  C   C71       1.0  0.06569382951934699  0.07400860048318242  0.9247778403233154  1.0000
  C   C72       1.0  0.13018266722069458  0.03589909070934986  0.9637456578061928  1.0000
  C   C73       1.0  0.0015589518059045296  0.8128030051211041  0.18387725803287935  1.0000
  C   C74       1.0  0.00045949132008608266  0.9617705548181021  0.037264252441310784  1.0000
  C   C75       1.0  0.001817118157305165  0.18307443936325285  0.8135416313960208  1.0000
  C   C76       1.0  0.0005377242715596246  0.03646427292539999  0.9625545926863311  1.0000
  C   C77       1.0  0.31084310096318296  0.4944842293012145  0.5087099598793969  1.0000
  C   C78       1.0  0.6860496530893058  0.5081050779397528  0.4949585095639435  1.0000
  C   C79       1.0  0.35205103126745746  0.4318084968651946  0.5699498678830821  1.0000
  C   C80       1.0  0.42532226619817226  0.434715030719538  0.5656116378784404  1.0000
  C   C81       1.0  0.6462929888330605  0.5694110231913572  0.432266531990315  1.0000
  C   C82       1.0  0.574420060062401  0.5651789596004733  0.43510979313767695  1.0000
  C   C83       1.0  0.6499044987079043  0.44346356970322637  0.558938196515328  1.0000
  C   C84       1.0  0.578547674936914  0.4393591684796405  0.5616275666606398  1.0000
  C   C85       1.0  0.34757692344481933  0.5585256968927156  0.44403047184722055  1.0000
  C   C86       1.0  0.420371658069655  0.561276589987017  0.4398186085118495  1.0000
  C   C87       1.0  0.461262964453418  0.4990521699550997  0.5012130057812954  1.0000
  C   C88       1.0  0.5384824931019593  0.5008193270376325  0.4994271538149775  1.0000
  C   C89       1.0  0.19889044645706383  0.07424915110676976  0.9259829079693845  1.0000
  C   C90       1.0  0.1985332104052944  0.9253436452510044  0.07503643387962451  1.0000
  C   C91       1.0  0.8011298056613685  0.07416692526035011  0.9261109070164437  1.0000
  C   C92       1.0  0.8009194540405673  0.9251775189344402  0.07507416928753916  1.0000
  Cl  Cl1       1.0  0.31811648384631763  0.652699982327995  0.179415878082679  1.0000
  Cl  Cl2       1.0  0.6802636784290075  0.3484386899283364  0.819389319862097  1.0000
  Cl  Cl3       1.0  0.1517325720304184  0.8189779018921115  0.3486842291247639  1.0000
  Cl  Cl4       1.0  0.849651403765613  0.17894414218767477  0.6529839282622731  1.0000
  Cl  Cl5       1.0  0.31583103449348476  0.18182007780581702  0.35067873429349555  1.0000
  Cl  Cl6       1.0  0.6825949233461868  0.8161998549681685  0.6513966546972153  1.0000
  Cl  Cl7       1.0  0.8499303839066457  0.6512107112213387  0.8164202623742227  1.0000
  Cl  Cl8       1.0  0.15179077341373665  0.35046131494383564  0.18205168147371606  1.0000
  Cl  Cl9       1.0  0.3178185521289834  0.3471333601307122  0.6543178936789359  1.0000
  Cl  Cl10      1.0  0.6808616897829726  0.6537981741355594  0.34767910290028675  1.0000
  O   O1        1.0  0.7949470594890828  0.44122732787609936  0.6995943776329695  1.0000
  O   O2        1.0  0.06429294918821402  0.6989208277309019  0.4418940899883096  1.0000
  O   O3        1.0  0.2004042401440102  0.5630092038448923  0.2960941582097689  1.0000
  O   O4        1.0  0.9405087722220599  0.2953694346262594  0.5636763117697399  1.0000
  O   O5        1.0  0.061344162204143585  0.2924008023062896  0.7037727291417113  1.0000
  O   O6        1.0  0.796046258163628  0.5646637669307424  0.4400212372150065  1.0000
  O   O7        1.0  0.9425117370815526  0.702998580644625  0.29319557577642974  1.0000
  O   O8        1.0  0.19925944967179277  0.4394029218942633  0.5653630385499964  1.0000
  O   O9        1.0  0.9418153242115965  0.5621592305357127  0.6997118741698499  1.0000
  O   O10       1.0  0.19832622531257024  0.2949332758480168  0.4433718051345039  1.0000
  O   O11       1.0  0.06330914627984184  0.44272748823512126  0.29555371381002254  1.0000
  O   O12       1.0  0.7962745065281709  0.6991524311923103  0.5626947141041327  1.0000
  O   O13       1.0  0.20294830562846763  0.2898121693328832  0.5617401642305708  1.0000
  O   O14       1.0  0.9454502164946419  0.5611182991662605  0.290514968788244  1.0000
  O   O15       1.0  0.7930598226637641  0.7055699778883593  0.44297387805874405  1.0000
  O   O16       1.0  0.05830101010538873  0.4424115498761623  0.7062121351653445  1.0000
  O   O17       1.0  0.9430149452388294  0.2924601895956018  0.703795376994421  1.0000
  O   O18       1.0  0.20457599293699502  0.557886720296338  0.4453458880488768  1.0000
  O   O19       1.0  0.06074503252852284  0.7030597556409148  0.29325145228518307  1.0000
  O   O20       1.0  0.7921241282754538  0.4447394033373871  0.5585928061863755  1.0000
  O   O21       1.0  0.058572348245959895  0.2924609229858817  0.44528745418416804  1.0000
  O   O22       1.0  0.793071787701642  0.5580346644047154  0.7042327916519395  1.0000
  O   O23       1.0  0.9446466549480235  0.7037050753538807  0.5585972242189071  1.0000
  O   O24       1.0  0.20365718966719723  0.44471468994948554  0.29300586203677165  1.0000
  O   O25       1.0  0.9478486618888625  0.44869648940804313  0.4477451827826329  1.0000
  O   O26       1.0  0.15569381949330105  0.4470243603016114  0.4494081183531974  1.0000
  O   O27       1.0  0.948605139406773  0.6563520417156851  0.4474527312978723  1.0000
  O   O28       1.0  0.9475981583752783  0.4467424947436028  0.6570279686173278  1.0000
  O   O29       1.0  0.03836745563108205  0.5370472513504438  0.5390853295921048  1.0000
  O   O30       1.0  0.8854536738352505  0.5384172536608677  0.5377395532303382  1.0000
  O   O31       1.0  0.03836402923722206  0.5387628961512475  0.38525760642930607  1.0000
  O   O32       1.0  0.03760848442489349  0.3845566286433879  0.5394605097232842  1.0000
