data_image0
_chemical_formula_structural       Zn8H44C44S12N4O24
_chemical_formula_sum              "Zn8 H44 C44 S12 N4 O24"
_cell_length_a       6.7483722513062
_cell_length_b       11.585857678377202
_cell_length_c       19.96857073800549
_cell_angle_alpha    90.000064371873
_cell_angle_beta     89.99994400163193
_cell_angle_gamma    89.85183135737262

_space_group_name_H-M_alt    "P 1"
_space_group_IT_number       1

loop_
  _space_group_symop_operation_xyz
  'x, y, z'

loop_
  _atom_site_type_symbol
  _atom_site_label
  _atom_site_symmetry_multiplicity
  _atom_site_fract_x
  _atom_site_fract_y
  _atom_site_fract_z
  _atom_site_occupancy
  Zn  Zn1       1.0  0.7450282551159901  0.05142910649654202  0.37810006343270436  1.0000
  Zn  Zn2       1.0  0.7549719198482522  0.948572496885312  0.8781010881737147  1.0000
  Zn  Zn3       1.0  0.25497145163656404  0.94857237253305  0.6219000607129175  1.0000
  Zn  Zn4       1.0  0.24502778690285956  0.051428982145253606  0.1219000375458421  1.0000
  Zn  Zn5       1.0  0.7395782702322009  0.06613592481365062  0.623130625631191  1.0000
  Zn  Zn6       1.0  0.7604211482494493  0.9338643304509946  0.1231301735278407  1.0000
  Zn  Zn7       1.0  0.26042141798952667  0.9338638280360527  0.3768705000878044  1.0000
  Zn  Zn8       1.0  0.23957853997372072  0.06613542239774262  0.8768699506172197  1.0000
  H   H1        1.0  0.6014125968733026  0.48569516977582355  0.453156677912837  1.0000
  H   H2        1.0  0.8985932427816439  0.5143022326644983  0.9531568697825821  1.0000
  H   H3        1.0  0.39859594518360103  0.5143010849385448  0.5468409422947716  1.0000
  H   H4        1.0  0.10140493583335092  0.4856949385408386  0.0468427535749143  1.0000
  H   H5        1.0  0.9647881854899013  0.7458756985123645  0.3074206838955504  1.0000
  H   H6        1.0  0.5352107020311152  0.25412491283939437  0.8074208262503788  1.0000
  H   H7        1.0  0.035208557631577306  0.2541257957749465  0.6925804418245037  1.0000
  H   H8        1.0  0.4647890047207142  0.7458765661906882  0.19257979868221753  1.0000
  H   H9        1.0  0.717219815121446  0.7642645098249049  0.33688903943563286  1.0000
  H   H10       1.0  0.7827775149465879  0.2357370291854934  0.8368900890032053  1.0000
  H   H11       1.0  0.2827769372654458  0.23573784755235042  0.6631115854977381  1.0000
  H   H12       1.0  0.2172207192543993  0.7642653205638723  0.1631110367168844  1.0000
  H   H13       1.0  0.41211348126143577  0.27004358837122316  0.45153759452096415  1.0000
  H   H14       1.0  0.08788181613332573  0.7299558292199609  0.9515370293275538  1.0000
  H   H15       1.0  0.587884715880776  0.7299553090164256  0.548463531198003  1.0000
  H   H16       1.0  0.9121149084602039  0.27004393888552164  0.04846309481800402  1.0000
  H   H17       1.0  0.2587024161813503  0.1580246762629258  0.48165841713509383  1.0000
  H   H18       1.0  0.24129573026683465  0.8419721950003876  0.9816583750567321  1.0000
  H   H19       1.0  0.7412987260611104  0.8419724796871223  0.5183427085828073  1.0000
  H   H20       1.0  0.7587024483467176  0.1580249762059225  0.018342249874706302  1.0000
  H   H21       1.0  0.8823488253403085  0.26354449432682264  0.453697408405489  1.0000
  H   H22       1.0  0.6176481867203307  0.7364589965617725  0.9536978391447877  1.0000
  H   H23       1.0  0.11764941812608501  0.7364587185124806  0.5463032165279104  1.0000
  H   H24       1.0  0.3823485934620764  0.2635459500857991  0.0463017842154869  1.0000
  H   H25       1.0  0.0413817385242581  0.4485682768631136  0.4285861470604503  1.0000
  H   H26       1.0  0.4586136713184956  0.5514354118339925  0.9285863432804223  1.0000
  H   H27       1.0  0.9586165049428601  0.5514349359757065  0.5714139770859817  1.0000
  H   H28       1.0  0.5413816270476559  0.4485695424429181  0.071414281654036  1.0000
  H   H29       1.0  0.10007891972713169  0.3325070003493736  0.2225167689583643  1.0000
  H   H30       1.0  0.39992445583917663  0.6674927996755643  0.7225170606825487  1.0000
  H   H31       1.0  0.899923732126389  0.6674927372421353  0.7774828543992316  1.0000
  H   H32       1.0  0.6000782052797577  0.3325078010058888  0.2774820618883639  1.0000
  H   H33       1.0  0.9373980742761321  0.15098217961340055  0.25738736849243793  1.0000
  H   H34       1.0  0.5626068753917934  0.8490174414591108  0.757386889658129  1.0000
  H   H35       1.0  0.0626075412041374  0.8490175427232959  0.7426142580125301  1.0000
  H   H36       1.0  0.43739727680737417  0.1509840146839139  0.2426117321258374  1.0000
  H   H37       1.0  0.3142239347681652  0.6928938603031655  0.3539488919341452  1.0000
  H   H38       1.0  0.1857790250736429  0.3071027413110628  0.8539460141879048  1.0000
  H   H39       1.0  0.6857786985545289  0.30710415110845457  0.6460517329968241  1.0000
  H   H40       1.0  0.8142206538906008  0.6928961484433741  0.14605010366113197  1.0000
  H   H41       1.0  0.09377860735049379  0.6393480839347774  0.39125603782977697  1.0000
  H   H42       1.0  0.4062257453474416  0.36065030831847633  0.8912546241997107  1.0000
  H   H43       1.0  0.9062284714159292  0.36064990459220775  0.6087450878874137  1.0000
  H   H44       1.0  0.5937754246941439  0.6393494368994723  0.10874299601025683  1.0000
  C   C1        1.0  0.806962620199691  0.8892500776786395  0.2654833539900494  1.0000
  C   C2        1.0  0.6930378792256277  0.11075130810439049  0.7654843515668901  1.0000
  C   C3        1.0  0.19303709581755166  0.11075226444138056  0.7345167701558495  1.0000
  C   C4        1.0  0.3069633093402969  0.8892501632977955  0.2345167741524179  1.0000
  C   C5        1.0  0.855159301754  0.8096908446979257  0.3238400253411342  1.0000
  C   C6        1.0  0.644841029539279  0.19031065384233875  0.8238410910342538  1.0000
  C   C7        1.0  0.14483893244915444  0.19031150504998354  0.6761595980180461  1.0000
  C   C8        1.0  0.35515867721183275  0.8096908251882198  0.17616003468531014  1.0000
  C   C9        1.0  0.5649787130420094  0.13670888398969794  0.5044431647162284  1.0000
  C   C10       1.0  0.9350210288604898  0.863289415766218  0.0044436099216796  1.0000
  C   C11       1.0  0.4350224292026113  0.8632882719589009  0.4955564586407706  1.0000
  C   C12       1.0  0.06498013191207969  0.13670946636420206  0.9955570150098226  1.0000
  C   C13       1.0  0.40097151744734555  0.17579361807878519  0.45719846140835335  1.0000
  C   C14       1.0  0.0990267180019728  0.8242049321037327  0.9571984550043666  1.0000
  C   C15       1.0  0.599028161510404  0.8242052716800075  0.5428021635233975  1.0000
  C   C16       1.0  0.9009729609557767  0.17579395765505987  0.04280216992738421  1.0000
  C   C17       1.0  0.933695715154208  0.2818211823605878  0.40306934572330994  1.0000
  C   C18       1.0  0.5663014242427452  0.7181804845227759  0.9030692807827521  1.0000
  C   C19       1.0  0.066304000862317  0.718181159759922  0.5969312792095637  1.0000
  C   C20       1.0  0.4336938555954647  0.281822743572306  0.0969303425772168  1.0000
  C   C21       1.0  0.02559140780492441  0.38581997670475954  0.3885151590933944  1.0000
  C   C22       1.0  0.47440410822125767  0.6141827714769974  0.8885158919324924  1.0000
  C   C23       1.0  0.97440534458341  0.6141823806715223  0.6114844642660416  1.0000
  C   C24       1.0  0.5255911901456117  0.38582218279942987  0.11148423221499831  1.0000
  C   C25       1.0  0.0925678721931504  0.4064424707426399  0.3229581342703085  1.0000
  C   C26       1.0  0.40743225962575014  0.5935584017029287  0.8229583750900957  1.0000
  C   C27       1.0  0.9074318345594037  0.5935590082869594  0.6770419898753205  1.0000
  C   C28       1.0  0.5925674563922173  0.4064439404166081  0.17704124826883572  1.0000
  C   C29       1.0  0.05703878258886161  0.3206481394652344  0.2746116373903931  1.0000
  C   C30       1.0  0.4429615070501783  0.6793543657462777  0.7746124233554711  1.0000
  C   C31       1.0  0.942960933429106  0.6793542026543024  0.7253879859685385  1.0000
  C   C32       1.0  0.5570397000465733  0.32064883183579707  0.2253877007904634  1.0000
  C   C33       1.0  0.9653230413531092  0.21919468042442958  0.2935767564399185  1.0000
  C   C34       1.0  0.5346773678680921  0.7808058965499571  0.7935772438056077  1.0000
  C   C35       1.0  0.034676665399445  0.7808067986051695  0.7064233677057032  1.0000
  C   C36       1.0  0.46532677506493775  0.2191946965036067  0.20642237955202347  1.0000
  C   C37       1.0  0.23940430877950553  0.6141931545083708  0.3716116349798213  1.0000
  C   C38       1.0  0.26059711835554833  0.38580348886474514  0.871611287817096  1.0000
  C   C39       1.0  0.7606012789095686  0.3858039785551028  0.6283879883764315  1.0000
  C   C40       1.0  0.7394010787895554  0.6141954085209707  0.128387834753994  1.0000
  C   C41       1.0  0.35994514952833623  0.5635727997397666  0.4278264379132608  1.0000
  C   C42       1.0  0.14005455971687303  0.4364170551545783  0.9278236600389178  1.0000
  C   C43       1.0  0.6400648280184741  0.4364191318950502  0.5721721838666272  1.0000
  C   C44       1.0  0.8599376545858561  0.5635766941986662  0.0721719570227108  1.0000
  S   S1        1.0  0.9356632189576005  0.8832715885995556  0.3994834068100915  1.0000
  S   S2        1.0  0.5643354125840434  0.11673006372772932  0.8994844510974644  1.0000
  S   S3        1.0  0.0643349967154379  0.1167290349679817  0.6005167173355019  1.0000
  S   S4        1.0  0.43566430343175716  0.883272278393257  0.1005166746223765  1.0000
  S   S5        1.0  0.4079807341064382  0.11392051296821391  0.3734503329279946  1.0000
  S   S6        1.0  0.0920192429738051  0.8860795939485868  0.873450870152027  1.0000
  S   S7        1.0  0.5920204451962334  0.8860800953425784  0.6265497912170943  1.0000
  S   S8        1.0  0.9079804452479224  0.11392015890111651  0.1265502555669684  1.0000
  S   S9        1.0  0.21899085540426458  0.5291124801035282  0.2965726896261458  1.0000
  S   S10       1.0  0.2810049162535648  0.4708892273358957  0.7965733929568017  1.0000
  S   S11       1.0  0.7810058877200987  0.47088901418184315  0.7034264329460385  1.0000
  S   S12       1.0  0.718988891033078  0.5291148714789601  0.2034272319776278  1.0000
  N   N1        1.0  0.9038213785692619  0.19904893576842397  0.35686271160785316  1.0000
  N   N2        1.0  0.5961773942974632  0.8009543603871663  0.8568631917140125  1.0000
  N   N3        1.0  0.09617833744798081  0.8009534063515957  0.643137412538053  1.0000
  N   N4        1.0  0.40382085843507565  0.1990497155415981  0.14313643164573622  1.0000
  O   O1        1.0  0.8290048593549173  0.8444225412115927  0.20724681911352863  1.0000
  O   O2        1.0  0.670994307512679  0.1555770134934704  0.7072473525824492  1.0000
  O   O3        1.0  0.1709948288675278  0.15557721163762747  0.7927538058184994  1.0000
  O   O4        1.0  0.32900539923987543  0.8444244655361219  0.29275277156317264  1.0000
  O   O5        1.0  0.7441798373329577  0.9905121173504909  0.2755371967524098  1.0000
  O   O6        1.0  0.7558221149410826  0.009489280230191402  0.7755381071531319  1.0000
  O   O7        1.0  0.2558213512344096  0.009489354050728599  0.7244629273929705  1.0000
  O   O8        1.0  0.24418056470507568  0.9905130466335734  0.22446251777923726  1.0000
  O   O9        1.0  0.7125652981216749  0.07941872055091181  0.48314064536847934  1.0000
  O   O10       1.0  0.7874360374953754  0.9205813519813404  0.9831411402015536  1.0000
  O   O11       1.0  0.2874358719163084  0.9205810246694526  0.5168594787763326  1.0000
  O   O12       1.0  0.21256363219841026  0.07941667468653432  0.0168589839429458  1.0000
  O   O13       1.0  0.5447996923646272  0.16446259112721862  0.5660199427717816  1.0000
  O   O14       1.0  0.9551983995776467  0.8355366983270403  0.06602086388365791  1.0000
  O   O15       1.0  0.4551985047797516  0.8355363062589805  0.4339796805862832  1.0000
  O   O16       1.0  0.04479979756384011  0.16446219906109152  0.9339807626222765  1.0000
  O   O17       1.0  0.5319370641625696  0.5189815083816072  0.4110340061009837  1.0000
  O   O18       1.0  0.9680658961604466  0.48101237556640114  0.9110366570091912  1.0000
  O   O19       1.0  0.46807295044590097  0.4810138756129874  0.5889626125321499  1.0000
  O   O20       1.0  0.03193372720843261  0.5189813356503024  0.0889644687078359  1.0000
  O   O21       1.0  0.2943194903652683  0.5669066486704254  0.48628130957061444  1.0000
  O   O22       1.0  0.20568751511725486  0.43308845957828623  0.9862855187095507  1.0000
  O   O23       1.0  0.7056890609584912  0.43309046913292093  0.5137148082763688  1.0000
  O   O24       1.0  0.7943196099668627  0.5669138444047094  0.0137196133047865  1.0000
