data_image0
_chemical_formula_structural       Zn2H36C52N8O10
_chemical_formula_sum              "Zn2 H36 C52 N8 O10"
_cell_length_a       8.632140733336472
_cell_length_b       11.006245051416144
_cell_length_c       14.343384946304036
_cell_angle_alpha    111.76136277643084
_cell_angle_beta     100.44832921393308
_cell_angle_gamma    98.38147713660611

_space_group_name_H-M_alt    "P 1"
_space_group_IT_number       1

loop_
  _space_group_symop_operation_xyz
  'x, y, z'

loop_
  _atom_site_type_symbol
  _atom_site_label
  _atom_site_symmetry_multiplicity
  _atom_site_fract_x
  _atom_site_fract_y
  _atom_site_fract_z
  _atom_site_occupancy
  Zn  Zn1       1.0  0.13662946830201853  0.7780160212280547  0.8796432266811322  1.0000
  Zn  Zn2       1.0  0.8633725766714377  0.22198227927430733  0.1203578472936329  1.0000
  H   H1        1.0  0.1646801956215356  0.4700830200852195  0.49942781972557526  1.0000
  H   H2        1.0  0.8353232829293589  0.5299163065462481  0.5005723057877987  1.0000
  H   H3        1.0  0.3368400574637107  0.325850290770873  0.41131225452207326  1.0000
  H   H4        1.0  0.663162198553863  0.6741530469093815  0.5886896190732074  1.0000
  H   H5        1.0  0.5453363127542161  0.2972849541454891  0.6969577043027256  1.0000
  H   H6        1.0  0.4546621337785978  0.7027133863208518  0.30303952976256443  1.0000
  H   H7        1.0  0.37721313876500057  0.44825452431535945  0.786360225561175  1.0000
  H   H8        1.0  0.6227870596664077  0.5517458208899626  0.21363847082078283  1.0000
  H   H9        1.0  0.6504265263818995  0.2318670680511658  0.3409799577132446  1.0000
  H   H10       1.0  0.3495671432860447  0.7681313104903463  0.6590133162750788  1.0000
  H   H11       1.0  0.5193453671354007  0.06356576589664087  0.15682320382069284  1.0000
  H   H12       1.0  0.4806450729474249  0.9364335947144014  0.843171424561767  1.0000
  H   H13       1.0  0.18962329466244637  0.8505838473852018  0.26491365387369825  1.0000
  H   H14       1.0  0.8103787250438329  0.14941447136932598  0.7350860283382872  1.0000
  H   H15       1.0  0.3162450486907317  0.019909613477672394  0.4489800882714973  1.0000
  H   H16       1.0  0.6837598634375934  0.9800907392829  0.5510190887804922  1.0000
  H   H17       1.0  0.020039067624182352  0.7825765851862839  0.6583147348996192  1.0000
  H   H18       1.0  0.9799645182037651  0.21741868287716665  0.3416870017712838  1.0000
  H   H19       1.0  0.25575024730672874  0.10212322336901984  0.946628594016431  1.0000
  H   H20       1.0  0.7442423387973988  0.8978790658343735  0.05337408274907316  1.0000
  H   H21       1.0  0.21675600797041025  0.205967548239137  0.7958186189343053  1.0000
  H   H22       1.0  0.7832333988660096  0.7940277245368178  0.20417958808233996  1.0000
  H   H23       1.0  0.04162470300929749  0.20866705384744924  0.658803065368474  1.0000
  H   H24       1.0  0.9583742005972268  0.7913242028492319  0.34119562650159446  1.0000
  H   H25       1.0  0.05388264048872315  0.7896202271601493  0.5120393266778791  1.0000
  H   H26       1.0  0.9461203718648578  0.21037303805313454  0.48796106784386956  1.0000
  H   H27       1.0  0.9257936497855112  0.6117818767117311  0.9728722793126747  1.0000
  H   H28       1.0  0.07420391780232899  0.38822143516111396  0.027130505375353706  1.0000
  H   H29       1.0  0.7857028329801777  0.82475377261435  0.7934304922893174  1.0000
  H   H30       1.0  0.21430178609416828  0.17524558328417325  0.2065676657474  1.0000
  H   H31       1.0  0.510900442583356  0.7114614443978551  0.8376992877952388  1.0000
  H   H32       1.0  0.4891032470116484  0.28854291941151183  0.16230163733865768  1.0000
  H   H33       1.0  0.7185797010733596  0.406231316859362  0.9272036725953257  1.0000
  H   H34       1.0  0.281423446739744  0.5937750022809352  0.07280195392716138  1.0000
  H   H35       1.0  0.446742387648939  0.715079018356121  0.9972198742730212  1.0000
  H   H36       1.0  0.5532583213058329  0.2849313373224118  0.0027852925197037613  1.0000
  C   C1        1.0  0.17238493380824588  0.5695668429926499  0.7044688228952153  1.0000
  C   C2        1.0  0.8276147416831635  0.4304314628581735  0.2955313148631404  1.0000
  C   C3        1.0  0.2625130927527692  0.4704725901088265  0.649412061454548  1.0000
  C   C4        1.0  0.7374894877942849  0.5295277406219511  0.3505882670252092  1.0000
  C   C5        1.0  0.2486269517859014  0.4330178939148225  0.5429157701823897  1.0000
  C   C6        1.0  0.7513744377033262  0.5669824440532235  0.45708374224846426  1.0000
  C   C7        1.0  0.34348949841380966  0.3511504769939505  0.4932015053621156  1.0000
  C   C8        1.0  0.6565162676092695  0.6488528846049062  0.5067993369729109  1.0000
  C   C9        1.0  0.45183563057016574  0.3049496252519788  0.5499279071809511  1.0000
  C   C10       1.0  0.5481645931284261  0.6950507017011772  0.45007218096377943  1.0000
  C   C11       1.0  0.46306647907838544  0.33726313040710915  0.6551577474136322  1.0000
  C   C12       1.0  0.5369383636736699  0.6627412535432312  0.3448419061249908  1.0000
  C   C13       1.0  0.36896113781275364  0.4204629567677784  0.7041231128384524  1.0000
  C   C14       1.0  0.6310376144076316  0.5795363714345282  0.2958758361234998  1.0000
  C   C15       1.0  0.48823076648395153  0.1348698849327973  0.4035297092445944  1.0000
  C   C16       1.0  0.5117691515270693  0.8651294542843999  0.5964686640034812  1.0000
  C   C17       1.0  0.5503252751198318  0.14735085377122906  0.32332064420720735  1.0000
  C   C18       1.0  0.44967135013811094  0.8526495131459058  0.6766756040280626  1.0000
  C   C19       1.0  0.47754836740001133  0.05400658730525269  0.22152435411984328  1.0000
  C   C20       1.0  0.5224452707924314  0.9459957950477783  0.7784714839992829  1.0000
  C   C21       1.0  0.34550002757408294  0.9487481807210683  0.20039371165037068  1.0000
  C   C22       1.0  0.6545001834909172  0.05125215535817059  0.799605680612977  1.0000
  C   C23       1.0  0.2904568070251158  0.9346480547506882  0.28287398952334536  1.0000
  C   C24       1.0  0.7095422382492486  0.06535227031365307  0.7171259784538859  1.0000
  C   C25       1.0  0.360312395326467  0.027818353746482685  0.3844066567512384  1.0000
  C   C26       1.0  0.6396866120471213  0.9721819986961147  0.6155912235818234  1.0000
  C   C27       1.0  0.25620259963038444  0.8535949785158363  0.09161016522750734  1.0000
  C   C28       1.0  0.7437985347056467  0.14640433521192617  0.9083904158322367  1.0000
  C   C29       1.0  0.07744458485085204  0.8839524066580468  0.7156894275111156  1.0000
  C   C30       1.0  0.9225556829568261  0.11604390735750769  0.284308792384202  1.0000
  C   C31       1.0  0.1993957057849656  0.0528354620477032  0.8639531003842507  1.0000
  C   C32       1.0  0.8005978224320952  0.9471618101187783  0.1360475051654717  1.0000
  C   C33       1.0  0.1798061671934974  0.10484023212215018  0.7904563718022999  1.0000
  C   C34       1.0  0.8201850041751083  0.8951570362667024  0.20954399341240304  1.0000
  C   C35       1.0  0.025056882342880702  0.11727087064929978  0.5895183866168664  1.0000
  C   C36       1.0  0.974943130311594  0.8827244191259633  0.4104809019073485  1.0000
  C   C37       1.0  0.05352385423717717  0.9991183202020151  0.5973070434441113  1.0000
  C   C38       1.0  0.9464755975765299  0.0008749575969915004  0.402691598812339  1.0000
  C   C39       1.0  0.029129764160806815  0.8817627614272181  0.5075054578684899  1.0000
  C   C40       1.0  0.9708732481927739  0.11823050378605865  0.49249493665325866  1.0000
  C   C41       1.0  0.8508045800527596  0.6499427294027667  0.9263667395687278  1.0000
  C   C42       1.0  0.1491941533257233  0.35006059348497587  0.0736354694054242  1.0000
  C   C43       1.0  0.7734169141748666  0.7624463491684564  0.8361508709818181  1.0000
  C   C44       1.0  0.22658590889179914  0.23755501492869502  0.1638476929876447  1.0000
  C   C45       1.0  0.6377306936431921  0.7101772331674422  0.8584225626613318  1.0000
  C   C46       1.0  0.3622697852086034  0.2898241180260043  0.14157645685451567  1.0000
  C   C47       1.0  0.5930231754612549  0.568888582787295  0.9585425211265955  1.0000
  C   C48       1.0  0.4069772719150464  0.4311167722176705  0.04145906252005464  1.0000
  C   C49       1.0  0.624010755560036  0.4483987141007972  0.9597087078599384  1.0000
  C   C50       1.0  0.3759914689820363  0.5516086273909834  0.040295729866151896  1.0000
  C   C51       1.0  0.4696150232992478  0.6210370337396466  0.9984761113410766  1.0000
  C   C52       1.0  0.5303906924064207  0.37897432635617173  0.0015305551369522341  1.0000
  N   N1        1.0  0.1355312673710429  0.9154427784376294  0.816180692651109  1.0000
  N   N2        1.0  0.8644654777975447  0.08455352078540558  0.18381786262307998  1.0000
  N   N3        1.0  0.10255171474699411  0.9965366733169743  0.6963968018340551  1.0000
  N   N4        1.0  0.897447667690443  0.0034606356718072007  0.3036023169090284  1.0000
  N   N5        1.0  0.9047688985171832  0.7247414896839429  0.8793397930914039  1.0000
  N   N6        1.0  0.09523251623922847  0.27525883003194435  0.12066111110222975  1.0000
  N   N7        1.0  0.6890801409679099  0.6387702010615255  0.9154327728056371  1.0000
  N   N8        1.0  0.3109200386215889  0.3612341388292392  0.0845691835885134  1.0000
  O   O1        1.0  0.5555341610428925  0.2300404617013712  0.5049239662831084  1.0000
  O   O2        1.0  0.4444674709659537  0.769960909633049  0.49507378163746546  1.0000
  O   O3        1.0  0.052155597230196776  0.5911397288133243  0.6552187153406308  1.0000
  O   O4        1.0  0.9478469706832654  0.4088606110435362  0.34478091725773646  1.0000
  O   O5        1.0  0.23433398624467108  0.6327241495400668  0.804942082185235  1.0000
  O   O6        1.0  0.7656672301012221  0.36727112387183775  0.1950587182692658  1.0000
  O   O7        1.0  0.2871279237048867  0.8885810358742957  0.018370170572993172  1.0000
  O   O8        1.0  0.7128717770537064  0.11141725172436168  0.9816313589481424  1.0000
  O   O9        1.0  0.15755766271914945  0.7485163543859199  0.07654398086680199  1.0000
  O   O10       1.0  0.8424419560295746  0.25148597352859525  0.9234573292595839  1.0000
