data_image0
_chemical_formula_structural       Zn2H28C48S4N8O16
_chemical_formula_sum              "Zn2 H28 C48 S4 N8 O16"
_cell_length_a       9.9816000550243
_cell_length_b       10.483161582431167
_cell_length_c       14.765
_cell_angle_alpha    89.7305550407368
_cell_angle_beta     89.43411060019855
_cell_angle_gamma    61.570511180472174

_space_group_name_H-M_alt    "P 1"
_space_group_IT_number       1

loop_
  _space_group_symop_operation_xyz
  'x, y, z'

loop_
  _atom_site_type_symbol
  _atom_site_label
  _atom_site_symmetry_multiplicity
  _atom_site_fract_x
  _atom_site_fract_y
  _atom_site_fract_z
  _atom_site_occupancy
  Zn  Zn1       1.0  0.06319865142745582  0.8735969779148506  0.7500021828602855  1.0000
  Zn  Zn2       1.0  0.9367923930800188  0.1264007765969666  0.2500038444718982  1.0000
  H   H1        1.0  0.5810988788191763  0.15102076858534025  0.7229473996856655  1.0000
  H   H2        1.0  0.2678754284533085  0.151030531105846  0.7770522439880666  1.0000
  H   H3        1.0  0.41888690773631493  0.8489834942734762  0.27704915913921013  1.0000
  H   H4        1.0  0.7321021773036804  0.848978070650972  0.2229396140297908  1.0000
  H   H5        1.0  0.40118929724051355  0.6621125809458448  0.7541597065616018  1.0000
  H   H6        1.0  0.936691063795919  0.6621158351193444  0.7458521189503742  1.0000
  H   H7        1.0  0.5988044590731931  0.3378797499434611  0.2458483526053996  1.0000
  H   H8        1.0  0.0633045306418154  0.3378808346679634  0.254162686230103  1.0000
  H   H9        1.0  0.25089440964525517  0.649819398181414  0.4402811127601112  1.0000
  H   H10       1.0  0.0993078180235898  0.64981397455891  0.05972331583095071  1.0000
  H   H11       1.0  0.7491120024963251  0.3501957119224031  0.5597220449072678  1.0000
  H   H12       1.0  0.9007070608576555  0.3501761868813915  0.940283932271072  1.0000
  H   H13       1.0  0.2603460418421335  0.32961848814748157  0.5024364676132649  1.0000
  H   H14       1.0  0.4100218592784513  0.3296282506679874  0.9975603435094557  1.0000
  H   H15       1.0  0.7396492587250734  0.6703727580173293  0.4975526210991958  1.0000
  H   H16       1.0  0.5899842136128084  0.6703695038438298  0.0024218787740863984  1.0000
  H   H17       1.0  0.46132352734643683  0.165929222120532  0.3957582931244374  1.0000
  H   H18       1.0  0.37274297916588484  0.1659357304675311  0.1042393100784693  1.0000
  H   H19       1.0  0.5386804135502743  0.8340587698707793  0.604236844259745  1.0000
  H   H20       1.0  0.6272700241408983  0.8340641934932835  0.8957489541845618  1.0000
  H   H21       1.0  0.07158010079572814  0.8084766272504356  0.5551511229039222  1.0000
  H   H22       1.0  0.11995934565778303  0.8084668647299369  0.9448511642304567  1.0000
  H   H23       1.0  0.9284257689845958  0.1915395675778839  0.4448486483761727  1.0000
  H   H24       1.0  0.8800463505327087  0.1915276356083737  0.0551561306954014  1.0000
  H   H25       1.0  0.5963585632359595  0.4859522373363845  0.6485494225812403  1.0000
  H   H26       1.0  0.9176791036728172  0.48596091513238804  0.8514673250096506  1.0000
  H   H27       1.0  0.40363836441498796  0.5140357546549268  0.35146269356262394  1.0000
  H   H28       1.0  0.08232058116416138  0.5140335852059223  0.14854678282627992  1.0000
  C   C1        1.0  0.554242969522356  0.1560246027062533  0.6511831499117376  1.0000
  C   C2        1.0  0.2897459610990296  0.1560235179817511  0.8488150471049066  1.0000
  C   C3        1.0  0.4457523764246502  0.8439785754280609  0.3488147032634572  1.0000
  C   C4        1.0  0.710244752087476  0.8439829143260624  0.1511760533634643  1.0000
  C   C5        1.0  0.6315258057180769  0.0695373488305364  0.4991455583972169  1.0000
  C   C6        1.0  0.29895138631351864  0.0695319252080395  0.0008500251339143001  1.0000
  C   C7        1.0  0.36847717866617563  0.9304625751302709  0.5008515773656725  1.0000
  C   C8        1.0  0.7010530594939933  0.9304690834772772  0.9991416790307853  1.0000
  C   C9        1.0  0.6667633854101708  0.0604441033426539  0.5917283190873945  1.0000
  C   C10       1.0  0.27281012379204117  0.06043651027115261  0.9082665831389322  1.0000
  C   C11       1.0  0.33323496621359544  0.9395590747916601  0.4082688367421312  1.0000
  C   C12       1.0  0.7271860583867352  0.9395710067611702  0.0917251544696072  1.0000
  C   C13       1.0  0.44327327535233974  0.549709089303633  0.5331649632443174  1.0000
  C   C14       1.0  0.007028597517226846  0.5497025809566267  0.9668470919222756  1.0000
  C   C15       1.0  0.5567290010101899  0.4502962582796855  0.4668416410197409  1.0000
  C   C16       1.0  0.992984902770999  0.4502843263101753  0.03316627174584141  1.0000
  C   C17       1.0  0.4097693515291921  0.2538710915514457  0.6196456564223354  1.0000
  C   C18       1.0  0.336380698679001  0.2538591595819426  0.8803497174990795  1.0000
  C   C19       1.0  0.5902271245201048  0.7461418491033741  0.3803440292830658  1.0000
  C   C20       1.0  0.6636201990905164  0.7461429338278763  0.1196379430693071  1.0000
  C   C21       1.0  0.37405263676787115  0.6515874991172695  0.6840814193559481  1.0000
  C   C22       1.0  0.9743625116756858  0.6515853296682651  0.8159290156006875  1.0000
  C   C23       1.0  0.625941872947365  0.3484113401190428  0.3159279676046509  1.0000
  C   C24       1.0  0.025644434897785097  0.3484026623230392  0.1840837109261528  1.0000
  C   C25       1.0  0.29210192102777915  0.6438447356325342  0.5089138377715798  1.0000
  C   C26       1.0  0.06406247589762872  0.6438382272855279  0.9910940703130109  1.0000
  C   C27       1.0  0.7078978091889923  0.3561616966752794  0.491090748038765  1.0000
  C   C28       1.0  0.9359454725680934  0.3561497647057763  0.008915263137659196  1.0000
  C   C29       1.0  0.37415617310750077  0.2568866256629008  0.5274006304251913  1.0000
  C   C30       1.0  0.36896783266459465  0.256887710387403  0.9725934125918059  1.0000
  C   C31       1.0  0.6258458093845078  0.7431132982979136  0.4725910938083757  1.0000
  C   C32       1.0  0.6310465866856491  0.7431013663284105  0.027394201157207504  1.0000
  C   C33       1.0  0.4858300925266901  0.165069035591614  0.4674526023435703  1.0000
  C   C34       1.0  0.3491074915277679  0.1650657814181145  0.0325449616122313  1.0000
  C   C35       1.0  0.514171972795559  0.8349287189201959  0.5325431922446242  1.0000
  C   C36       1.0  0.650907138862756  0.8349308883692004  0.9674453344845091  1.0000
  C   C37       1.0  0.18910893844251578  0.7356612409793187  0.5731784429395503  1.0000
  C   C38       1.0  0.07524058443775056  0.7356558173568146  0.926828680076163  1.0000
  C   C39       1.0  0.8108937974510225  0.2643451913284949  0.4268261228024812  1.0000
  C   C40       1.0  0.9247702868744835  0.264334344083494  0.0731819811703431  1.0000
  C   C41       1.0  0.48194671386808335  0.5555373140449404  0.6237345623475578  1.0000
  C   C42       1.0  0.962518901467291  0.5555362293204453  0.8762786737939336  1.0000
  C   C43       1.0  0.5180493401006528  0.4444604404668695  0.3762754952015115  1.0000
  C   C44       1.0  0.03749096795269941  0.44445393211986334  0.1237340259740449  1.0000
  C   C45       1.0  0.8113507974169847  0.9467931024856499  0.635464182267441  1.0000
  C   C46       1.0  0.24186563652043702  0.9467822552406417  0.8645384857130907  1.0000
  C   C47       1.0  0.18864129436254018  0.0532165839956704  0.3645390891231628  1.0000
  C   C48       1.0  0.7581220709893157  0.0532241770671718  0.1354614394290863  1.0000
  S   S1        1.0  0.26113587480843836  0.3782998390064592  0.6902747469211334  1.0000
  S   S2        1.0  0.36056287106038803  0.3783074320779605  0.8097199087293064  1.0000
  S   S3        1.0  0.7388570078230572  0.6217022544033526  0.30971432171743635  1.0000
  S   S4        1.0  0.6394257555113683  0.6217011696788575  0.1902671347633174  1.0000
  N   N1        1.0  0.22891852325658843  0.7405316539866647  0.6595093163028736  1.0000
  N   N2        1.0  0.030557589950788562  0.7405262303641678  0.8404957899410164  1.0000
  N   N3        1.0  0.7710848378284397  0.2594715241476493  0.3404952561302678  1.0000
  N   N4        1.0  0.9694456429241924  0.2594671852496475  0.1595122023310509  1.0000
  N   N5        1.0  0.7461932752086682  0.9798164551795807  0.4326071152676079  1.0000
  N   N6        1.0  0.2739963644762397  0.9798186246285782  0.0673887259075698  1.0000
  N   N7        1.0  0.2538112534290917  0.0201823840567315  0.5673906910837517  1.0000
  N   N8        1.0  0.7260039081017877  0.0201867229547332  0.9326050234658111  1.0000
  O   O1        1.0  0.8333995046329293  0.8194041418687092  0.6394219554246378  1.0000
  O   O2        1.0  0.3471995600433288  0.8193954640727057  0.8605829088241707  1.0000
  O   O3        1.0  0.16657926867679146  0.1806001209901069  0.3605868412185131  1.0000
  O   O4        1.0  0.6527861436819151  0.1806109682351078  0.1394197388062537  1.0000
  O   O5        1.0  0.8805577066653638  0.9079773209589278  0.4574764379043614  1.0000
  O   O6        1.0  0.21147394000058028  0.9079794904079322  0.0425214889045264  1.0000
  O   O7        1.0  0.11944406478635725  0.09201500993037832  0.5425207313096223  1.0000
  O   O8        1.0  0.7885211574556977  0.09203019607338803  0.9574756669216598  1.0000
  O   O9        1.0  0.7042740359225659  0.9808285031385681  0.3532608661253249  1.0000
  O   O10       1.0  0.31489667264010995  0.9808404351080711  0.14673566466039742  1.0000
  O   O11       1.0  0.2957334155617062  0.019172505546748705  0.6467328498031008  1.0000
  O   O12       1.0  0.685106522784423  0.019167081924244708  0.8532567033994313  1.0000
  O   O13       1.0  0.8930303900300558  0.9984400901290584  0.6710917905219348  1.0000
  O   O14       1.0  0.10853451906041998  0.9984324970575572  0.8289135535275989  1.0000
  O   O15       1.0  0.1069655811084402  0.0015598338317488  0.32890945573108604  1.0000
  O   O16       1.0  0.8914556517648363  0.0015750199747586004  0.17108635154570348  1.0000
