data_image0
_chemical_formula_structural       Co2H44C64N8O10
_chemical_formula_sum              "Co2 H44 C64 N8 O10"
_cell_length_a       10.561957291958581
_cell_length_b       10.9604748096668
_cell_length_c       13.15871425225856
_cell_angle_alpha    113.45857438429582
_cell_angle_beta     91.0051939441353
_cell_angle_gamma    96.8604012528386

_space_group_name_H-M_alt    "P 1"
_space_group_IT_number       1

loop_
  _space_group_symop_operation_xyz
  'x, y, z'

loop_
  _atom_site_type_symbol
  _atom_site_label
  _atom_site_symmetry_multiplicity
  _atom_site_fract_x
  _atom_site_fract_y
  _atom_site_fract_z
  _atom_site_occupancy
  Co  Co1       1.0  0.41565327810968006  0.1729880667860186  0.2594202235594452  1.0000
  Co  Co2       1.0  0.5843521683533623  0.8270157168967458  0.7405813811988011  1.0000
  H   H1        1.0  0.6526232890921619  0.1456494378318993  0.1137299734183372  1.0000
  H   H2        1.0  0.34737356208292175  0.854346291063223  0.8862650179802074  1.0000
  H   H3        1.0  0.6522813714640564  0.21465647258691697  0.931291602792605  1.0000
  H   H4        1.0  0.34771626861920163  0.7853382692743764  0.06870536404782264  1.0000
  H   H5        1.0  0.28744390796538966  0.2385576979990135  0.06170190066445973  1.0000
  H   H6        1.0  0.7125542636293574  0.7614340424868047  0.9382956193270928  1.0000
  H   H7        1.0  0.5209075639014672  0.1503792638057675  0.7633584674402201  1.0000
  H   H8        1.0  0.4790929330981157  0.8496154626910979  0.23663703670762007  1.0000
  H   H9        1.0  0.45746226942976875  0.23402793547219147  0.6204079942762702  1.0000
  H   H10       1.0  0.5425387090522521  0.7659708439560905  0.379593401638502  1.0000
  H   H11       1.0  0.24321370496204509  0.511814023563666  0.8607363183881986  1.0000
  H   H12       1.0  0.7567850314551378  0.4881746912985391  0.1392587075690628  1.0000
  H   H13       1.0  0.31042009192393755  0.4327813760505633  0.0034301739933653166  1.0000
  H   H14       1.0  0.6895768921759712  0.5672083390496638  0.9965643798146787  1.0000
  H   H15       1.0  0.8550375642295905  0.7570592709519702  0.7101841459419307  1.0000
  H   H16       1.0  0.1449681313650188  0.24293951519977242  0.2898188750657269  1.0000
  H   H17       1.0  0.5082425899579589  0.4953363423137915  0.597432070395861  1.0000
  H   H18       1.0  0.49175859627331414  0.5046704046307154  0.40256356743665117  1.0000
  H   H19       1.0  0.7062251654615821  0.3427821322358469  0.5580169036531473  1.0000
  H   H20       1.0  0.2937722338178475  0.6572176010944376  0.4419778851415189  1.0000
  H   H21       1.0  0.8872988432035243  0.30192932047847876  0.6094892125774081  1.0000
  H   H22       1.0  0.11270174501957804  0.6980664404683526  0.39051043079939524  1.0000
  H   H23       1.0  0.1082213655446651  0.2533619980383719  0.6228394762231488  1.0000
  H   H24       1.0  0.8917791064717022  0.7466327466445861  0.37715831331374267  1.0000
  H   H25       1.0  0.2573843368439341  0.6567615578446181  0.6696120812153411  1.0000
  H   H26       1.0  0.7426142416652084  0.3432331889985889  0.3303856677214725  1.0000
  H   H27       1.0  0.03683435378968622  0.7056620913563664  0.6521209584354042  1.0000
  H   H28       1.0  0.9631650052998993  0.2943316745150355  0.3478795277396571  1.0000
  H   H29       1.0  0.6351149031675475  0.06096126745988071  0.5601290754331458  1.0000
  H   H30       1.0  0.3648788332503018  0.9390405815250706  0.43987924319377936  1.0000
  H   H31       1.0  0.8303605435169176  0.9993958376926317  0.6160099834713648  1.0000
  H   H32       1.0  0.1696280189075168  0.0006030345836691994  0.38400105189552386  1.0000
  H   H33       1.0  0.0078812662532641  0.030499037163529908  0.33151782541258973  1.0000
  H   H34       1.0  0.9921184493400543  0.9695058905045073  0.6685007473124074  1.0000
  H   H35       1.0  0.8078950744735282  0.0883832441347536  0.2757407303323092  1.0000
  H   H36       1.0  0.19210754800253943  0.9116216317966422  0.7242718089219765  1.0000
  H   H37       1.0  0.22903621214278763  0.7986979373604656  0.24030708287447317  1.0000
  H   H38       1.0  0.7709626319029328  0.2013198715664686  0.7596936300698687  1.0000
  H   H39       1.0  0.13782672868920542  0.5610916018030069  0.16052430212263868  1.0000
  H   H40       1.0  0.8621800880346983  0.4389221929676664  0.8394767961259076  1.0000
  H   H41       1.0  0.9283081130730153  0.6258676568541617  0.9051116506565009  1.0000
  H   H42       1.0  0.07170392773597462  0.37413504238354994  0.09488062439856293  1.0000
  H   H43       1.0  0.015306620592490102  0.865252412048129  0.990308587868441  1.0000
  H   H44       1.0  0.9846910526764958  0.1347563414344393  0.009686867461979897  1.0000
  C   C1        1.0  0.5775792518094959  0.1761498604656637  0.0757352797555555  1.0000
  C   C2        1.0  0.4224193100441694  0.8238448985016048  0.9242639927739731  1.0000
  C   C3        1.0  0.5784843677025435  0.20900270395531353  0.9856657115470141  1.0000
  C   C4        1.0  0.42151719225739737  0.7909930377253006  0.014331666740766061  1.0000
  C   C5        1.0  0.38770044313390173  0.22673577724069105  0.05404306853991163  1.0000
  C   C6        1.0  0.6122982848929296  0.7732599616182513  0.945953487051412  1.0000
  C   C7        1.0  0.419010068365786  0.2863980660802454  0.8912090037179893  1.0000
  C   C8        1.0  0.580989448569227  0.713596685744875  0.10878952731522422  1.0000
  C   C9        1.0  0.4622394100138293  0.2313797450148627  0.784539641353291  1.0000
  C   C10       1.0  0.5377590356330941  0.768613997688533  0.21545777733632585  1.0000
  C   C11       1.0  0.42720418946459665  0.27745524247200143  0.7049494394451798  1.0000
  C   C12       1.0  0.5727992640025691  0.7225404970483639  0.2950479794426712  1.0000
  C   C13       1.0  0.3478702420180894  0.37749342144412873  0.7333832988800069  1.0000
  C   C14       1.0  0.6521292915724005  0.6225013182569228  0.2666137085604987  1.0000
  C   C15       1.0  0.3036912998981904  0.4325521856378673  0.8396909705904393  1.0000
  C   C16       1.0  0.6963049781893247  0.5674395570081926  0.16030650880103536  1.0000
  C   C17       1.0  0.3403464159369065  0.38730198754431916  0.9191584344455634  1.0000
  C   C18       1.0  0.6596515149166251  0.6126877264757838  0.08083613966252304  1.0000
  C   C19       1.0  0.7884507846351596  0.6661546730273074  0.6686551340642879  1.0000
  C   C20       1.0  0.2115541137235368  0.33384510622030217  0.3313466732978371  1.0000
  C   C21       1.0  0.6103939058649102  0.5273574680944577  0.6130427192276428  1.0000
  C   C22       1.0  0.3896048054438239  0.47264530082325973  0.3869561277940861  1.0000
  C   C23       1.0  0.7078378559097089  0.45051248393118476  0.5941616369662555  1.0000
  C   C24       1.0  0.29216248318182647  0.5494882745466683  0.4058365901611367  1.0000
  C   C25       1.0  0.9472081394911953  0.5083658980926631  0.632635510878245  1.0000
  C   C26       1.0  0.05279474082578873  0.4916328731133462  0.3673651638402475  1.0000
  C   C27       1.0  0.9672675063746965  0.38035245574952364  0.6225335243752141  1.0000
  C   C28       1.0  0.0327318860258359  0.6196412858737474  0.3774639146144381  1.0000
  C   C29       1.0  0.09128808418020638  0.3523338440880437  0.6297277650705837  1.0000
  C   C30       1.0  0.9087104943289289  0.6476609027551632  0.3702699838662369  1.0000
  C   C31       1.0  0.19457064058054394  0.4524590814517921  0.647688664494936  1.0000
  C   C32       1.0  0.8054284944232962  0.5475326458298326  0.35230735220394394  1.0000
  C   C33       1.0  0.17563499313735786  0.5797623521732902  0.6560879643606867  1.0000
  C   C34       1.0  0.8243653293613136  0.42023140049392554  0.3439110185217018  1.0000
  C   C35       1.0  0.05140573171988899  0.6070953965613411  0.6476760724898156  1.0000
  C   C36       1.0  0.9485945907787826  0.3928983561058815  0.3523229103925729  1.0000
  C   C37       1.0  0.5899190535226991  0.1265803601155184  0.3870065987983438  1.0000
  C   C38       1.0  0.4100798569511852  0.8734174476433695  0.6129982352509131  1.0000
  C   C39       1.0  0.7102148730188347  0.0858591169415277  0.41739264517122626  1.0000
  C   C40       1.0  0.2897822518268214  0.914139715303513  0.5826147639142222  1.0000
  C   C41       1.0  0.7185835999796737  0.058269067581598215  0.5122846220473605  1.0000
  C   C42       1.0  0.28141149010617994  0.9417357866806172  0.4877239458248681  1.0000
  C   C43       1.0  0.830517792265077  0.0228202948187075  0.5431278905394166  1.0000
  C   C44       1.0  0.16947415852454384  0.9771825786523892  0.4568830031237  1.0000
  C   C45       1.0  0.9395646578581066  0.015998591072211403  0.4819095449237381  1.0000
  C   C46       1.0  0.0604304322903602  0.9839992452552977  0.5180982551107861  1.0000
  C   C47       1.0  0.9282264836053001  0.039405822668115306  0.3842880743150445  1.0000
  C   C48       1.0  0.07177084034287867  0.9605950663528018  0.6157260896356362  1.0000
  C   C49       1.0  0.8156496585619379  0.07269751626017751  0.3522746200253337  1.0000
  C   C50       1.0  0.1843543509557151  0.9273033227656526  0.6477343534511348  1.0000
  C   C51       1.0  0.19290679566233143  0.9900037891064599  0.16321159832710216  1.0000
  C   C52       1.0  0.8070852882458722  0.0100130232415196  0.8367886422697808  1.0000
  C   C53       1.0  0.1287693184881888  0.8478074277602448  0.12055012611646991  1.0000
  C   C54       1.0  0.8712283380626998  0.15220835578109873  0.8794476206443633  1.0000
  C   C55       1.0  0.1613772152078212  0.7602423305806526  0.16763698910700237  1.0000
  C   C56       1.0  0.8386267945661957  0.23977144318224936  0.8323610010560287  1.0000
  C   C57       1.0  0.11034470607653192  0.6255005222124624  0.12120798880081203  1.0000
  C   C58       1.0  0.8896621439583329  0.3745132483100804  0.8787900622623185  1.0000
  C   C59       1.0  0.025696521188819987  0.5722085646850984  0.025265414424396233  1.0000
  C   C60       1.0  0.9743191570543105  0.4278001561510863  0.9747289030140109  1.0000
  C   C61       1.0  0.9925784208542725  0.6619889857874386  0.9798280182981288  1.0000
  C   C62       1.0  0.007434300921275403  0.3380187220252395  0.02016438440025331  1.0000
  C   C63       1.0  0.04191165652675007  0.7975044072093169  0.026877429865038556  1.0000
  C   C64       1.0  0.9580902189988193  0.2025073422481256  0.9731175738144415  1.0000
  N   N1        1.0  0.4582507671920625  0.1879913470031269  0.11776670341640033  1.0000
  N   N2        1.0  0.5417471386156335  0.8120054031377818  0.882230923918442  1.0000
  N   N3        1.0  0.4580653269527276  0.2411981582578235  0.972737942748509  1.0000
  N   N4        1.0  0.5419350371846363  0.7587955640992307  0.027257231152120257  1.0000
  N   N5        1.0  0.8206352916985935  0.5396184225242209  0.6299988557757743  1.0000
  N   N6        1.0  0.1793666335370432  0.46038035582394354  0.3700025604390405  1.0000
  N   N7        1.0  0.6619739561837718  0.6617534440091577  0.6600351637939144  1.0000
  N   N8        1.0  0.33803056018113153  0.33825032862966253  0.3399648970715887  1.0000
  O   O1        1.0  0.5856067279969964  0.1401490375266405  0.2928214399509201  1.0000
  O   O2        1.0  0.4143951388818436  0.8598568011904606  0.7071860766760666  1.0000
  O   O3        1.0  0.4994835505023332  0.14713748583112363  0.4491832565887037  1.0000
  O   O4        1.0  0.5005074706333659  0.8528572575289886  0.5508128063551184  1.0000
  O   O5        1.0  0.291316012032361  0.0168187645055298  0.23401573786932772  1.0000
  O   O6        1.0  0.7086794603036496  0.9831950311025469  0.7659835931860856  1.0000
  O   O7        1.0  0.1540694612677029  0.07224543287033212  0.1300359102848319  1.0000
  O   O8        1.0  0.8459229963065554  0.9277673921484679  0.8699668386050234  1.0000
  O   O9        1.0  0.31872542141873333  0.4251180492928909  0.6536954820033783  1.0000
  O   O10       1.0  0.6812775339105173  0.5748736494201127  0.3462975687102415  1.0000
