data_image0
_chemical_formula_structural       Cu3H10C10N2Cl6
_chemical_formula_sum              "Cu3 H10 C10 N2 Cl6"
_cell_length_a       3.788142109404912
_cell_length_b       9.12186698037437
_cell_length_c       12.60282410552337
_cell_angle_alpha    67.70950685281808
_cell_angle_beta     81.94434874776405
_cell_angle_gamma    83.15637367031898

_space_group_name_H-M_alt    "P 1"
_space_group_IT_number       1

loop_
  _space_group_symop_operation_xyz
  'x, y, z'

loop_
  _atom_site_type_symbol
  _atom_site_label
  _atom_site_symmetry_multiplicity
  _atom_site_fract_x
  _atom_site_fract_y
  _atom_site_fract_z
  _atom_site_occupancy
  Cu  Cu1       1.0  0.5019988703129596  0.9997763763137333  0.4983915675032831  1.0000
  Cu  Cu2       1.0  0.9544747668084738  0.9371238644995755  0.2688473429073851  1.0000
  Cu  Cu3       1.0  0.03795274924772938  0.06371244722613062  0.7307210827269156  1.0000
  H   H1        1.0  0.8920210074065336  0.8766035750875574  0.059154325036423844  1.0000
  H   H2        1.0  0.10732754349114511  0.12276439454986837  0.9398677105791577  1.0000
  H   H3        1.0  0.06405321501605242  0.6565824579329699  0.9887113075421751  1.0000
  H   H4        1.0  0.939819951970918  0.3420943598203863  0.011331985343829789  1.0000
  H   H5        1.0  0.3289321593132613  0.3935672286140033  0.12585189722238244  1.0000
  H   H6        1.0  0.6757884543226141  0.606116221036153  0.8750894163165623  1.0000
  H   H7        1.0  0.40380046832331123  0.3725291100415191  0.32530208306749836  1.0000
  H   H8        1.0  0.5962035035131449  0.6286950957516239  0.6758058654974091  1.0000
  H   H9        1.0  0.21892375976901238  0.606631468190507  0.38199217129166385  1.0000
  H   H10       1.0  0.7757045200630871  0.39486227360939796  0.618098464262701  1.0000
  C   C1        1.0  0.10526730805782589  0.6380298479612918  0.07682705832988992  1.0000
  C   C2        1.0  0.8970083697296403  0.36129863645546584  0.9232486596379132  1.0000
  C   C3        1.0  0.010539386262642749  0.7636089658021279  0.11473826506761482  1.0000
  C   C4        1.0  0.9892510792382864  0.23615121339631884  0.8847652860777016  1.0000
  C   C5        1.0  0.19097781613195508  0.6113815031466743  0.2959360400058911  1.0000
  C   C6        1.0  0.8060527462191516  0.3896421756358137  0.704108064802277  1.0000
  C   C7        1.0  0.29300474329698284  0.48190636690252825  0.26349607919640755  1.0000
  C   C8        1.0  0.7069447263451135  0.5188455804521155  0.7371014966205747  1.0000
  C   C9        1.0  0.25095864444912047  0.4950349628458993  0.15197459838210384  1.0000
  C   C10       1.0  0.7516021454040213  0.5047958142963013  0.848626610968985  1.0000
  N   N1        1.0  0.054020141697606106  0.7500968595348994  0.22224301624284945  1.0000
  N   N2        1.0  0.9430442592694773  0.2504005895599164  0.7772922397020565  1.0000
  Cl  Cl1       1.0  0.8960820465869047  0.12959560343725945  0.3496001465187246  1.0000
  Cl  Cl2       1.0  0.10496506488828318  0.8725264904514703  0.6491216443163806  1.0000
  Cl  Cl3       1.0  0.6017261174530333  0.7907047513615382  0.4387340871884787  1.0000
  Cl  Cl4       1.0  0.40016615297825103  0.20686468798930951  0.5623305709414266  1.0000
  Cl  Cl5       1.0  0.4186980687584382  0.065076727828199  0.1443897785353627  1.0000
  Cl  Cl6       1.0  0.5827011449507893  0.9329716331388413  0.8563040866809429  1.0000
