data_image0
_chemical_formula_structural       Al6H62C99O31
_chemical_formula_sum              "Al6 H62 C99 O31"
_cell_length_a       12.558904809200294
_cell_length_b       12.812211291176446
_cell_length_c       27.683902605307587
_cell_angle_alpha    90.70988914592509
_cell_angle_beta     90.01784688972437
_cell_angle_gamma    60.75149233676664

_space_group_name_H-M_alt    "P 1"
_space_group_IT_number       1

loop_
  _space_group_symop_operation_xyz
  'x, y, z'

loop_
  _atom_site_type_symbol
  _atom_site_label
  _atom_site_symmetry_multiplicity
  _atom_site_fract_x
  _atom_site_fract_y
  _atom_site_fract_z
  _atom_site_occupancy
  Al  Al1       1.0  0.8524023814148408  0.5728948358571273  0.49680073651138906  1.0000
  Al  Al2       1.0  0.597407607813814  0.5748015419387899  0.4964406008322158  1.0000
  Al  Al3       1.0  0.5927629842488926  0.8109394876011466  0.49864260149136197  1.0000
  Al  Al4       1.0  0.8308523473364031  0.07207259613538503  0.9841553847519933  1.0000
  Al  Al5       1.0  0.08823239623614398  0.06877691348739032  0.9818344119965586  1.0000
  Al  Al6       1.0  0.09134673564920352  0.8332434330230358  0.9842013970043553  1.0000
  H   H1        1.0  0.4295433436125008  0.9315909977138833  0.1946491502741381  1.0000
  H   H2        1.0  0.9545380022417047  0.6421446638810198  0.20148431093812036  1.0000
  H   H3        1.0  0.6656558410837689  0.3831874319924823  0.18519015365095018  1.0000
  H   H4        1.0  0.551377843416404  0.7627415402693174  0.27181259836028454  1.0000
  H   H5        1.0  0.7577282678972066  0.7137622424186179  0.2731653766842896  1.0000
  H   H6        1.0  0.676391011277694  0.520939574405354  0.2675244253856661  1.0000
  H   H7        1.0  0.5202394656861103  0.7748030741328124  0.1881876127415012  1.0000
  H   H8        1.0  0.7961374899177971  0.712648719711389  0.19026059896489037  1.0000
  H   H9        1.0  0.7152256567805677  0.49053312220872425  0.1842759793456068  1.0000
  H   H10       1.0  0.2629336920217683  0.7077389222754107  0.2005220922523563  1.0000
  H   H11       1.0  0.7432246348144814  0.026167524366137215  0.2021264756881465  1.0000
  H   H12       1.0  0.045599216989366226  0.27209582642321106  0.20547762598334876  1.0000
  H   H13       1.0  0.24238266413690468  0.0385609882698361  0.8568254228979768  1.0000
  H   H14       1.0  0.08246461414975677  0.7098768719947729  0.8509632051815927  1.0000
  H   H15       1.0  0.7491501452596766  0.1834151909559338  0.8514801111372918  1.0000
  H   H16       1.0  0.2573156149690732  0.12170663438578803  0.7780121779664029  1.0000
  H   H17       1.0  0.160731240949353  0.6225923475686559  0.769037720897451  1.0000
  H   H18       1.0  0.638739580841289  0.20256658858618695  0.7743994973427206  1.0000
  H   H19       1.0  0.2925733469630528  0.09972064472784582  0.690566649463868  1.0000
  H   H20       1.0  0.12633094336716513  0.6100943007176911  0.6824805936980668  1.0000
  H   H21       1.0  0.6044811236219158  0.25764444291151284  0.6889382830078787  1.0000
  H   H22       1.0  0.3168389102037709  0.674203660554099  0.8649892582695173  1.0000
  H   H23       1.0  0.7083886095451392  0.9812842962678376  0.8702283222870975  1.0000
  H   H24       1.0  0.04602767262527154  0.259812518762871  0.8556256542337763  1.0000
  H   H25       1.0  0.38588095605501144  0.5422496259274542  0.7914548765834155  1.0000
  H   H26       1.0  0.5654130257860146  0.0448135880214906  0.800528394054183  1.0000
  H   H27       1.0  0.10433098995165582  0.3301527987839777  0.7817278701870265  1.0000
  H   H28       1.0  0.42334436845891316  0.5179852341738995  0.7032266201977606  1.0000
  H   H29       1.0  0.5294707327308145  0.03268461940433551  0.7130659001058959  1.0000
  H   H30       1.0  0.07355767025630666  0.3816465129025985  0.6948791833489665  1.0000
  H   H31       1.0  0.45229080057826826  0.9180151018941417  0.2787127756017682  1.0000
  H   H32       1.0  0.9160091238951222  0.6418847648378831  0.284343149874644  1.0000
  H   H33       1.0  0.637871627672716  0.4055899923586638  0.2692309632704024  1.0000
  H   H34       1.0  0.4337378371700424  0.6030433622233248  0.6247442093370096  1.0000
  H   H35       1.0  0.6066088647448706  0.9426738182048243  0.6324498959578833  1.0000
  H   H36       1.0  0.9548296847643697  0.4138227177674097  0.6204162641875826  1.0000
  H   H37       1.0  0.16649999281215588  0.8989595390100863  0.2937780646350774  1.0000
  H   H38       1.0  0.9370228725902621  0.920839675072017  0.3014262061207518  1.0000
  H   H39       1.0  0.9555675556206041  0.1580532186931336  0.2910197219578805  1.0000
  H   H40       1.0  0.22678282278165104  0.9979007775803908  0.2956638835223586  1.0000
  H   H41       1.0  0.02135788290379287  0.7629272452801672  0.30017197413013  1.0000
  H   H42       1.0  0.8013451107766372  0.19233291378679238  0.2879183911027994  1.0000
  H   H43       1.0  0.20450032023929768  0.023433798505855905  0.21189644736062258  1.0000
  H   H44       1.0  0.05743901054517408  0.7674469234381578  0.21734584724035244  1.0000
  H   H45       1.0  0.8143602838650563  0.16863885783477883  0.20355639327773636  1.0000
  H   H46       1.0  0.13328544939946615  0.9338496218246563  0.2110753688444618  1.0000
  H   H47       1.0  0.9688362039749734  0.9251543447500981  0.21842670388700464  1.0000
  H   H48       1.0  0.9720104423132981  0.1197585522280562  0.20756988676713917  1.0000
  H   H49       1.0  0.4627608256090311  0.620806816746928  0.2713285647447492  1.0000
  H   H50       1.0  0.6347081860841755  0.9419011418416688  0.2748367678995294  1.0000
  H   H51       1.0  0.8962157512770544  0.4707127683588795  0.27376932529301  1.0000
  H   H52       1.0  0.30621708596988384  0.6763889542290472  0.2831514499359216  1.0000
  H   H53       1.0  0.7092988097774509  0.0261704006245225  0.28550243764529165  1.0000
  H   H54       1.0  0.01062990137238976  0.3246877634513866  0.2878542619516296  1.0000
  H   H55       1.0  0.42062711167280753  0.6431076049525333  0.1885410440564286  1.0000
  H   H56       1.0  0.670782136738744  0.9400152926501805  0.1916325005077724  1.0000
  H   H57       1.0  0.943470249125639  0.4226684021139918  0.1917276024749412  1.0000
  H   H58       1.0  0.4515194971457389  0.981621244168544  0.5929669908277688  1.0000
  H   H59       1.0  0.005551909748653776  0.5639047424191193  0.5888794136123038  1.0000
  H   H60       1.0  0.5556385051703927  0.443791331345672  0.592250634928007  1.0000
  H   H61       1.0  0.05918066570676215  0.5000875675389339  0.4749487759503451  1.0000
  H   H62       1.0  0.6311006287751652  0.1908705185717352  0.012775692645021802  1.0000
  C   C1        1.0  0.7721690870535622  0.7785734366696887  0.4312462436660809  1.0000
  C   C2        1.0  0.7661336257995258  0.4432160017501729  0.4272298207664065  1.0000
  C   C3        1.0  0.4550542651313236  0.765917075009611  0.4303515969787241  1.0000
  C   C4        1.0  0.3451353000073069  0.7132432316550565  0.2097969026953024  1.0000
  C   C5        1.0  0.7425953901675514  0.9442104742726015  0.2128487373066719  1.0000
  C   C6        1.0  0.9523944041504891  0.3456071368234036  0.21198865482427462  1.0000
  C   C7        1.0  0.37145662538407703  0.696219073854785  0.2645774860746002  1.0000
  C   C8        1.0  0.7193238786193559  0.9446497017038171  0.2677161405762902  1.0000
  C   C9        1.0  0.9276697594707739  0.3756015855784229  0.2664673549153846  1.0000
  C   C10       1.0  0.3021270771418613  0.8526718057853561  0.1425032493311775  1.0000
  C   C11       1.0  0.8896424099330242  0.8375366246615884  0.1473968226661526  1.0000
  C   C12       1.0  0.879801616302892  0.2837758105263078  0.1399156174516136  1.0000
  C   C13       1.0  0.38555472930082146  0.7971298361665192  0.339135870012278  1.0000
  C   C14       1.0  0.8057880041114486  0.8295399966017816  0.3424570414633051  1.0000
  C   C15       1.0  0.8083884359199729  0.37090088326385745  0.3359696858879532  1.0000
  C   C16       1.0  0.4067545397259095  0.7860436739386074  0.3822119286488358  1.0000
  C   C17       1.0  0.7910833115805505  0.8159939565306831  0.3848100811954041  1.0000
  C   C18       1.0  0.7915184528404635  0.3947095261650944  0.3788559614274902  1.0000
  C   C19       1.0  0.9172549513952004  0.18260959767701487  0.9096040137117  1.0000
  C   C20       1.0  0.23476113931837939  0.8805379984162873  0.9167623246101397  1.0000
  C   C21       1.0  0.9200980404296362  0.8620369666178007  0.9163994172122256  1.0000
  C   C22       1.0  0.915350557427125  0.21092457634944847  0.0487918723562757  1.0000
  C   C23       1.0  0.22810517257423865  0.8879490762035405  0.0516961522707717  1.0000
  C   C24       1.0  0.9202924207261417  0.8725773331920551  0.0556780421973144  1.0000
  C   C25       1.0  0.3702768778761436  0.893560995415932  0.6371229941036205  1.0000
  C   C26       1.0  0.9080931774783707  0.7298974336149089  0.6357785426917104  1.0000
  C   C27       1.0  0.7227142558277464  0.34996300059704316  0.6358287167871309  1.0000
  C   C28       1.0  0.3404214988180601  0.911527297385291  0.6870657646091942  1.0000
  C   C29       1.0  0.9323228407462024  0.7407277976724487  0.6850148337745664  1.0000
  C   C30       1.0  0.7473395896262076  0.30689851826178943  0.6839629432104388  1.0000
  C   C31       1.0  0.2949724699308689  0.9395941584612049  0.7890762680335967  1.0000
  C   C32       1.0  0.9738080415216359  0.7560826887679755  0.7858968997076872  1.0000
  C   C33       1.0  0.787895657293191  0.24075701029229896  0.7835247102996021  1.0000
  C   C34       1.0  0.7590732973352486  0.7852936844104692  0.5676420348945257  1.0000
  C   C35       1.0  0.7753096022887148  0.44535304962438  0.5652445392126921  1.0000
  C   C36       1.0  0.4522370032582189  0.7525128862973388  0.564806520604165  1.0000
  C   C37       1.0  0.2842286992377794  0.0360211242460124  0.7601981512471453  1.0000
  C   C38       1.0  0.0699726399253961  0.6769041611807227  0.7540397158163187  1.0000
  C   C39       1.0  0.6945932821586781  0.23408168416908381  0.756281549792071  1.0000
  C   C40       1.0  0.30477636636504  0.023496832406301807  0.7115665002636362  1.0000
  C   C41       1.0  0.05079451733877963  0.6695847477190782  0.7059276463145565  1.0000
  C   C42       1.0  0.674975290801143  0.2653113480166739  0.7088572567040288  1.0000
  C   C43       1.0  0.27081110692496674  0.9527492526025942  0.8388363195745965  1.0000
  C   C44       1.0  0.9924066689054881  0.7643238481189698  0.8353883080096765  1.0000
  C   C45       1.0  0.8061804963599569  0.21232131317334793  0.83256283225343  1.0000
  C   C46       1.0  0.27786687566310764  0.8577131893143105  0.8657416631052541  1.0000
  C   C47       1.0  0.8966677513207698  0.8448963042919505  0.8651261244522955  1.0000
  C   C48       1.0  0.8985302222657835  0.2196536812275483  0.8581520636927351  1.0000
  C   C49       1.0  0.40979517326768194  0.6876813894577226  0.6427730349175818  1.0000
  C   C50       1.0  0.6961801357464664  0.8858898568392138  0.6478626280677345  1.0000
  C   C51       1.0  0.8966082025195875  0.3860857571099459  0.6390701616489735  1.0000
  C   C52       1.0  0.3852524700554483  0.7008975097267867  0.69241439136767  1.0000
  C   C53       1.0  0.7159229997095764  0.8963569107582859  0.6969169961210255  1.0000
  C   C54       1.0  0.9201961410157152  0.3490544694075482  0.6869911096575336  1.0000
  C   C55       1.0  0.3515808348700985  0.8135096375008719  0.715197143941964  1.0000
  C   C56       1.0  0.834856957872766  0.8220695466023646  0.7160614369075731  1.0000
  C   C57       1.0  0.8438101155372164  0.3109418060611944  0.7101975765697048  1.0000
  C   C58       1.0  0.396358108819065  0.6037259596721186  0.7211409249194103  1.0000
  C   C59       1.0  0.6196613731125993  0.977434279606989  0.7284458365077171  1.0000
  C   C60       1.0  0.01612654787471261  0.35283973282838593  0.7136085342479035  1.0000
  C   C61       1.0  0.37545196756825283  0.6172228208621535  0.769787857847092  1.0000
  C   C62       1.0  0.6394500331601379  0.9841206681032589  0.7765321348953691  1.0000
  C   C63       1.0  0.033244565029143344  0.3239274295946473  0.7613047884115787  1.0000
  C   C64       1.0  0.33960905847479955  0.7294892502969647  0.7938192898054197  1.0000
  C   C65       1.0  0.7576878903171504  0.9111469587170054  0.7970050815610037  1.0000
  C   C66       1.0  0.9581553757101063  0.28575541687619943  0.7860002414931201  1.0000
  C   C67       1.0  0.459956208539701  0.835478953075942  0.2629313191154026  1.0000
  C   C68       1.0  0.8412225263716522  0.719100584610594  0.2665820876928322  1.0000
  C   C69       1.0  0.7080613706757717  0.4272362098987089  0.25710115103870373  1.0000
  C   C70       1.0  0.3288912483404116  0.8274425011286016  0.7658809552884873  1.0000
  C   C71       1.0  0.8554225047321822  0.8297618747978603  0.7661784672515424  1.0000
  C   C72       1.0  0.8637190576231359  0.27857964906780813  0.7596876059786624  1.0000
  C   C73       1.0  0.3126659636312824  0.7467494487615767  0.8434248108147385  1.0000
  C   C74       1.0  0.7804124279760387  0.9180834609986167  0.8461290494596766  1.0000
  C   C75       1.0  0.9743017000750526  0.25535561344055685  0.8350070587762843  1.0000
  C   C76       1.0  0.4070916672608433  0.7802475180366673  0.6155701680160064  1.0000
  C   C77       1.0  0.7890580075503164  0.802116911923669  0.617979491978609  1.0000
  C   C78       1.0  0.7972864464732226  0.39133747156170545  0.6142251555599075  1.0000
  C   C79       1.0  0.23517815865220384  0.9175213048457354  0.2774519483614313  1.0000
  C   C80       1.0  0.9455835889451905  0.8405928264941238  0.2830010018058644  1.0000
  C   C81       1.0  0.8686290139618152  0.21442347811429138  0.27270968707451  1.0000
  C   C82       1.0  0.21588831413132675  0.936099756392004  0.2223388114556712  1.0000
  C   C83       1.0  0.9684563138650331  0.8425571458239464  0.2282099316949768  1.0000
  C   C84       1.0  0.8812730067666974  0.19321074333127805  0.2173838935264456  1.0000
  C   C85       1.0  0.27767958722082403  0.8663505281085621  0.09971358489505629  1.0000
  C   C86       1.0  0.9047584731700767  0.8440820586315497  0.10442124369868108  1.0000
  C   C87       1.0  0.8946013135415569  0.2606089713124788  0.09693037847514321  1.0000
  C   C88       1.0  0.3634614060454879  0.8107164137084268  0.2874894083555333  1.0000
  C   C89       1.0  0.8266144012196435  0.8348876442780269  0.29132589369238093  1.0000
  C   C90       1.0  0.8279659798220392  0.34718387007205825  0.2845056704425275  1.0000
  C   C91       1.0  0.4410986132926028  0.8459054817376527  0.20753092450239308  1.0000
  C   C92       1.0  0.8662155890417794  0.7189334056509509  0.21190895206266447  1.0000
  C   C93       1.0  0.729346165936114  0.40839636878074986  0.2019366909749607  1.0000
  C   C94       1.0  0.32630215347952424  0.8367503536618985  0.1940052293932979  1.0000
  C   C95       1.0  0.8672807382266681  0.835365788747801  0.19865838628518864  1.0000
  C   C96       1.0  0.8614274854833397  0.3079909277149256  0.1913629470024745  1.0000
  C   C97       1.0  0.3646657032572592  0.9962710084456108  0.6094232796036536  1.0000
  C   C98       1.0  0.011665475898169686  0.6412524793022528  0.6041425838709388  1.0000
  C   C99       1.0  0.6136962421869184  0.35823434408602145  0.6107048822498129  1.0000
  O   O1        1.0  0.8453004342219685  0.4615515139094344  0.44772018284102444  1.0000
  O   O2        1.0  0.47084415103900285  0.672236258143258  0.45215734687690906  1.0000
  O   O3        1.0  0.6799163288353254  0.8541609268694902  0.456615122987138  1.0000
  O   O4        1.0  0.844103299347786  0.9758336435882955  0.0416748458558232  1.0000
  O   O5        1.0  0.016073218865251693  0.18978207505087147  0.027904525689230304  1.0000
  O   O6        1.0  0.206187102330169  0.808055580605981  0.033439790808778  1.0000
  O   O7        1.0  0.8460779572777852  0.6715696026746374  0.4423025724198054  1.0000
  O   O8        1.0  0.6603505878850059  0.46904351491163976  0.44466404373537216  1.0000
  O   O9        1.0  0.48483662423326745  0.8421849081243237  0.44670747087477736  1.0000
  O   O10       1.0  0.8435033762599459  0.48674413294445884  0.5521424787634999  1.0000
  O   O11       1.0  0.48695801851991394  0.6464704677966608  0.5483385755745118  1.0000
  O   O12       1.0  0.6490929316125498  0.8555246458874497  0.5527004253249359  1.0000
  O   O13       1.0  0.8397917673431647  0.7002550511429961  0.5427386340673265  1.0000
  O   O14       1.0  0.6867656890817454  0.4509275542177067  0.5395548674482882  1.0000
  O   O15       1.0  0.46191354145793173  0.8322089224933296  0.5408045426170743  1.0000
  O   O16       1.0  0.6788737055512185  0.6540383176852629  0.4968288194935012  1.0000
  O   O17       1.0  0.8388463092207628  0.9518790346034511  0.9390317556765735  1.0000
  O   O18       1.0  0.012283914643646207  0.17453704203315823  0.9312190875882038  1.0000
  O   O19       1.0  0.2160605690844973  0.8025242000670689  0.9377618602023716  1.0000
  O   O20       1.0  0.8408579184760752  0.15782572176517115  0.928348459699599  1.0000
  O   O21       1.0  0.21126438938512845  0.9812449827093702  0.9359689003312609  1.0000
  O   O22       1.0  0.02500069756177946  0.7867631911217786  0.9340330765808672  1.0000
  O   O23       1.0  0.005888713160437949  0.990511168739758  0.9839594906831761  1.0000
  O   O24       1.0  0.8363893938830529  0.18710708677927812  0.0317023653081563  1.0000
  O   O25       1.0  0.20423706260484648  0.9865525718999142  0.0320355932920933  1.0000
  O   O26       1.0  0.012326762314906009  0.7927767892660217  0.0312168361177996  1.0000
  O   O27       1.0  0.2715716792557927  0.09321885178158602  0.6071017925434886  1.0000
  O   O28       1.0  0.10239196020857826  0.6517223192468294  0.5974636255863288  1.0000
  O   O29       1.0  0.5845646114406619  0.2797418069577447  0.6112188888493294  1.0000
  O   O30       1.0  0.011489390469364473  0.49468634807100664  0.5011538385574497  1.0000
  O   O31       1.0  0.6707139492853215  0.14575717095051036  0.9837828174390495  1.0000
