data_image0
_chemical_formula_structural       Cu4H44C32S4N20O12
_chemical_formula_sum              "Cu4 H44 C32 S4 N20 O12"
_cell_length_a       9.162870403884599
_cell_length_b       11.210177716
_cell_length_c       11.426
_cell_angle_alpha    90.0
_cell_angle_beta     91.26075177584019
_cell_angle_gamma    90.0

_space_group_name_H-M_alt    "P 1"
_space_group_IT_number       1

loop_
  _space_group_symop_operation_xyz
  'x, y, z'

loop_
  _atom_site_type_symbol
  _atom_site_label
  _atom_site_symmetry_multiplicity
  _atom_site_fract_x
  _atom_site_fract_y
  _atom_site_fract_z
  _atom_site_occupancy
  Cu  Cu1       1.0  0.8334231906543081  0.5631543192209634  0.3069869696984995  1.0000
  Cu  Cu2       1.0  0.6665868166025817  0.0631560014422874  0.693029748096272  1.0000
  Cu  Cu3       1.0  0.1665842086005043  0.4368414242898666  0.6930268139295563  1.0000
  Cu  Cu4       1.0  0.3334216742775595  0.9368468784406901  0.3069831795960454  1.0000
  H   H1        1.0  0.8764354119048576  0.37721257478055753  0.5537935093341915  1.0000
  H   H2        1.0  0.6235178308348708  0.8772278414430802  0.4462397108177214  1.0000
  H   H3        1.0  0.12351522283279338  0.6227724641720584  0.44623940224176556  1.0000
  H   H4        1.0  0.3764360787787737  0.1227866350446334  0.5537915081479312  1.0000
  H   H5        1.0  0.7297864650798402  0.3983754863784199  0.6517223289059046  1.0000
  H   H6        1.0  0.7701274791480159  0.898371128017537  0.3482848171329493  1.0000
  H   H7        1.0  0.2701226878952808  0.6016273935045646  0.3482809692469644  1.0000
  H   H8        1.0  0.2297871319537492  0.1016228314002561  0.6517220781134867  1.0000
  H   H9        1.0  0.6069960814661286  0.3229038907058097  0.48291563556800543  1.0000
  H   H10       1.0  0.892956069648271  0.8228807993680505  0.5170545511445397  1.0000
  H   H11       1.0  0.3929545532715224  0.6771177221540513  0.5170507610420856  1.0000
  H   H12       1.0  0.1069967483400447  0.17709531911938112  0.4829145095786629  1.0000
  H   H13       1.0  0.5825742395845664  0.4790842871593952  0.46783130248080335  1.0000
  H   H14       1.0  0.9174008356617661  0.9790513833099368  0.5321637942302145  1.0000
  H   H15       1.0  0.4173982276596888  0.5209462461656501  0.5321591096696636  1.0000
  H   H16       1.0  0.08257381483314669  0.0209158147123176  0.4678284068364462  1.0000
  H   H17       1.0  0.5220796386749171  0.424048585172315  0.2797465768978356  1.0000
  H   H18       1.0  0.9778987114474019  0.9240799086721625  0.720235449642928  1.0000
  H   H19       1.0  0.4779004699466469  0.5759186128499394  0.7202317173240047  1.0000
  H   H20       1.0  0.022081397174162  0.07595330079243472  0.279743719775837  1.0000
  H   H21       1.0  0.5996559927475715  0.2811935796076526  0.2618321587671844  1.0000
  H   H22       1.0  0.9004075041504861  0.7811972496654392  0.7381627477053883  1.0000
  H   H23       1.0  0.4004059877737376  0.7188012718566625  0.7381607079967695  1.0000
  H   H24       1.0  0.09965556799615168  0.218809198403612  0.2618327639105047  1.0000
  H   H25       1.0  0.9118662952389371  0.6173104633410986  0.0559073793381728  1.0000
  H   H26       1.0  0.5881699110258722  0.1173050091902752  0.9440975479679921  1.0000
  H   H27       1.0  0.0881716695251171  0.3826977688209894  0.9440973164367464  1.0000
  H   H28       1.0  0.4118625956115309  0.8826898422740399  0.0559070515010376  1.0000
  H   H29       1.0  0.8321678215248696  0.5379879028494088  0.8566182413641101  1.0000
  H   H30       1.0  0.667832361104054  0.0379592554891133  0.143383424732427  1.0000
  H   H31       1.0  0.1678363028539565  0.4620426304756364  0.1433797309358624  1.0000
  H   H32       1.0  0.332166305148121  0.9620097266261781  0.8566179520493336  1.0000
  H   H33       1.0  0.6442783613597953  0.372846007073953  0.8508979855872809  1.0000
  H   H34       1.0  0.8557076301398325  0.8728015066197514  0.1490973037355161  1.0000
  H   H35       1.0  0.3557115718897421  0.6271979069488651  0.1490936099389444  1.0000
  H   H36       1.0  0.1442790282337043  0.12715498684427473  0.8508959844010207  1.0000
  H   H37       1.0  0.5453902059705911  0.29733605340106817  0.0385168858624994  1.0000
  H   H38       1.0  0.9546241677876139  0.7973147461563386  0.9614780290539996  1.0000
  H   H39       1.0  0.4546313844135099  0.7026828833192411  0.9614735178440484  1.0000
  H   H40       1.0  0.04539196446983599  0.20266940074975545  0.0385131535435761  1.0000
  H   H41       1.0  0.8140217336651645  0.34520862184697176  0.35430698981597425  1.0000
  H   H42       1.0  0.6859751740877654  0.8451846384626905  0.6456998696785519  1.0000
  H   H43       1.0  0.18597474933634567  0.6548138830594042  0.6456978492311123  1.0000
  H   H44       1.0  0.31402240053908054  0.15479237207125612  0.35430673902354937  1.0000
  C   C1        1.0  0.7748498503253598  0.4262947583051471  0.5679690511924278  1.0000
  C   C2        1.0  0.7251044840396972  0.9263002124559707  0.4320396827069217  1.0000
  C   C3        1.0  0.22510187603761977  0.5736983090661312  0.43203762373713056  1.0000
  C   C4        1.0  0.2748516088246049  0.0737053435665658  0.5679688196611821  1.0000
  C   C5        1.0  0.6640040310719256  0.4078204749131586  0.46925146128901213  1.0000
  C   C6        1.0  0.8359590362957687  0.907800951761466  0.5307355467767749  1.0000
  C   C7        1.0  0.3359564282936987  0.5921975697606356  0.5307334878069838  1.0000
  C   C8        1.0  0.1640046979458418  0.09217873491203932  0.4692503352996766  1.0000
  C   C9        1.0  0.6244413458640067  0.3772991032928275  0.2607098828963998  1.0000
  C   C10       1.0  0.8755697530182119  0.8772929608389077  0.739290225418081  1.0000
  C   C11       1.0  0.3755704198921279  0.6227055606831939  0.7392864738379785  1.0000
  C   C12       1.0  0.12444092111258699  0.1227045667649591  0.26070611205512506  1.0000
  C   C13       1.0  0.6776799132055018  0.41624139404499527  0.1439282633101442  1.0000
  C   C14       1.0  0.8223431935553476  0.9162254390793835  0.8560738072711302  1.0000
  C   C15       1.0  0.3223449520545927  0.5837721903962034  0.8560691997552895  1.0000
  C   C16       1.0  0.1776805800794108  0.0837622760127914  0.1439245117300416  1.0000
  C   C17       1.0  0.8306974022054305  0.5468414645425739  0.0451797287300053  1.0000
  C   C18       1.0  0.6693453538113587  0.0468333342521987  0.9548200629617085  1.0000
  C   C19       1.0  0.1693471123106036  0.453168551712551  0.954821581824305  1.0000
  C   C20       1.0  0.33069370257802416  0.9531597331190798  0.045178525695952494  1.0000
  C   C21       1.0  0.7853338199941716  0.5029483156143755  0.93656467793749  1.0000
  C   C22       1.0  0.7146925616426643  0.0029143159749694006  0.06344095121499288  1.0000
  C   C23       1.0  0.2146954117672379  0.49708756998978043  0.0634389885510913  1.0000
  C   C24       1.0  0.2853312119920943  0.9970528820472779  0.9365626189676917  1.0000
  C   C25       1.0  0.68130192605026  0.4118400365241827  0.9335239415458857  1.0000
  C   C26       1.0  0.8187102644572875  0.9118008883490916  0.0664726852420969  1.0000
  C   C27       1.0  0.318713114581861  0.5882012013590838  0.0664680969874283  1.0000
  C   C28       1.0  0.1813015012988473  0.0881618494405672  0.9335219210984463  1.0000
  C   C29       1.0  0.6268603875951655  0.3681868481093744  0.0380377048224645  1.0000
  C   C30       1.0  0.8731605359150194  0.86816464881813  0.9619573256610963  1.0000
  C   C31       1.0  0.3731655692902507  0.6318347647504865  0.9619527759287863  1.0000
  C   C32       1.0  0.12685996284375278  0.131817713994927  0.038034809178107296  1.0000
  S   S1        1.0  0.8244227398088952  0.5797071344127503  0.5862750368354526  1.0000
  S   S2        1.0  0.6755534270627663  0.0797141689131777  0.4137340822874478  1.0000
  S   S3        1.0  0.1755508190606889  0.420285932958528  0.4137302729238215  1.0000
  S   S4        1.0  0.3244212234321537  0.9202913871093515  0.5862721219299232  1.0000
  N   N1        1.0  0.9540248654814719  0.6899105612716028  0.2375623260135029  1.0000
  N   N2        1.0  0.5459960580287131  0.1899327605628471  0.7624878418759805  1.0000
  N   N3        1.0  0.0459956332773004  0.3100673413088657  0.7624875718223761  1.0000
  N   N4        1.0  0.4540255323553879  0.8100897443435287  0.23756032482724274  1.0000
  N   N5        1.0  0.0195149860234523  0.7686095812470697  0.2866212443788072  1.0000
  N   N6        1.0  0.48051927911318865  0.268621968026615  0.713401502694282  1.0000
  N   N7        1.0  0.9805142457379574  0.23137010542643574  0.7133946748666418  1.0000
  N   N8        1.0  0.5195132275242073  0.7313925084611057  0.286618850319293  1.0000
  N   N9        1.0  0.084378271503553  0.8484067104864439  0.3290680173118119  1.0000
  N   N10       1.0  0.4156778261396923  0.34840304042865716  0.6708999775789195  1.0000
  N   N11       1.0  0.9156782508911121  0.15159616939653384  0.6709019980263591  1.0000
  N   N12       1.0  0.584377604629637  0.6515935951286949  0.3290682681042298  1.0000
  N   N13       1.0  0.7323332269746032  0.4083539187310451  0.35366819294218743  1.0000
  N   N14       1.0  0.7676538561503534  0.9083361796723892  0.6463349924140616  1.0000
  N   N15       1.0  0.2676545230242695  0.5916632338962274  0.6463338664247189  1.0000
  N   N16       1.0  0.2323328022231905  0.09164707518718981  0.3536652972978303  1.0000
  N   N17       1.0  0.7778812938666206  0.5044362492067407  0.14572689796352734  1.0000
  N   N18       1.0  0.7221494542715305  0.004429903009395301  0.8542691810675506  1.0000
  N   N19       1.0  0.22215121277077537  0.49557019886231063  0.8542680743393872  1.0000
  N   N20       1.0  0.2778819607405367  0.9955667325479568  0.1457257719741847  1.0000
  O   O1        1.0  0.8853954726130624  0.6173086792480619  0.47061447922734356  1.0000
  O   O2        1.0  0.6145948853878876  0.11732731035323243  0.5293983910785514  1.0000
  O   O3        1.0  0.11459664388713259  0.3826692233324068  0.5293937835627105  1.0000
  O   O4        1.0  0.3853972311123073  0.8826925184135918  0.47061249730226246  1.0000
  O   O5        1.0  0.6923393497613546  0.6457756677369703  0.6151251327628202  1.0000
  O   O6        1.0  0.8076510082395953  0.14575950902793272  0.3848833615584795  1.0000
  O   O7        1.0  0.3076462169868606  0.3542405928437802  0.38487863847556975  1.0000
  O   O8        1.0  0.19233455850861247  0.8542255299246834  0.615119534482993  1.0000
  O   O9        1.0  0.9396154111261764  0.5852440671512369  0.6777885615767119  1.0000
  O   O10       1.0  0.5603705803734513  0.08525556188426012  0.3222111037306803  1.0000
  O   O11       1.0  0.060363605870058706  0.4147436479409309  0.3222098429130966  1.0000
  O   O12       1.0  0.43961280312409906  0.9147544543708648  0.6777882530007558  1.0000
