data_image0
_chemical_formula_structural       CoH30C38N2O12
_chemical_formula_sum              "Co1 H30 C38 N2 O12"
_cell_length_a       7.878336988873261
_cell_length_b       10.026892900829516
_cell_length_c       10.243647588755078
_cell_angle_alpha    91.36464438668393
_cell_angle_beta     99.6358314458368
_cell_angle_gamma    92.27128086476482

_space_group_name_H-M_alt    "P 1"
_space_group_IT_number       1

loop_
  _space_group_symop_operation_xyz
  'x, y, z'

loop_
  _atom_site_type_symbol
  _atom_site_label
  _atom_site_symmetry_multiplicity
  _atom_site_fract_x
  _atom_site_fract_y
  _atom_site_fract_z
  _atom_site_occupancy
  Co  Co1       1.0  0.49999432383137327  0.4999991021163338  0.4999951647117553  1.0000
  H   H1        1.0  0.34974792429608925  0.6140594166059472  0.6831470712894825  1.0000
  H   H2        1.0  0.6502356339325742  0.38593979514131144  0.3168426283545428  1.0000
  H   H3        1.0  0.5265797132333248  0.5412429103012214  0.731667728054802  1.0000
  H   H4        1.0  0.47340783149087423  0.4587583106956642  0.26831863803271716  1.0000
  H   H5        1.0  0.3731125285804921  0.6300388111025866  0.052268207615746576  1.0000
  H   H6        1.0  0.626890461846571  0.3699623736320702  0.9477221064805189  1.0000
  H   H7        1.0  0.972595764474782  0.4002653154878146  0.5438576098120435  1.0000
  H   H8        1.0  0.027393166416359797  0.5997378156666713  0.4561465607959007  1.0000
  H   H9        1.0  0.8382989038581671  0.17977631036341526  0.5682548151076787  1.0000
  H   H10       1.0  0.161694054780547  0.8202297532851258  0.43176167263892745  1.0000
  H   H11       1.0  0.23536273345280273  0.0075541561382478995  0.37741534107046687  1.0000
  H   H12       1.0  0.7646377601410846  0.9924488607295029  0.622609845504513  1.0000
  H   H13       1.0  0.3462987064610914  0.2380634595879627  0.35276335771052897  1.0000
  H   H14       1.0  0.6536938950440428  0.7619366220823593  0.6472509645831294  1.0000
  H   H15       1.0  0.6249607991960248  0.8808386957684174  0.3757833799533613  1.0000
  H   H16       1.0  0.37503802033780437  0.11915746518964448  0.6242140646919835  1.0000
  H   H17       1.0  0.6502551269211667  0.1088642076761417  0.28627287296755805  1.0000
  H   H18       1.0  0.3497415878985777  0.89113990862036  0.7137323312951834  1.0000
  H   H19       1.0  0.43080275832079457  0.1757035318940225  0.09779244982680518  1.0000
  H   H20       1.0  0.5691916790490055  0.8243055722896527  0.9022145516078054  1.0000
  H   H21       1.0  0.1856102712568912  0.0205490714205823  0.006049703044588696  1.0000
  H   H22       1.0  0.8143915376616844  0.9794540561916065  0.993952227222408  1.0000
  H   H23       1.0  0.8997414781752651  0.5764402836173658  0.8252599889775779  1.0000
  H   H24       1.0  0.1002601626721642  0.4235598953738488  0.17473207506866117  1.0000
  H   H25       1.0  0.6608176091118807  0.5987492326115028  0.9540037184907815  1.0000
  H   H26       1.0  0.33919309716952034  0.4012519057466049  0.04599442527271691  1.0000
  H   H27       1.0  0.707598706422253  0.7353557616452234  0.16358400116396143  1.0000
  H   H28       1.0  0.29241642094284265  0.2646333473165682  0.836422188393051  1.0000
  H   H29       1.0  0.9875717828598808  0.8562838787048506  0.2380451478759723  1.0000
  H   H30       1.0  0.012448383357778392  0.14370326183735926  0.761953828315839  1.0000
  C   C1        1.0  0.02794897041628989  0.3092577178601345  0.5131335828480416  1.0000
  C   C2        1.0  0.9720362136232835  0.6907473983069604  0.4868740636932996  1.0000
  C   C3        1.0  0.9564008753122903  0.18409841796497517  0.526220049500047  1.0000
  C   C4        1.0  0.043591907092000795  0.8159046641095955  0.4737934036324629  1.0000
  C   C5        1.0  0.031041527274794603  0.0664216044280721  0.48631068096886304  1.0000
  C   C6        1.0  0.9689525366348448  0.9335814518713972  0.5137078182261162  1.0000
  C   C7        1.0  0.1716461870288768  0.08944198364491028  0.41803380420725483  1.0000
  C   C8        1.0  0.8283513805898011  0.9105550792569943  0.5819840045088752  1.0000
  C   C9        1.0  0.2368551239670822  0.21609161406634306  0.4016729343156057  1.0000
  C   C10       1.0  0.763140115620132  0.7839094758177365  0.5983388284276997  1.0000
  C   C11       1.0  0.406811305052507  0.6811634357867858  0.28423381598560127  1.0000
  C   C12       1.0  0.593187824531931  0.31883776036721656  0.7157550231365731  1.0000
  C   C13       1.0  0.3963560376568224  0.8214467568176429  0.23856242880518852  1.0000
  C   C14       1.0  0.6036481790293421  0.17855342240662248  0.7614289919840969  1.0000
  C   C15       1.0  0.530235732455125  0.9125316262282369  0.2939763725923185  1.0000
  C   C16       1.0  0.4697684749015636  0.08746851533546618  0.7060228557474344  1.0000
  C   C17       1.0  0.5442625776308105  0.03952800770001369  0.24372941603094486  1.0000
  C   C18       1.0  0.4557379381205706  0.9604750986115747  0.7562772276116617  1.0000
  C   C19       1.0  0.4213628382197356  0.07695033177932938  0.1381542659429087  1.0000
  C   C20       1.0  0.5786298947692217  0.9230517940978229  0.8618503681011019  1.0000
  C   C21       1.0  0.28446190895006396  0.9885925651948066  0.08535659177731245  1.0000
  C   C22       1.0  0.7155372677173446  0.011409577741474696  0.914643018320987  1.0000
  C   C23       1.0  0.2696827729471494  0.8596531699978696  0.13323205954102235  1.0000
  C   C24       1.0  0.7303240184115507  0.14034700475188083  0.8667596939351154  1.0000
  C   C25       1.0  0.1092060205470986  0.7768048198409402  0.08201935217731197  1.0000
  C   C26       1.0  0.8908045094998726  0.22319333694320426  0.9179757569720974  1.0000
  C   C27       1.0  0.08161966990829939  0.6974386954718736  0.964069498190099  1.0000
  C   C28       1.0  0.9183908648034063  0.3025594801425483  0.0359217071840732  1.0000
  C   C29       1.0  0.21988714897326392  0.669857877726123  0.8859375222923942  1.0000
  C   C30       1.0  0.780108126765654  0.33014335809264134  0.11404398619283994  1.0000
  C   C31       1.0  0.9190810588052685  0.636121482446782  0.9173296305023654  1.0000
  C   C32       1.0  0.08092444055242248  0.3638786757099409  0.08266586040558369  1.0000
  C   C33       1.0  0.7857567083758284  0.6476129069076321  0.9896949114987589  1.0000
  C   C34       1.0  0.21424738032506244  0.35238524223251483  0.010303269708742803  1.0000
  C   C35       1.0  0.8120612727843904  0.7241520792578768  0.10718253526944466  1.0000
  C   C36       1.0  0.1879579079843339  0.27584006576453385  0.8928145006624388  1.0000
  C   C37       1.0  0.9707738691156109  0.7906405528590027  0.15041168512607328  1.0000
  C   C38       1.0  0.029242792226831703  0.20935257637319887  0.8495889574884073  1.0000
  N   N1        1.0  0.17036058595241602  0.32570359299649  0.45362559054177604  1.0000
  N   N2        1.0  0.8296283449387261  0.6742995381579958  0.5463785800661681  1.0000
  O   O1        1.0  0.46614110743707465  0.5973629386381984  0.6598795193647149  1.0000
  O   O2        1.0  0.5338538582512199  0.4026332619846329  0.3401105946436899  1.0000
  O   O3        1.0  0.23765614335074758  0.4475817879020453  0.4415747354691959  1.0000
  O   O4        1.0  0.7623262380341628  0.5524193855530297  0.5584226765703162  1.0000
  O   O5        1.0  0.4498902863704402  0.663864544538306  0.40834330693004256  1.0000
  O   O6        1.0  0.5501034507264038  0.3361326521797777  0.591647652272961  1.0000
  O   O7        1.0  0.38315304119176813  0.5878026779739045  0.19479408848091848  1.0000
  O   O8        1.0  0.6168473745627594  0.41219851123526025  0.8051958929284947  1.0000
  O   O9        1.0  0.374784177438201  0.6460255209877983  0.9526072094914679  1.0000
  O   O10       1.0  0.6252278278413069  0.3539756622087679  0.04738134117737047  1.0000
  O   O11       1.0  0.19189351789979978  0.6653540321192324  0.7630723202278913  1.0000
  O   O12       1.0  0.8081133333698957  0.3346471411960791  0.23691946884247267  1.0000
