data_image0
_chemical_formula_structural       Cd2H38C34N4O14
_chemical_formula_sum              "Cd2 H38 C34 N4 O14"
_cell_length_a       10.266305609858703
_cell_length_b       10.341200961122317
_cell_length_c       9.946690973894231
_cell_angle_alpha    82.35044188965341
_cell_angle_beta     77.19035353345231
_cell_angle_gamma    59.25386719743552

_space_group_name_H-M_alt    "P 1"
_space_group_IT_number       1

loop_
  _space_group_symop_operation_xyz
  'x, y, z'

loop_
  _atom_site_type_symbol
  _atom_site_label
  _atom_site_symmetry_multiplicity
  _atom_site_fract_x
  _atom_site_fract_y
  _atom_site_fract_z
  _atom_site_occupancy
  Cd  Cd1       1.0  0.6396384557576482  0.20222154798810985  0.994131713884471  1.0000
  Cd  Cd2       1.0  0.3603665269312656  0.7977713814796276  0.005880388407390993  1.0000
  H   H1        1.0  0.4837010544745723  0.49116151937831637  0.8449454435889905  1.0000
  H   H2        1.0  0.5162988900910502  0.5088294582692755  0.15506300467001213  1.0000
  H   H3        1.0  0.6359495185886244  0.47185542959336885  0.8667939277230801  1.0000
  H   H4        1.0  0.3640588627478323  0.5281305542150322  0.13319995989910183  1.0000
  H   H5        1.0  0.5689277111761225  0.8491330799447566  0.7066104811433577  1.0000
  H   H6        1.0  0.43106858230834877  0.15087091230629573  0.2933844317600531  1.0000
  H   H7        1.0  0.6504240593803272  0.9223831532877185  0.10733476845465623  1.0000
  H   H8        1.0  0.34957598611711654  0.07760563381807373  0.8926728699149109  1.0000
  H   H9        1.0  0.7062542708953996  0.9525552665590098  0.23159975600130892  1.0000
  H   H10       1.0  0.29374470328777846  0.04743566640424749  0.7684099308118277  1.0000
  H   H11       1.0  0.11372671292767213  0.21536693475088955  0.990865898394773  1.0000
  H   H12       1.0  0.8862734792454816  0.7846333632407936  0.009134509852224009  1.0000
  H   H13       1.0  0.13672057395628912  0.5147216416474194  0.2359531814722473  1.0000
  H   H14       1.0  0.863292542707981  0.48527286560652544  0.7640467898511079  1.0000
  H   H15       1.0  0.8571626289501281  0.6257647167798411  0.32898134558409714  1.0000
  H   H16       1.0  0.14284457401596734  0.3742375710513954  0.6710212436890617  1.0000
  H   H17       1.0  0.7091478754611984  0.5213923302384984  0.2604519109160394  1.0000
  H   H18       1.0  0.2908594603414869  0.47860771570167754  0.7395508725692396  1.0000
  H   H19       1.0  0.9684483067226137  0.0455238902229951  0.823774499295631  1.0000
  H   H20       1.0  0.03155830290108939  0.9544676056119243  0.17622126267821872  1.0000
  H   H21       1.0  0.13366168355221922  0.8748687038494722  0.6248857805851672  1.0000
  H   H22       1.0  0.8663358512053918  0.12512881280976274  0.37510445999424036  1.0000
  H   H23       1.0  0.00955220526872583  0.7909822817872865  0.48970559446233614  1.0000
  H   H24       1.0  0.9904377821320762  0.20902424909066042  0.510285510436539  1.0000
  H   H25       1.0  0.5832916964204813  0.0385518017012103  0.7727438444566063  1.0000
  H   H26       1.0  0.4167128291666768  0.9614459196441775  0.22726184480162465  1.0000
  H   H27       1.0  0.5274250898978821  0.8284379626099111  0.4280343133399783  1.0000
  H   H28       1.0  0.4725724758577669  0.1715694338295962  0.5719589524648327  1.0000
  H   H29       1.0  0.39658616570494587  0.8521917484401413  0.5863009004444565  1.0000
  H   H30       1.0  0.6034045159700695  0.147823383892316  0.4136962218642851  1.0000
  H   H31       1.0  0.6946445545393373  0.5621877155591478  0.4889228630066286  1.0000
  H   H32       1.0  0.305347157016861  0.4378194641236349  0.5110768300213948  1.0000
  H   H33       1.0  0.5839144658000919  0.5855231481364029  0.6561432472222749  1.0000
  H   H34       1.0  0.41607120965640837  0.4144899810266552  0.3438512251551771  1.0000
  H   H35       1.0  0.4532949368104367  0.6297849665427224  0.3929722158002776  1.0000
  H   H36       1.0  0.5466976270374886  0.37022832136287315  0.6070165990029538  1.0000
  H   H37       1.0  0.35597748562795317  0.6405509435027384  0.5650155724549536  1.0000
  H   H38       1.0  0.6440145158756038  0.3594614321868122  0.4349694402743723  1.0000
  C   C1        1.0  0.8172194105107451  0.2954711378429167  0.08468327411362955  1.0000
  C   C2        1.0  0.18278110071004494  0.7045286466562076  0.9153271751489884  1.0000
  C   C3        1.0  0.9039726287699068  0.36023493475288865  0.1239204830713376  1.0000
  C   C4        1.0  0.09602768580477761  0.6397671943358034  0.8760877637760345  1.0000
  C   C5        1.0  0.05991673961282358  0.3033972040640479  0.06645389699532701  1.0000
  C   C6        1.0  0.9400868208094268  0.6965984361029811  0.9335492086229137  1.0000
  C   C7        1.0  0.14488033437682188  0.35750381560127653  0.10695482467434664  1.0000
  C   C8        1.0  0.8551285764924967  0.6424930629019415  0.893043882044026  1.0000
  C   C9        1.0  0.31282912024919796  0.29384542633045646  0.049424278616257346  1.0000
  C   C10       1.0  0.687180724787012  0.7061436535708555  0.9505739865167017  1.0000
  C   C11       1.0  0.07099056015756126  0.47211778625403883  0.20414362702970837  1.0000
  C   C12       1.0  0.9290187535323113  0.5278802612115072  0.7958538612547557  1.0000
  C   C13       1.0  0.9145591059890421  0.5325136366464562  0.25822277663099413  1.0000
  C   C14       1.0  0.08545350692286036  0.4674818921869742  0.7417792230157048  1.0000
  C   C15       1.0  0.8313569194458593  0.4759995155383265  0.21883285435097835  1.0000
  C   C16       1.0  0.1686521871628414  0.5240049495048565  0.7811700759064807  1.0000
  C   C17       1.0  0.9214663347708621  0.003630878218245891  0.7638847510687868  1.0000
  C   C18       1.0  0.07853088244542741  0.9963693884189627  0.23611736463747232  1.0000
  C   C19       1.0  0.011748979856946326  0.9095302092114752  0.652793158654589  1.0000
  C   C20       1.0  0.9882437020816964  0.09047701515564201  0.34720529581930754  1.0000
  C   C21       1.0  0.944072032462479  0.8621016208990046  0.5791264777885203  1.0000
  C   C22       1.0  0.055926370839024644  0.13790806211588355  0.42086535525003654  1.0000
  C   C23       1.0  0.78753626141021  0.9079706534354557  0.6201654356686037  1.0000
  C   C24       1.0  0.21246446642008  0.09202857162749471  0.3798339483566124  1.0000
  C   C25       1.0  0.7053977589020306  0.9995833278681657  0.7350886449947965  1.0000
  C   C26       1.0  0.29460633717735624  0.0004112393701234008  0.2649134364016561  1.0000
  C   C27       1.0  0.7146449002406572  0.8627107354031053  0.5346184142026901  1.0000
  C   C28       1.0  0.28535048667088597  0.13729310946509807  0.4653797454579802  1.0000
  C   C29       1.0  0.5184475558599786  0.7912318489270831  0.5365589758717064  1.0000
  C   C30       1.0  0.48154326386915597  0.20877900502028982  0.46343451845503847  1.0000
  C   C31       1.0  0.5768589940936262  0.6226554004822804  0.5482571506930755  1.0000
  C   C32       1.0  0.42313022388164256  0.3773566357572663  0.4517355941048963  1.0000
  C   C33       1.0  0.47045896629126077  0.5844349861297929  0.4983861845302044  1.0000
  C   C34       1.0  0.5295337994202997  0.41557392069219645  0.5016010104941557  1.0000
  N   N1        1.0  0.7709202330806163  0.0470495765152918  0.8047411755645514  1.0000
  N   N2        1.0  0.22907564283743648  0.9529494251260074  0.19526440123130578  1.0000
  N   N3        1.0  0.6017757255277871  0.8362355900777915  0.6024755847736429  1.0000
  N   N4        1.0  0.39821358816177366  0.16377629211398673  0.3975201723290169  1.0000
  O   O1        1.0  0.6799744808348079  0.33563931591140067  0.1512823427524097  1.0000
  O   O2        1.0  0.32002722931930083  0.6643581173332294  0.8487300744728971  1.0000
  O   O3        1.0  0.5937986130123677  0.4125490887163751  0.843002888131231  1.0000
  O   O4        1.0  0.4062017076865771  0.58744107274876  0.15699951539817655  1.0000
  O   O5        1.0  0.8806383989604142  0.20168626472501935  0.9882935558168244  1.0000
  O   O6        1.0  0.11935795311605076  0.7983196613215497  0.01170718748383593  1.0000
  O   O7        1.0  0.6507057029788044  0.0026480915936204007  0.15441194811545245  1.0000
  O   O8        1.0  0.3492978531326469  0.9973396539379142  0.8455929585730645  1.0000
  O   O9        1.0  0.3837294620842044  0.18910891827340487  0.9626007245654337  1.0000
  O   O10       1.0  0.6162803415189086  0.8108743548357041  0.037402159730376645  1.0000
  O   O11       1.0  0.38421137507125974  0.34664299250892583  0.09449679939947235  1.0000
  O   O12       1.0  0.6157941537098494  0.6533447910420095  0.9055066342823538  1.0000
  O   O13       1.0  0.7609367757370007  0.8514088420052348  0.40662121591869044  1.0000
  O   O14       1.0  0.23905801170788266  0.148596178490223  0.5933759597606354  1.0000
