data_image0
_chemical_formula_structural       Cd2H48C48N4O22
_chemical_formula_sum              "Cd2 H48 C48 N4 O22"
_cell_length_a       10.526671002422752
_cell_length_b       11.345512157933006
_cell_length_c       11.257099652046564
_cell_angle_alpha    70.58147365942854
_cell_angle_beta     81.92027981867889
_cell_angle_gamma    73.80574391015232

_space_group_name_H-M_alt    "P 1"
_space_group_IT_number       1

loop_
  _space_group_symop_operation_xyz
  'x, y, z'

loop_
  _atom_site_type_symbol
  _atom_site_label
  _atom_site_symmetry_multiplicity
  _atom_site_fract_x
  _atom_site_fract_y
  _atom_site_fract_z
  _atom_site_occupancy
  Cd  Cd1       1.0  0.5437947473201206  0.41120120630367296  0.2895723565780841  1.0000
  Cd  Cd2       1.0  0.4562029922053413  0.588799691987326  0.7104275799055557  1.0000
  H   H1        1.0  0.10872189331085022  0.5683381788660853  0.3121663011774274  1.0000
  H   H2        1.0  0.8912738685722347  0.43165891464948203  0.6878352307911085  1.0000
  H   H3        1.0  0.40186885429668  0.9954739289894409  0.8541550761774487  1.0000
  H   H4        1.0  0.598133893319094  0.004525912113287201  0.14584269018936175  1.0000
  H   H5        1.0  0.19047485220625754  0.3801571680587585  0.854882126684963  1.0000
  H   H6        1.0  0.8095228289918952  0.6198437265603756  0.1451151542772564  1.0000
  H   H7        1.0  0.217799594994915  0.05925512413861608  0.2017248888553382  1.0000
  H   H8        1.0  0.7822060437786575  0.9407446629398563  0.7982724608295086  1.0000
  H   H9        1.0  0.5180770059593414  0.8367767972888982  0.9885658861530969  1.0000
  H   H10       1.0  0.4819255132775738  0.1632240085137582  0.011431585512980246  1.0000
  H   H11       1.0  0.3720656515647179  0.8038278156692088  0.9587809027237598  1.0000
  H   H12       1.0  0.6279340153992692  0.19617304660561527  0.04121875597190439  1.0000
  H   H13       1.0  0.4104998663080437  0.08490943507305099  0.6491088903727942  1.0000
  H   H14       1.0  0.5895021459673159  0.9150894593378426  0.35088930958873726  1.0000
  H   H15       1.0  0.5209908433283631  0.13581569546352765  0.7173599423900185  1.0000
  H   H16       1.0  0.4790073561503193  0.864190948891057  0.28263352223221727  1.0000
  H   H17       1.0  0.17381157580467033  0.21458372059740324  0.2757616572124206  1.0000
  H   H18       1.0  0.8261943302326245  0.7854151042290526  0.7242377575207685  1.0000
  H   H19       1.0  0.005590811790185091  0.24178552819697072  0.2367354049635111  1.0000
  H   H20       1.0  0.9944169018355213  0.7582055778061443  0.7632654822017245  1.0000
  H   H21       1.0  0.7044350191265991  0.1279335681546883  0.330189666978832  1.0000
  H   H22       1.0  0.29557416198682074  0.8720642477392316  0.6698167071635767  1.0000
  H   H23       1.0  0.8638980732530969  0.9830078211266055  0.2219345257841284  1.0000
  H   H24       1.0  0.1361099076387475  0.016994814595058496  0.7780677193332011  1.0000
  H   H25       1.0  0.9146396768101966  0.32619239841776704  0.9225043431460236  1.0000
  H   H26       1.0  0.08535949131810841  0.6738152073161244  0.0774993099671732  1.0000
  H   H27       1.0  0.7525498600985475  0.45496967051079895  0.04275900079749561  1.0000
  H   H28       1.0  0.24744684286825694  0.5450322202798644  0.957247861269856  1.0000
  H   H29       1.0  0.04512488153207528  0.11771860005536183  0.9069604630133127  1.0000
  H   H30       1.0  0.954875323154873  0.8822880131788721  0.09303626451617937  1.0000
  H   H31       1.0  0.3086344961224654  0.3908043603162453  0.2091304323753036  1.0000
  H   H32       1.0  0.6913653879014063  0.6091916989149623  0.790872609065616  1.0000
  H   H33       1.0  0.4211676337390315  0.37237568820251  0.10038314502889988  1.0000
  H   H34       1.0  0.578831286565567  0.6276203890367853  0.8996200353060148  1.0000
  H   H35       1.0  0.7788961758963424  0.4452618411203845  0.36458834789088707  1.0000
  H   H36       1.0  0.221099485581462  0.5547400627825352  0.6354151123752274  1.0000
  H   H37       1.0  0.6572850878448763  0.5260045808799844  0.43174814817466967  1.0000
  H   H38       1.0  0.3427100585479153  0.4739992487509212  0.568252067168558  1.0000
  H   H39       1.0  0.11294016308460192  0.3712277684728633  0.6154186307037294  1.0000
  H   H40       1.0  0.8870570694792976  0.6287712184263796  0.3845820340753645  1.0000
  H   H41       1.0  0.19023957335103603  0.1834362031060621  0.5284820485789155  1.0000
  H   H42       1.0  0.8097534593023427  0.8165638131817161  0.47151356603256295  1.0000
  H   H43       1.0  0.7837994150320212  0.14743935038700323  0.5865782507434717  1.0000
  H   H44       1.0  0.21619916836257866  0.8525538470887424  0.4134232970662026  1.0000
  H   H45       1.0  0.7272324618177919  0.3285786557741305  0.6769917980697002  1.0000
  H   H46       1.0  0.2727669152445246  0.6714154920653214  0.32301197166667356  1.0000
  H   H47       1.0  0.1453130590447955  0.009157317606522499  0.48186898436854614  1.0000
  H   H48       1.0  0.8546838868129498  0.9908426303207774  0.5181287301883941  1.0000
  C   C1        1.0  0.3127001357566144  0.014566607383485997  0.0342955374544118  1.0000
  C   C2        1.0  0.68730531352297  0.98543414684282  0.965703287877311  1.0000
  C   C3        1.0  0.34384491065122796  0.06029587459483569  0.9049489658822764  1.0000
  C   C4        1.0  0.6561597644030711  0.9397039304917243  0.09504852269655113  1.0000
  C   C5        1.0  0.2985605968729743  0.1923613506855517  0.8415645804006928  1.0000
  C   C6        1.0  0.7014380480444516  0.807639525925495  0.15843256166753855  1.0000
  C   C7        1.0  0.22358866946424175  0.27766818517778796  0.904734100169094  1.0000
  C   C8        1.0  0.7764087331512144  0.7223298333496614  0.09526420378931279  1.0000
  C   C9        1.0  0.19749144145423972  0.23020351051698634  0.03515070508027662  1.0000
  C   C10       1.0  0.8025093592805632  0.7697963653779635  0.9648464539007051  1.0000
  C   C11       1.0  0.2399889301350271  0.09878142210327917  0.10124775868744963  1.0000
  C   C12       1.0  0.7600148702887208  0.9012222442308799  0.8987503214360685  1.0000
  C   C13       1.0  0.42920678417525693  0.803357320803947  0.03359896058201161  1.0000
  C   C14       1.0  0.5707972138659372  0.1966415412626432  0.9664016171129647  1.0000
  C   C15       1.0  0.4751196430852219  0.6650061664292931  0.11601954885826163  1.0000
  C   C16       1.0  0.5248807284577667  0.3349918029697251  0.8839818791133992  1.0000
  C   C17       1.0  0.4348178555749058  0.16988685663746847  0.658623297771797  1.0000
  C   C18       1.0  0.5651829257174654  0.8301130180335221  0.34137297603538025  1.0000
  C   C19       1.0  0.473953536734392  0.24999099042448594  0.5279119829641417  1.0000
  C   C20       1.0  0.5260395461228312  0.7500128666548987  0.4720823139504232  1.0000
  C   C21       1.0  0.09068071919018197  0.28458574163410316  0.22060879532339334  1.0000
  C   C22       1.0  0.9093236772814208  0.7154111873607646  0.7793897162516288  1.0000
  C   C23       1.0  0.055342972308011384  0.40528493307714086  0.26335150080926445  1.0000
  C   C24       1.0  0.944657836550256  0.5947111056980674  0.7366496313900582  1.0000
  C   C25       1.0  0.7544895155131712  0.16639032343599064  0.23961223180299387  1.0000
  C   C26       1.0  0.24551847350213052  0.8336084751659385  0.7603939865326693  1.0000
  C   C27       1.0  0.8426957129642361  0.08698070795065152  0.1781676524503126  1.0000
  C   C28       1.0  0.15731253519133057  0.9130209655190026  0.8218366577153589  1.0000
  C   C29       1.0  0.9022870583809137  0.1414064608249319  0.05997151125284013  1.0000
  C   C30       1.0  0.09771491181648168  0.858597247645186  0.9400312725276904  1.0000
  C   C31       1.0  0.8706233318041685  0.27684692315600756  0.012218145081241995  1.0000
  C   C32       1.0  0.129377733001256  0.7231568069940622  0.9877874331147041  1.0000
  C   C33       1.0  0.7806812385164861  0.35005577785281616  0.07926977642787145  1.0000
  C   C34       1.0  0.21931714406756703  0.6499470403976417  0.9207356279769597  1.0000
  C   C35       1.0  0.9911839731221905  0.06418140942403029  0.987459460129877  1.0000
  C   C36       1.0  0.008816738526313438  0.9358271152019593  0.012536539104154185  1.0000
  C   C37       1.0  0.046992512492977305  0.31606978183645396  0.6068284503430519  1.0000
  C   C38       1.0  0.9530044528071999  0.6839301673147984  0.393170149387693  1.0000
  C   C39       1.0  0.08695661028043841  0.2123711441083528  0.5602497271747708  1.0000
  C   C40       1.0  0.9130400877560163  0.7876297672949092  0.43974680750763184  1.0000
  C   C41       1.0  0.9943487304335293  0.14602718232112008  0.553260043388633  1.0000
  C   C42       1.0  0.005650560735588851  0.8539707977422494  0.4467362124341817  1.0000
  C   C43       1.0  0.8622151043251733  0.18998782124658925  0.5936029598189876  1.0000
  C   C44       1.0  0.1377804291790525  0.810010236968907  0.40639827744881524  1.0000
  C   C45       1.0  0.8275678925537945  0.2932811673376036  0.6408400948219466  1.0000
  C   C46       1.0  0.1724278887717291  0.7067159274019231  0.35916232232039397  1.0000
  C   C47       1.0  0.039199785114725216  0.035377280295563196  0.5064429688180567  1.0000
  C   C48       1.0  0.9607976288197051  0.964624576575588  0.49355224709581336  1.0000
  N   N1        1.0  0.7222170676309007  0.29617704965284025  0.19092204972613303  1.0000
  N   N2        1.0  0.27778706650733653  0.7038218209814388  0.8090847241854889  1.0000
  N   N3        1.0  0.9197799942201642  0.35262623799946613  0.6470489250214085  1.0000
  N   N4        1.0  0.08021671193974807  0.6473708362840611  0.3529515828793279  1.0000
  O   O1        1.0  0.3505598182977322  0.8865879802937968  0.10275579491070626  1.0000
  O   O2        1.0  0.6494463468798273  0.1134137194003841  0.8972417116524909  1.0000
  O   O3        1.0  0.32559049636947174  0.24427767345616766  0.714972529528886  1.0000
  O   O4        1.0  0.674402625372622  0.7557261860711291  0.28502353773329503  1.0000
  O   O5        1.0  0.13004381313031393  0.32294319334411625  0.0895212172113347  1.0000
  O   O6        1.0  0.869958148941201  0.6770518602751707  0.9104783004471103  1.0000
  O   O7        1.0  0.4421119992420728  0.6318971099333694  0.23321390900738237  1.0000
  O   O8        1.0  0.5578853418529732  0.36810572142934467  0.7667880935962187  1.0000
  O   O9        1.0  0.5468285297978002  0.5878249348721382  0.05964112527563257  1.0000
  O   O10       1.0  0.45317085858349065  0.412173051311008  0.9403595564162118  1.0000
  O   O11       1.0  0.5725059103779913  0.1932993433242842  0.4723163971028441  1.0000
  O   O12       1.0  0.42748717247923207  0.8067045137551003  0.5276778998117209  1.0000
  O   O13       1.0  0.40782273394668767  0.3663876373774499  0.48110948459152064  1.0000
  O   O14       1.0  0.5921672682587557  0.6336172408740308  0.518886704651898  1.0000
  O   O15       1.0  0.9424948237944192  0.44030093068128906  0.31244592327134063  1.0000
  O   O16       1.0  0.0575044754981633  0.5596932122623385  0.6875543057698082  1.0000
  O   O17       1.0  0.14890546992364767  0.462344781671348  0.24804274586141162  1.0000
  O   O18       1.0  0.8510929352959381  0.5376532212959262  0.7519571895506161  1.0000
  O   O19       1.0  0.40313933523180623  0.34752360636823443  0.19400056495810958  1.0000
  O   O20       1.0  0.5968607577284859  0.652471486939092  0.8060018860097387  1.0000
  O   O21       1.0  0.688267480136588  0.4480781672035903  0.40312374596364003  1.0000
  O   O22       1.0  0.31173010877974877  0.5519237006831614  0.5968794365144988  1.0000
