data_image0
_chemical_formula_structural       Co2H16C24N4O8
_chemical_formula_sum              "Co2 H16 C24 N4 O8"
_cell_length_a       6.061704859498146
_cell_length_b       10.556205817819096
_cell_length_c       12.631688684187111
_cell_angle_alpha    90.0000104504783
_cell_angle_beta     90.00057709214654
_cell_angle_gamma    90.1016988330832

_space_group_name_H-M_alt    "P 1"
_space_group_IT_number       1

loop_
  _space_group_symop_operation_xyz
  'x, y, z'

loop_
  _atom_site_type_symbol
  _atom_site_label
  _atom_site_symmetry_multiplicity
  _atom_site_fract_x
  _atom_site_fract_y
  _atom_site_fract_z
  _atom_site_occupancy
  Co  Co1       1.0  0.8314732190588643  0.7358958150482948  0.2506768706759672  1.0000
  Co  Co2       1.0  0.33152344311886855  0.23588990874046087  0.7493117039854836  1.0000
  H   H1        1.0  0.2146349073849549  0.8906092245292994  0.4933541777735044  1.0000
  H   H2        1.0  0.7146617164940919  0.3906031402296647  0.5066626513988268  1.0000
  H   H3        1.0  0.8413806992314007  0.09972264557391242  0.9920316637589934  1.0000
  H   H4        1.0  0.3414198319350206  0.5996895968043815  0.0079836235306274  1.0000
  H   H5        1.0  0.817296208994577  0.10898438200786832  0.49917035789783876  1.0000
  H   H6        1.0  0.3173365714219329  0.6089560056954894  0.500782296438544  1.0000
  H   H7        1.0  0.3817561720885863  0.757057926323334  0.35009646940329026  1.0000
  H   H8        1.0  0.8818290051118538  0.25704752712655926  0.6499113707754205  1.0000
  H   H9        1.0  0.7053433869812479  0.9683623098307519  0.1435929366704372  1.0000
  H   H10       1.0  0.2053894775163556  0.4683599954424905  0.8563939094091353  1.0000
  H   H11       1.0  0.2797444032427663  0.7542203460442494  0.1477614526445166  1.0000
  H   H12       1.0  0.7797568499864411  0.2541785769768126  0.8522546298826015  1.0000
  H   H13       1.0  0.953515417490216  0.9750048373645014  0.3494939225358493  1.0000
  H   H14       1.0  0.45359326398240546  0.4750065716567419  0.6504671397633571  1.0000
  H   H15       1.0  0.44667369492495373  0.8855963684643413  0.0026269601973823  1.0000
  H   H16       1.0  0.9466856516945015  0.385530621663939  0.9974130738307707  1.0000
  C   C1        1.0  0.1577637815770601  0.003962102578689999  0.9872238665993294  1.0000
  C   C2        1.0  0.6577949668226567  0.5039301872799056  0.0127912085914161  1.0000
  C   C3        1.0  0.3789681172085367  0.9114618320526302  0.46303716448316823  1.0000
  C   C4        1.0  0.8789972714635327  0.4114566213817311  0.5369788613644673  1.0000
  C   C5        1.0  0.9455624691419615  0.026690310245008692  0.026486345467283498  1.0000
  C   C6        1.0  0.4455952583726344  0.5266610078561483  0.9735205706496898  1.0000
  C   C7        1.0  0.7135350337710521  0.034584092571798  0.4661380510819058  1.0000
  C   C8        1.0  0.2135831006692541  0.5345755044506147  0.5338242906386697  1.0000
  C   C9        1.0  0.4089779662114666  0.08882782270557496  0.5947734205374857  1.0000
  C   C10       1.0  0.9089291818614242  0.5888135117873076  0.405223152045771  1.0000
  C   C11       1.0  0.4701687933816743  0.8379410998065636  0.3831200392283449  1.0000
  C   C12       1.0  0.9702442919041446  0.33793643866294326  0.6168859727443703  1.0000
  C   C13       1.0  0.502379011404038  0.010998711426402996  0.5064876606879523  1.0000
  C   C14       1.0  0.002371564118426801  0.5109810132270669  0.4934966426600838  1.0000
  C   C15       1.0  0.8682339801391807  0.9527061132740615  0.10938171231056511  1.0000
  C   C16       1.0  0.36824896886316355  0.45267546575168865  0.8906145487858551  1.0000
  C   C17       1.0  0.1905168782445514  0.8336228505978126  0.11312699955170301  1.0000
  C   C18       1.0  0.69053192404332  0.3335904713328759  0.8868888250339992  1.0000
  C   C19       1.0  0.7910640422605582  0.9591258220052622  0.3842830307609475  1.0000
  C   C20       1.0  0.2911180685998431  0.45913059004327283  0.6156812273692793  1.0000
  C   C21       1.0  0.2815962721851691  0.9058555187148657  0.0321863908993834  1.0000
  C   C22       1.0  0.7815947728219613  0.4058116897713047  0.967833934954399  1.0000
  C   C23       1.0  0.2517738017096676  0.08249126418861862  0.8994069133790674  1.0000
  C   C24       1.0  0.7517279096844194  0.5824671391185489  0.1006174376403877  1.0000
  N   N1        1.0  0.9865597884403885  0.856835952152856  0.1516699829068315  1.0000
  N   N2        1.0  0.4865903450404829  0.3568062593913837  0.8483345541035376  1.0000
  N   N3        1.0  0.6738651694047489  0.8612895373620758  0.3441154425483148  1.0000
  N   N4        1.0  0.1739382401955112  0.361294126930396  0.6558805660131455  1.0000
  O   O1        1.0  0.12015518692209776  0.16125497449196757  0.8527708016057288  1.0000
  O   O2        1.0  0.6200772230385995  0.6612242852459075  0.1472253907323946  1.0000
  O   O3        1.0  0.4509269926237636  0.07223509999484888  0.8729682916156918  1.0000
  O   O4        1.0  0.950893955994303  0.5722496977448941  0.1270585232164478  1.0000
  O   O5        1.0  0.5413116260826883  0.1662693214634032  0.6428148725704405  1.0000
  O   O6        1.0  0.0412320034305438  0.6662607933385445  0.35716988973144487  1.0000
  O   O7        1.0  0.20961148207382507  0.0784088646283649  0.6209626501220669  1.0000
  O   O8        1.0  0.7095596757477479  0.578351991098991  0.3790409198942299  1.0000
