data_image0
_chemical_formula_structural       Al6H41C84N15Cl12O28
_chemical_formula_sum              "Al6 H41 C84 N15 Cl12 O28"
_cell_length_a       13.032826087398751
_cell_length_b       12.740466325286489
_cell_length_c       30.546371274330276
_cell_angle_alpha    80.82060282373426
_cell_angle_beta     80.7449315977146
_cell_angle_gamma    61.086304328077695

_space_group_name_H-M_alt    "P 1"
_space_group_IT_number       1

loop_
  _space_group_symop_operation_xyz
  'x, y, z'

loop_
  _atom_site_type_symbol
  _atom_site_label
  _atom_site_symmetry_multiplicity
  _atom_site_fract_x
  _atom_site_fract_y
  _atom_site_fract_z
  _atom_site_occupancy
  Al  Al1       1.0  0.4098517925877587  0.41541952823404693  0.5098651054660053  1.0000
  Al  Al2       1.0  0.6569308382768497  0.4158331385126958  0.4950786513153105  1.0000
  Al  Al3       1.0  0.43856576079239307  0.6534002225622474  0.49243263134891174  1.0000
  Al  Al4       1.0  0.9204301911212481  0.9326408421957028  0.9791680614695012  1.0000
  Al  Al5       1.0  0.9175479564395487  0.6799510960131699  0.9941799791980656  1.0000
  Al  Al6       1.0  0.6859872576313462  0.9035100043545016  0.9943000971609804  1.0000
  H   H1        1.0  0.02862130017468437  0.8472552915228988  0.18657483138981953  1.0000
  H   H2        1.0  0.26802389857618886  0.7658478564153556  0.2890196684372128  1.0000
  H   H3        1.0  0.790707971268418  0.17746299457742512  0.07090577201913112  1.0000
  H   H4        1.0  0.7761923933729378  0.2406569914592254  0.1459555763658855  1.0000
  H   H5        1.0  0.5388975866075185  0.0925214134104948  0.195503249007885  1.0000
  H   H6        1.0  0.477712274317497  0.23264324474042306  0.3183347605843565  1.0000
  H   H7        1.0  0.03217641028933121  0.6961975919442198  0.7002010740109269  1.0000
  H   H8        1.0  0.4718199628811209  0.3261795395496492  0.7154367160668329  1.0000
  H   H9        1.0  0.24920814109942294  0.4701949466902209  0.16874712920274956  1.0000
  H   H10       1.0  0.9316568963194597  0.9768675996353909  0.12841036326623365  1.0000
  H   H11       1.0  0.9491512732044287  0.9380456616759288  0.07474823054747758  1.0000
  H   H12       1.0  0.8191941580404674  0.2611456746172395  0.4120402976496038  1.0000
  H   H13       1.0  0.8993835131191472  0.22608014808504612  0.359332967162949  1.0000
  H   H14       1.0  0.41900404563525484  0.28768784004588355  0.4339024164870721  1.0000
  H   H15       1.0  0.36911906207961925  0.2743599612343814  0.3860140435582693  1.0000
  H   H16       1.0  0.9708672680031186  0.46158028900717357  0.8680347334164507  1.0000
  H   H17       1.0  0.9365420127953428  0.5402576651681912  0.9141625339367893  1.0000
  H   H18       1.0  0.8646073165366557  0.5038484218223263  0.7733806132973982  1.0000
  H   H19       1.0  0.9575521561342201  0.5224952415908036  0.7981532264125022  1.0000
  H   H20       1.0  0.8028646893845846  0.35250688217814036  0.6885747831158467  1.0000
  H   H21       1.0  0.7908627622113255  0.44465234502419554  0.7243779124567453  1.0000
  H   H22       1.0  0.7946236971869921  0.3981496648040308  0.5746882293616692  1.0000
  H   H23       1.0  0.8694464254757149  0.36055652971959523  0.621948929739716  1.0000
  H   H24       1.0  0.4431919688783453  0.8054581388200789  0.5649657939484668  1.0000
  H   H25       1.0  0.4043095432236612  0.8899466822436966  0.610619301681588  1.0000
  H   H26       1.0  0.4411619439368903  0.9163783665248676  0.8253150586378624  1.0000
  H   H27       1.0  0.4754483692037893  0.8165831021993598  0.7883227349832751  1.0000
  H   H28       1.0  0.5187572956763377  0.8705640068221072  0.9317043872366783  1.0000
  H   H29       1.0  0.42972043971448654  0.8714834421998678  0.8953125810507245  1.0000
  H   H30       1.0  0.4730454880706602  0.6085675289296761  0.7220263321510528  1.0000
  H   H31       1.0  0.42709994408806295  0.6217982000741175  0.671491241384679  1.0000
  H   H32       1.0  0.7577929465689122  0.8698016024843228  0.2093612639443947  1.0000
  H   H33       1.0  0.7687804227882679  0.81007983879659  0.16208470691853444  1.0000
  H   H34       1.0  0.9509781314014131  0.7169250179364187  0.8199222482173242  1.0000
  H   H35       1.0  0.8977387647604046  0.7483368514910823  0.7696821919294334  1.0000
  H   H36       1.0  0.8380149754099266  0.7740547945586087  0.27130604041505524  1.0000
  H   H37       1.0  0.7631927969032047  0.7563644112447819  0.3200446948829948  1.0000
  H   H38       1.0  0.1389502452957529  0.4518217620911003  0.4161113645597396  1.0000
  H   H39       1.0  0.2110580632873181  0.47780256554379  0.4536800730402533  1.0000
  H   H40       1.0  0.3163758111040735  0.2950990724846819  0.5394949925434602  1.0000
  H   H41       1.0  0.06634201596107649  0.9876217442278166  0.9831576994508282  1.0000
  C   C1        1.0  0.6128709221047259  0.29159422679738617  0.43986137289101623  1.0000
  C   C2        1.0  0.7278647981696622  0.724880678094934  0.21915681981393928  1.0000
  C   C3        1.0  0.7218390910396978  0.7133995990583275  0.2663020406439571  1.0000
  C   C4        1.0  0.6707165820884454  0.6445667890383009  0.29149583537136436  1.0000
  C   C5        1.0  0.6890854415151393  0.6611392573667632  0.19798955689406478  1.0000
  C   C6        1.0  0.699907881542124  0.6699876636593631  0.1509467061759295  1.0000
  C   C7        1.0  0.6650774618027735  0.6328715219983536  0.3384472443673446  1.0000
  C   C8        1.0  0.7129047009864351  0.6820231002401799  0.1103193773463857  1.0000
  C   C9        1.0  0.2588086636128608  0.6385090978547938  0.3966260505384014  1.0000
  C   C10       1.0  0.2769409915070326  0.7116263018425641  0.3591404551557318  1.0000
  C   C11       1.0  0.2494221038798016  0.7117000543323969  0.3171923972337892  1.0000
  C   C12       1.0  0.6328250013567213  0.601325373229429  0.4257832680050413  1.0000
  C   C13       1.0  0.20151098612046764  0.638004693986126  0.3103345394740415  1.0000
  C   C14       1.0  0.1784326261878704  0.5684977505850173  0.346866222181049  1.0000
  C   C15       1.0  0.2045250124085243  0.5667154009357918  0.3904859915988723  1.0000
  C   C16       1.0  0.1882642348667858  0.560669606293857  0.156047034110756  1.0000
  C   C17       1.0  0.1596607372757646  0.5835359782680954  0.11242674958236874  1.0000
  C   C18       1.0  0.03598220735746326  0.7973357424662101  0.12142134549289807  1.0000
  C   C19       1.0  0.06522135217387862  0.7731813414479521  0.16557628038911076  1.0000
  C   C20       1.0  0.1391503587822882  0.6568848741722207  0.18312431785634686  1.0000
  C   C21       1.0  0.16376123275382784  0.6401978723066577  0.2280193449140171  1.0000
  C   C22       1.0  0.17925614134638568  0.6363264219642703  0.26669866871200293  1.0000
  C   C23       1.0  0.3028504285364518  0.6234514856958385  0.4399368066220148  1.0000
  C   C24       1.0  0.08261891006569042  0.6999834402663228  0.09386324177481947  1.0000
  C   C25       1.0  0.6311904503858727  0.25524808565586454  0.3952982604722308  1.0000
  C   C26       1.0  0.5369982891094764  0.2516670557278787  0.3773531912915473  1.0000
  C   C27       1.0  0.5498777765954087  0.23173694864067335  0.3323783114031258  1.0000
  C   C28       1.0  0.6531618507573569  0.21203548482937154  0.30490219043502975  1.0000
  C   C29       1.0  0.7474615961343715  0.20995704815534574  0.32239510719662684  1.0000
  C   C30       1.0  0.7387758478258987  0.23182409203936072  0.3670337655246101  1.0000
  C   C31       1.0  0.7278507986699551  0.1949291341760003  0.1403501658573987  1.0000
  C   C32       1.0  0.7343972734009228  0.1613409594762487  0.09864600277939665  1.0000
  C   C33       1.0  0.5993520750002402  0.08092663325081871  0.1258808509271176  1.0000
  C   C34       1.0  0.6070377686648455  0.2814023039070293  0.5680771975191375  1.0000
  C   C35       1.0  0.5936868919684032  0.11244228572394384  0.16821636234119094  1.0000
  C   C36       1.0  0.6597512177106282  0.16664615684939582  0.1763890165371933  1.0000
  C   C37       1.0  0.6589419881850418  0.18730176314689834  0.22052910461092518  1.0000
  C   C38       1.0  0.6589814044503937  0.19743951352441516  0.2595490091321082  1.0000
  C   C39       1.0  0.6739695459752113  0.10088619164822892  0.0904309640324712  1.0000
  C   C40       1.0  0.6278717527127495  0.6134392843595081  0.5958471339786157  1.0000
  C   C41       1.0  0.5499603666925738  0.7258684428868066  0.6152535862337487  1.0000
  C   C42       1.0  0.5655669564554769  0.737222960956544  0.6583720859009502  1.0000
  C   C43       1.0  0.648887833693031  0.6408905521507082  0.684453066318909  1.0000
  C   C44       1.0  0.721793959430002  0.5300304722124666  0.6664848902156634  1.0000
  C   C45       1.0  0.6138152169252392  0.5961169045042071  0.5516021756466643  1.0000
  C   C46       1.0  0.7159775713646042  0.517517282806189  0.6218565053161811  1.0000
  C   C47       1.0  0.7926737425006394  0.5938104444926966  0.8280826794007297  1.0000
  C   C48       1.0  0.8115726292245141  0.6101512926761786  0.8700729141014207  1.0000
  C   C49       1.0  0.6052171178757463  0.7733779140292043  0.8785053575275298  1.0000
  C   C50       1.0  0.5886801165705932  0.756820456517332  0.8361290199386033  1.0000
  C   C51       1.0  0.6825597361039755  0.6681152689664174  0.8109916777588282  1.0000
  C   C52       1.0  0.6686614636214969  0.6576426501543013  0.7673026433264026  1.0000
  C   C53       1.0  0.6575843288742006  0.651879994940579  0.7287737383244133  1.0000
  C   C54       1.0  0.7179044357402301  0.7016083435451181  0.8959033631991175  1.0000
  C   C55       1.0  0.2572944297514893  0.6505691147094768  0.6123937748306146  1.0000
  C   C56       1.0  0.29956920092127587  0.6216205045387968  0.5671269799336471  1.0000
  C   C57       1.0  0.3059039150678515  0.6335984194902835  0.7244941543427501  1.0000
  C   C58       1.0  0.2785297157177736  0.6430300639075174  0.7705231608172056  1.0000
  C   C59       1.0  0.07601718218195684  0.6842773585492027  0.7665457320537215  1.0000
  C   C60       1.0  0.10051977199551491  0.6810820269380359  0.7204890341722745  1.0000
  C   C61       1.0  0.21252597156524897  0.6574239493389201  0.6993893498242016  1.0000
  C   C62       1.0  0.1661377218953034  0.6678612263902866  0.7919703883769245  1.0000
  C   C63       1.0  0.13942664239093713  0.679695560355299  0.8381091459387022  1.0000
  C   C64       1.0  0.2350746220791677  0.6543632171362148  0.6526719362514299  1.0000
  C   C65       1.0  0.10741227336793462  0.6932076461760489  0.8775169162582657  1.0000
  C   C66       1.0  0.6306322962284053  0.23643096391680285  0.6134562822205467  1.0000
  C   C67       1.0  0.6614195918493806  0.6234515396078849  0.3790206393298874  1.0000
  C   C68       1.0  0.7628687836523014  0.11581400944561446  0.7162028377149239  1.0000
  C   C69       1.0  0.7709294821328783  0.09751313400212781  0.7622063535328536  1.0000
  C   C70       1.0  0.562528030078873  0.24131418820247327  0.7743255279813254  1.0000
  C   C71       1.0  0.5546114931589158  0.2613015785114143  0.7287216635838831  1.0000
  C   C72       1.0  0.6538296212771115  0.1977610849150295  0.6992349032856566  1.0000
  C   C73       1.0  0.6701716665412931  0.15882642539632746  0.7921164747006203  1.0000
  C   C74       1.0  0.6787835523006718  0.13356450399913206  0.8382996625193117  1.0000
  C   C75       1.0  0.6431876968734895  0.21704951495066652  0.6530756910325834  1.0000
  C   C76       1.0  0.6915885297935488  0.10489253255771301  0.8777771483192893  1.0000
  C   C77       1.0  0.04105019849448148  0.724723674271516  0.04913023844790129  1.0000
  C   C78       1.0  0.6263547315630688  0.5859733204934374  0.2699768808294394  1.0000
  C   C79       1.0  0.7357943716938774  0.710017164052566  0.06353511040435215  1.0000
  C   C80       1.0  0.7060243169717993  0.04888183890686551  0.046845566877912886  1.0000
  C   C81       1.0  0.05443253574212277  0.7216690287084477  0.9220512035271682  1.0000
  C   C82       1.0  0.7379505936603294  0.7216325371889809  0.9386458299662193  1.0000
  C   C83       1.0  0.7202041149714731  0.05071773849084592  0.9221446381308597  1.0000
  C   C84       1.0  0.6382596915997851  0.5917577204708879  0.22371091569056734  1.0000
  N   N1        1.0  0.9575360165304904  0.9121158744405027  0.10774008423538105  1.0000
  N   N2        1.0  0.8321794189680674  0.22983727950725819  0.38202278630704706  1.0000
  N   N3        1.0  0.43493239908513454  0.2671966585992394  0.4018320989338519  1.0000
  N   N4        1.0  0.9243278029776291  0.540520800630006  0.8822066617423375  1.0000
  N   N5        1.0  0.8873171201959877  0.5047406097015854  0.8036681337364016  1.0000
  N   N6        1.0  0.8037632384903405  0.4307843381035923  0.691549586086559  1.0000
  N   N7        1.0  0.7935422285031849  0.4077673019047836  0.6071060155023318  1.0000
  N   N8        1.0  0.464169666152891  0.8210293022585234  0.5929529393255492  1.0000
  N   N9        1.0  0.47797823594430583  0.8276194642381545  0.820338138712721  1.0000
  N   N10       1.0  0.5088442919987272  0.8627559896487115  0.9003230500451096  1.0000
  N   N11       1.0  0.41907005513069595  0.5977148303595926  0.7046995200804744  1.0000
  N   N12       1.0  0.7769266429402178  0.7943113554804954  0.19534073714030603  1.0000
  N   N13       1.0  0.9680795332719754  0.6986917246381666  0.7875625365965533  1.0000
  N   N14       1.0  0.7620656459877895  0.7749778948208358  0.2864317856794756  1.0000
  N   N15       1.0  0.17517995398733888  0.4999829280539885  0.4241264415647379  1.0000
  Cl  Cl1       1.0  0.5591117527678905  0.5086860147645353  0.30183031400270016  1.0000
  Cl  Cl2       1.0  0.8748548720188722  0.18682324799654998  0.28816735811349037  1.0000
  Cl  Cl3       1.0  0.5170706650584904  0.010878794760287703  0.1213244059121195  1.0000
  Cl  Cl4       1.0  0.5897267280857434  0.5182749646309049  0.1965827661461503  1.0000
  Cl  Cl5       1.0  0.47328352961284964  0.8713085840670306  0.6819075392294778  1.0000
  Cl  Cl6       1.0  0.38584713652909364  0.6257134621853597  0.8016981032511694  1.0000
  Cl  Cl7       1.0  0.8832680545075319  0.03869673597710489  0.6800677544500786  1.0000
  Cl  Cl8       1.0  0.9018325054013087  0.999062822034745  0.7833447209454079  1.0000
  Cl  Cl9       1.0  0.4398662029169883  0.316143175911762  0.8099635754000971  1.0000
  Cl  Cl10      1.0  0.22904661474272797  0.46248577516164613  0.0804652248693571  1.0000
  Cl  Cl11      1.0  0.11769446630261622  0.4792296725134977  0.3386475194953675  1.0000
  Cl  Cl12      1.0  0.3404685384688762  0.8020203114771717  0.3616015941266539  1.0000
  O   O1        1.0  0.3135298868190332  0.5306935612732673  0.46588351847209697  1.0000
  O   O2        1.0  0.6880393165968429  0.49731885318033175  0.5337367829477131  1.0000
  O   O3        1.0  0.5255797567815178  0.6774916033825138  0.5305538253034001  1.0000
  O   O4        1.0  0.31998697453820313  0.6993994404030488  0.5396237826518941  1.0000
  O   O5        1.0  0.5027854584786481  0.4954497489150854  0.49966881677669767  1.0000
  O   O6        1.0  0.8058210179838807  0.0301007929729735  0.027087835652857006  1.0000
  O   O7        1.0  0.01738351034450861  0.8271888876607748  0.027789782672620267  1.0000
  O   O8        1.0  0.024231833821360703  0.6450933886019289  0.03483649828859108  1.0000
  O   O9        1.0  0.8331586708626303  0.6366646042377868  0.04370787003939108  1.0000
  O   O10       1.0  0.6600412068723429  0.8103694373477737  0.045809042558936086  1.0000
  O   O11       1.0  0.6345969797425682  0.021775830444937607  0.03281036138167077  1.0000
  O   O12       1.0  0.5161817134519068  0.3133877481728859  0.4638418844117922  1.0000
  O   O13       1.0  0.8174720249699162  0.03238025317774881  0.9328766724267368  1.0000
  O   O14       1.0  0.02544232604610385  0.8252226014706353  0.9322270191286534  1.0000
  O   O15       1.0  0.036452528473780804  0.6394296066386931  0.9474339055074027  1.0000
  O   O16       1.0  0.8361558400226415  0.6499190120426733  0.9557572837711916  1.0000
  O   O17       1.0  0.6582453796514328  0.8135921581638573  0.9592267824218865  1.0000
  O   O18       1.0  0.6454157626466781  0.021390542599292003  0.9460035345465485  1.0000
  O   O19       1.0  0.8406972972575133  0.8385921346774909  0.9893265205942895  1.0000
  O   O20       1.0  0.6943298366270979  0.3051467176893183  0.45485446006114216  1.0000
  O   O21       1.0  0.7025301087746737  0.5005513812060942  0.44567202242752296  1.0000
  O   O22       1.0  0.5356911402757731  0.6803495380423429  0.44356564646927404  1.0000
  O   O23       1.0  0.3323100296097579  0.6988278460643118  0.45037719102256796  1.0000
  O   O24       1.0  0.31760213781168994  0.5202233702463418  0.5583410393919479  1.0000
  O   O25       1.0  0.506973854459332  0.3077970098500488  0.5573836989901649  1.0000
  O   O26       1.0  0.6891409656502674  0.296166059600175  0.5426278802044422  1.0000
  O   O27       1.0  0.31727996577511425  0.34797676911646397  0.5131453515733071  1.0000
  O   O28       1.0  0.9917831649263603  0.021730054865521705  0.9707829468372963  1.0000
