data_image0
_chemical_formula_structural       Zr6H40C96Cl12O32
_chemical_formula_sum              "Zr6 H40 C96 Cl12 O32"
_cell_length_a       21.702344713814075
_cell_length_b       21.702595281563774
_cell_length_c       21.702680238467263
_cell_angle_alpha    89.9986875512601
_cell_angle_beta     119.99990036655839
_cell_angle_gamma    60.00053513552089

_space_group_name_H-M_alt    "P 1"
_space_group_IT_number       1

loop_
  _space_group_symop_operation_xyz
  'x, y, z'

loop_
  _atom_site_type_symbol
  _atom_site_label
  _atom_site_symmetry_multiplicity
  _atom_site_fract_x
  _atom_site_fract_y
  _atom_site_fract_z
  _atom_site_occupancy
  Zr  Zr1       1.0  0.99999641405347  0.5814378442663467  0.08142913862226223  1.0000
  Zr  Zr2       1.0  0.999995881909854  0.418572235305085  0.9185786308716009  1.0000
  Zr  Zr3       1.0  0.9999979228250667  0.4185704950472412  0.08143885075693189  1.0000
  Zr  Zr4       1.0  0.9999948642486913  0.5814397549023482  0.9185626379288012  1.0000
  Zr  Zr5       1.0  0.16290522056669948  0.4185563549596978  0.08145004457370678  1.0000
  Zr  Zr6       1.0  0.8370908325986052  0.5814548125295359  0.9185479599221794  1.0000
  H   H1        1.0  0.12826648015475686  0.4358714253857485  0.19238830845011284  1.0000
  H   H2        1.0  0.12825478422049494  0.43587268565352844  0.9358717580740149  1.0000
  H   H3        1.0  0.8717413975116768  0.4358755232606555  0.9358790026620696  1.0000
  H   H4        1.0  0.8717389850010165  0.6923917553186814  0.9358668583059783  1.0000
  H   H5        1.0  0.1863403267864783  0.5956379927328328  0.27876906372957677  1.0000
  H   H6        1.0  0.29558504044524625  0.5998427568706931  0.3950822437363827  1.0000
  H   H7        1.0  0.5010264391248426  0.40055188095363553  0.4022645200704106  1.0000
  H   H8        1.0  0.4989761574530576  0.5987770556228966  0.5984437259420616  1.0000
  H   H9        1.0  0.8136589790294054  0.40762803583745466  0.7179868331641401  1.0000
  H   H10       1.0  0.7044106931230516  0.40056369424701893  0.6045350950034988  1.0000
  H   H11       1.0  0.8136619537921065  0.7787755772240602  0.0956387384952821  1.0000
  H   H12       1.0  0.7044128154387364  0.8950911674879479  0.09983740454871519  1.0000
  H   H13       1.0  0.4989774141565136  0.9022617950136651  0.9005517328315162  1.0000
  H   H14       1.0  0.5010242956228836  0.0984433923875798  0.09877362521130813  1.0000
  H   H15       1.0  0.18634173425066783  0.21798422731059489  0.9076297553736765  1.0000
  H   H16       1.0  0.29559121939325916  0.10453144003417258  0.9005664220943289  1.0000
  H   H17       1.0  0.3743880976557676  0.4076159615784576  0.09565045017971133  1.0000
  H   H18       1.0  0.49490610554742176  0.40056266605383684  0.09986574418175559  1.0000
  H   H19       1.0  0.30277892456790323  0.5988012408359323  0.9005424060866575  1.0000
  H   H20       1.0  0.6971917799080315  0.40055650481438226  0.09876432695455158  1.0000
  H   H21       1.0  0.6255999111004726  0.595693105540974  0.9076172062480197  1.0000
  H   H22       1.0  0.505071390878044  0.5999140228312215  0.9005572765872574  1.0000
  H   H23       1.0  0.6255800630883288  0.7788130488127506  0.7180457917240092  1.0000
  H   H24       1.0  0.5050696226085165  0.8951463103994328  0.6046086333558518  1.0000
  H   H25       1.0  0.6971985821693922  0.9022754124953497  0.5984420287284922  1.0000
  H   H26       1.0  0.30280500651446113  0.09845622733708843  0.4022700673009041  1.0000
  H   H27       1.0  0.37439956736861285  0.21799885366949925  0.2787213008581375  1.0000
  H   H28       1.0  0.49492253318410934  0.10455279878258489  0.3950468695069277  1.0000
  H   H29       1.0  0.9968012292061842  0.4075706446126477  0.2787805372352069  1.0000
  H   H30       1.0  0.9996612484895023  0.40051021998649355  0.3950932374467513  1.0000
  H   H31       1.0  0.0006891906700446296  0.5987696811497828  0.40225435647376157  1.0000
  H   H32       1.0  0.0006977792259163682  0.40054601347205926  0.5984427055764314  1.0000
  H   H33       1.0  0.9967023641799814  0.595685386892548  0.7179863057239547  1.0000
  H   H34       1.0  0.9995662121577097  0.599889558630437  0.6045328836884707  1.0000
  H   H35       1.0  0.0031920262011196775  0.7788085852230183  0.9075862150694505  1.0000
  H   H36       1.0  0.00036016985377782613  0.8951092192265476  0.9005723132673324  1.0000
  H   H37       1.0  0.9993409208155128  0.9022142337250684  0.0988347597635908  1.0000
  H   H38       1.0  0.9992976592567256  0.09843338948217475  0.9006014655023334  1.0000
  H   H39       1.0  0.0032922578464962254  0.21800255004391283  0.0957228079386212  1.0000
  H   H40       1.0  0.0004434874211653965  0.10454088918676521  0.09994493773030648  1.0000
  C   C1        1.0  0.2091616079596577  0.49997904154545136  0.20528663547623446  1.0000
  C   C2        1.0  0.20915404261255335  0.29087031529794416  0.003885116729449585  1.0000
  C   C3        1.0  0.7908434232610448  0.5038866568059961  0.7908672221871101  1.0000
  C   C4        1.0  0.790841090545271  0.7052877046911803  0.9999814581769184  1.0000
  C   C5        1.0  0.9961559323391498  0.5038669173895373  0.20529045353204387  1.0000
  C   C6        1.0  0.003851372941006963  0.705285415241022  0.0038713106822498345  1.0000
  C   C7        1.0  0.9961322838855011  0.4999914291251815  0.7908631629183489  1.0000
  C   C8        1.0  0.0038641433772496933  0.2908657963687419  1.3931856905492262e-05  1.0000
  C   C9        1.0  0.20526589084022365  0.29086661072087594  0.2052714603626385  1.0000
  C   C10       1.0  0.7947347450978341  0.5000001166195888  0.003881282325473021  1.0000
  C   C11       1.0  0.7947210584939838  0.7052938644389286  0.7908607301645034  1.0000
  C   C12       1.0  0.20525350887895413  0.5038867449039515  0.9999780489344374  1.0000
  C   C13       1.0  0.2804170433372662  0.49714646122144057  0.2746137981625339  1.0000
  C   C14       1.0  0.2559287937109006  0.5533477396194896  0.30691406034164714  1.0000
  C   C15       1.0  0.31652836234768966  0.5556722076458555  0.3714527813775349  1.0000
  C   C16       1.0  0.40635001299357054  0.5002551147342587  0.4068906347719904  1.0000
  C   C17       1.0  0.4320435338711732  0.44364373087211123  0.375520243465175  1.0000
  C   C18       1.0  0.37059705634135304  0.44174209849975193  0.31060075729401154  1.0000
  C   C19       1.0  0.47101007538169876  0.5002088324407764  0.47256601622673594  1.0000
  C   C20       1.0  0.528979338431192  0.49847503214962074  0.5287836496096077  1.0000
  C   C21       1.0  0.5936485958780153  0.4994909524853525  0.5933915177385886  1.0000
  C   C22       1.0  0.5679594572076639  0.5565409042330673  0.6243249989067509  1.0000
  C   C23       1.0  0.6294096953818666  0.5600119071095763  0.6876704280920904  1.0000
  C   C24       1.0  0.719585264026847  0.5058320450012489  0.7224351569132494  1.0000
  C   C25       1.0  0.7440686837260982  0.4490578277644491  0.6907028418623967  1.0000
  C   C26       1.0  0.6834696972748233  0.4451227867147552  0.6277780721825509  1.0000
  C   C27       1.0  0.7195867894712508  0.7746151307524871  0.9971501038027315  1.0000
  C   C28       1.0  0.744074195181341  0.8069197264954654  0.05334810010440815  1.0000
  C   C29       1.0  0.6834723810922796  0.8714592471669108  0.05566975835331075  1.0000
  C   C30       1.0  0.5936517094390082  0.9068928699441089  0.00025293496745601137  1.0000
  C   C31       1.0  0.5679596498475519  0.8755188550395233  0.9436437507865492  1.0000
  C   C32       1.0  0.6294099654605317  0.8105991339240222  0.9417473402588004  1.0000
  C   C33       1.0  0.5289909017473349  0.9725670673494591  0.0002063465438340303  1.0000
  C   C34       1.0  0.4710211471583392  0.028784692427116367  0.9984707977821473  1.0000
  C   C35       1.0  0.4063525968665546  0.093392139436311  0.9994880960846616  1.0000
  C   C36       1.0  0.4320410476266047  0.12432621628145309  0.05653834970762974  1.0000
  C   C37       1.0  0.37058992402015883  0.1876704541773719  0.06001007673749828  1.0000
  C   C38       1.0  0.28041341178788304  0.22243699654835314  0.005831054368876151  1.0000
  C   C39       1.0  0.2559308728276902  0.19070208412733103  0.9490572470999439  1.0000
  C   C40       1.0  0.3165304251288319  0.12777597129867496  0.9451244725792024  1.0000
  C   C41       1.0  0.2717306238430839  0.5058336483097677  0.9971379020584623  1.0000
  C   C42       1.0  0.3602434315398427  0.44904766695875503  0.05335312607302001  1.0000
  C   C43       1.0  0.42710068900122883  0.4451245673935773  0.05568410647056514  1.0000
  C   C44       1.0  0.4071178389431509  0.4995015643736167  0.0002612059745672814  1.0000
  C   C45       1.0  0.31913433114846856  0.5565545957168183  0.9436356851418565  1.0000
  C   C46       1.0  0.25232105550045253  0.5600158638370588  0.9417386246191414  1.0000
  C   C47       1.0  0.47274066831248274  0.49849576290051795  0.0002105551504172494  1.0000
  C   C48       1.0  0.5272285053117117  0.5002421808058843  0.9984670994128211  1.0000
  C   C49       1.0  0.5928557795429795  0.5002893817742873  0.9994750834766322  1.0000
  C   C50       1.0  0.6808379386068995  0.4436538160241882  0.05652364025722534  1.0000
  C   C51       1.0  0.7476588582321567  0.4417520561932731  0.05999326379830444  1.0000
  C   C52       1.0  0.7282516562847619  0.49716303947759855  0.005823795703676656  1.0000
  C   C53       1.0  0.6397394271043808  0.5533876633546838  0.9490425514070466  1.0000
  C   C54       1.0  0.5728788023497702  0.5557191730567796  0.9451133745222081  1.0000
  C   C55       1.0  0.7282402401898409  0.7746210532997395  0.7224397568369838  1.0000
  C   C56       1.0  0.6397282673220135  0.8069526410584303  0.6907437997496403  1.0000
  C   C57       1.0  0.5728760482784523  0.8714943086134566  0.6278265095058515  1.0000
  C   C58       1.0  0.5928635932521615  0.9069134225801392  0.5934195230570439  1.0000
  C   C59       1.0  0.6808461571842984  0.8755322453146164  0.6243287619001451  1.0000
  C   C60       1.0  0.747659143251049  0.8106111623449337  0.6876757650127345  1.0000
  C   C61       1.0  0.5272439162445011  0.9725883589334219  0.5288053846624267  1.0000
  C   C62       1.0  0.47276347880962516  0.02880570267116424  0.47256458983682853  1.0000
  C   C63       1.0  0.40713830315010563  0.09340397486161582  0.40687552532255467  1.0000
  C   C64       1.0  0.3191524955471082  0.1243351440306242  0.37551439122165686  1.0000
  C   C65       1.0  0.25233667867937015  0.18767529419036316  0.3105872225266211  1.0000
  C   C66       1.0  0.2717503926359798  0.22243714187857225  0.2745911629841872  1.0000
  C   C67       1.0  0.3602630260592363  0.19071009453291055  0.3068871115085088  1.0000
  C   C68       1.0  0.42711906399323857  0.12778631192492904  0.37142336628856043  1.0000
  C   C69       1.0  0.9970570732722166  0.5058058149024163  0.2746151629402007  1.0000
  C   C70       1.0  0.9976464092147381  0.4490133649160058  0.3069221573281881  1.0000
  C   C71       1.0  0.9992574180185584  0.44508291466541283  0.37145891049220864  1.0000
  C   C72       1.0  0.0002933754076013034  0.4994656379293689  0.406892590817094  1.0000
  C   C73       1.0  0.9998383086059305  0.556530199288183  0.3755155522265454  1.0000
  C   C74       1.0  0.9982689650292613  0.5599936009875748  0.31059833569656803  1.0000
  C   C75       1.0  0.0013537368949912898  0.49845758375692395  0.47256780205595567  1.0000
  C   C76       1.0  0.0013412469780080248  0.5002110722724351  0.5287871545067234  1.0000
  C   C77       1.0  0.0002559199365992215  0.5002729797390871  0.5933906159319877  1.0000
  C   C78       1.0  0.9998348896143413  0.4436451241605964  0.6243266202606536  1.0000
  C   C79       1.0  0.9982502777481201  0.44175464061022757  0.6876677755602928  1.0000
  C   C80       1.0  0.9970175588279134  0.4971612452729631  0.7224303907353616  1.0000
  C   C81       1.0  0.997581315095708  0.553380693307844  0.6907014262652496  1.0000
  C   C82       1.0  0.999188285214906  0.5557059862437655  0.6277748477434175  1.0000
  C   C83       1.0  0.002959269220987508  0.7746041546205263  0.00583423543786676  1.0000
  C   C84       1.0  0.0023582391676556427  0.8069302901948275  0.949044381830035  1.0000
  C   C85       1.0  0.0007698763284407476  0.8714535414669484  0.9451349154090918  1.0000
  C   C86       1.0  0.9997419735732435  0.9068760196065785  0.9995327150235557  1.0000
  C   C87       1.0  0.00019131987148339095  0.8754850478060945  0.05659078971751113  1.0000
  C   C88       1.0  0.0017506158366416937  0.8105711259561799  0.060032132732189346  1.0000
  C   C89       1.0  0.9986928746033289  0.9725472564441943  0.9985417454845377  1.0000
  C   C90       1.0  0.9986958561664705  0.028763909696039053  0.0003037796883022433  1.0000
  C   C91       1.0  0.9997513261994372  0.0933847761926714  0.0003377976127794727  1.0000
  C   C92       1.0  0.00016915847414372508  0.12431842454679283  0.9436982942359081  1.0000
  C   C93       1.0  0.0017455682445942852  0.187662578298074  0.9417882394308421  1.0000
  C   C94       1.0  0.0029669985494396476  0.22243812488866144  0.9971870890624859  1.0000
  C   C95       1.0  0.0024162052376937083  0.1907157896736962  0.0534204981670925  1.0000
  C   C96       1.0  0.0008139536712761267  0.1277874091183335  0.055762955393149106  1.0000
  Cl  Cl1       1.0  0.4135823661167848  0.3680155972768375  0.27991810972033443  1.0000
  Cl  Cl2       1.0  0.5864255025340341  0.6336753098668808  0.7184236031811154  1.0000
  Cl  Cl3       1.0  0.5864274312731228  0.7799104178277079  0.8680239296544559  1.0000
  Cl  Cl4       1.0  0.4135752965206479  0.21841830738289766  0.13367650852916313  1.0000
  Cl  Cl5       1.0  0.14790611372524154  0.6336867022978583  0.8680067618726779  1.0000
  Cl  Cl6       1.0  0.852072022094596  0.36801906130472867  0.1336629640357003  1.0000
  Cl  Cl7       1.0  0.8520736062412835  0.7799159167121988  0.7184121881623398  1.0000
  Cl  Cl8       1.0  0.14792165232303495  0.218425240020963  0.2799128777188217  1.0000
  Cl  Cl9       1.0  0.9983255456379538  0.6336638774974334  0.2799100306652776  1.0000
  Cl  Cl10      1.0  0.9983255375585073  0.3680162863819233  0.7184179429011268  1.0000
  Cl  Cl11      1.0  0.0016848641277677943  0.7798738872012477  0.1336949062888238  1.0000
  Cl  Cl12      1.0  0.0016714436500536829  0.2184078024553815  0.8680425876283878  1.0000
  O   O1        1.0  0.13069677340446628  0.5524339350512834  0.18051593087346166  1.0000
  O   O2        1.0  0.1306879986459606  0.3168779197290875  0.9501933968533648  1.0000
  O   O3        1.0  0.8693090847168393  0.4501850117685463  0.816883062428694  1.0000
  O   O4        1.0  0.8693082901298439  0.6805149745809161  0.05243736087921054  1.0000
  O   O5        1.0  0.9974026730053326  0.4501652691046942  0.1805310559892278  1.0000
  O   O6        1.0  0.002596953313251106  0.6805351332247441  0.95016525670993  1.0000
  O   O7        1.0  0.9973687950960366  0.5524497414958918  0.8168665218369926  1.0000
  O   O8        1.0  0.002619451046292984  0.3168780619336928  0.05246392900387788  1.0000
  O   O9        1.0  0.23295986905636568  0.3168736744513652  0.18051026701296286  1.0000
  O   O10       1.0  0.7670454381569415  0.5524524204060199  0.9501798883738601  1.0000
  O   O11       1.0  0.7670261935113843  0.680532987117097  0.8168682315869162  1.0000
  O   O12       1.0  0.23294810265666402  0.45019214697999377  0.05243979229875616  1.0000
  O   O13       1.0  0.8748102737832395  0.44910983848474473  0.05546218062873008  1.0000
  O   O14       1.0  0.8748010838933596  0.6761005345013658  0.8193527335079125  1.0000
  O   O15       1.0  0.1251745787753649  0.5554677876285509  0.9490833746342204  1.0000
  O   O16       1.0  0.12518982517956806  0.31936066920831513  0.17609209813664256  1.0000
  O   O17       1.0  0.9954566663686677  0.5554535051188124  0.17610190894728817  1.0000
  O   O18       1.0  0.004554216297208216  0.3193525693502438  0.9491182989825475  1.0000
  O   O19       1.0  0.995451273763237  0.44909566773718257  0.819363876423047  1.0000
  O   O20       1.0  0.0045533339433419745  0.6760930307177943  0.05545900973562818  1.0000
  O   O21       1.0  0.7684354791955742  0.6761082206137345  0.9490906549185143  1.0000
  O   O22       1.0  0.23156930880703183  0.44909252141280825  0.17610453895878916  1.0000
  O   O23       1.0  0.2315631298399623  0.3193575024155635  0.05546503524149673  1.0000
  O   O24       1.0  0.7684386967789292  0.5554739332016684  0.8193474668050768  1.0000
  O   O25       1.0  0.9081918382490106  0.637693777700541  0.9540928472118753  1.0000
  O   O26       1.0  0.9081907024469799  0.4541229545710978  0.954107279944246  1.0000
  O   O27       1.0  0.09180148097185294  0.454103485150064  0.9541151354835478  1.0000
  O   O28       1.0  0.09180852926927233  0.4540955061698497  0.13768946957787878  1.0000
  O   O29       1.0  0.06760791706069821  0.3986160809090578  0.033811189833151914  1.0000
  O   O30       1.0  0.06759882903447341  0.5337946395608384  0.03379487536729912  1.0000
  O   O31       1.0  0.9323884646527032  0.5338056359314506  0.8986128833953445  1.0000
  O   O32       1.0  0.9323918117301915  0.5338063555938534  0.03378514218108834  1.0000
