data_image0
_chemical_formula_structural       Zn2H28C54I4N2O8
_chemical_formula_sum              "Zn2 H28 C54 I4 N2 O8"
_cell_length_a       15.288554344034965
_cell_length_b       18.3164149187095
_cell_length_c       19.71798208220322
_cell_angle_alpha    89.99897821375936
_cell_angle_beta     90.40782904513182
_cell_angle_gamma    90.00092583328872

_space_group_name_H-M_alt    "P 1"
_space_group_IT_number       1

loop_
  _space_group_symop_operation_xyz
  'x, y, z'

loop_
  _atom_site_type_symbol
  _atom_site_label
  _atom_site_symmetry_multiplicity
  _atom_site_fract_x
  _atom_site_fract_y
  _atom_site_fract_z
  _atom_site_occupancy
  Zn  Zn1       1.0  0.4999999508007136  0.42294461341523976  0.5000017802539529  1.0000
  Zn  Zn2       1.0  0.5000012588607986  0.5770555578165429  0.4999975930496559  1.0000
  H   H1        1.0  0.22221268724953797  0.617017358111113  0.49977521480143833  1.0000
  H   H2        1.0  0.7777865709560812  0.38298390497966045  0.5002277013737596  1.0000
  H   H3        1.0  0.6398970945075889  0.0673179219567857  0.5144553593758799  1.0000
  H   H4        1.0  0.3601015018522629  0.9326817032787462  0.4855450186097342  1.0000
  H   H5        1.0  0.36010298714693073  0.0673180351999392  0.48554386925573556  1.0000
  H   H6        1.0  0.63989626021813  0.9326821360114365  0.5144554968187123  1.0000
  H   H7        1.0  0.22221672776289125  0.38298302069047463  0.4999306420019919  1.0000
  H   H8        1.0  0.777785791648938  0.6170182424663222  0.5000692432713477  1.0000
  H   H9        1.0  0.08100197137972735  0.31412418272970655  0.500133101431558  1.0000
  H   H10       1.0  0.9189992367338105  0.6858759885074122  0.4998657647136325  1.0000
  H   H11       1.0  0.9189951712862052  0.3141263812428932  0.5001322410440563  1.0000
  H   H12       1.0  0.0810060414712765  0.6858737899782242  0.49986814657636797  1.0000
  H   H13       1.0  0.4996549168868539  0.6169919660137992  0.283179108029472  1.0000
  H   H14       1.0  0.5003449861156068  0.38300602136556716  0.7168207676293574  1.0000
  H   H15       1.0  0.5003538500439361  0.6169906750613308  0.7168215913736018  1.0000
  H   H16       1.0  0.4996499852960382  0.3830084042489331  0.2831808345274708  1.0000
  H   H17       1.0  0.35897369338735524  0.500026709096673  0.06201325624106598  1.0000
  H   H18       1.0  0.6410268698987948  0.4999696403930686  0.9379886504733077  1.0000
  H   H19       1.0  0.3594219266300129  0.5000202273837502  0.935762442962996  1.0000
  H   H20       1.0  0.6405786382064633  0.4999766680590199  0.0642399709057315  1.0000
  H   H21       1.0  0.4041792050257057  0.3062872903275888  0.42550290337160834  1.0000
  H   H22       1.0  0.5958213489866606  0.6937123349443581  0.5744959603679263  1.0000
  H   H23       1.0  0.5958203341640597  0.3062855359543519  0.5744983382710345  1.0000
  H   H24       1.0  0.40417760964260196  0.6937135433106718  0.4255025444673277  1.0000
  H   H25       1.0  0.4005277371727304  0.169730549313293  0.4215169280042375  1.0000
  H   H26       1.0  0.599472164286453  0.830268529988146  0.5784824404880595  1.0000
  H   H27       1.0  0.5994725780781207  0.1697293330898972  0.5784828028574578  1.0000
  H   H28       1.0  0.40052536263258526  0.830269746185799  0.4215170655640889  1.0000
  C   C1        1.0  0.5010497975123726  0.4999997812990387  0.6334095645288682  1.0000
  C   C2        1.0  0.49895076425164575  0.5000025737380794  0.3665918349824152  1.0000
  C   C3        1.0  0.9553405765039925  0.36544739353528394  0.5001115815324437  1.0000
  C   C4        1.0  0.044659979065755806  0.6345544155648072  0.49988778934925876  1.0000
  C   C5        1.0  0.499367824135845  0.5660816448655197  0.2547672281367922  1.0000
  C   C6        1.0  0.5006327314221507  0.43391743444272635  0.7452321427652249  1.0000
  C   C7        1.0  0.5006378850897163  0.5660786685934979  0.7452332049203177  1.0000
  C   C8        1.0  0.49936529615613506  0.4339215026267027  0.254769218562913  1.0000
  C   C9        1.0  0.49947271315665626  0.5654403440248715  0.18412682582519574  1.0000
  C   C10       1.0  0.5005271867498421  0.4345576433651673  0.8158720355168113  1.0000
  C   C11       1.0  0.5005329920787672  0.5654331455547918  0.8158741239649457  1.0000
  C   C12       1.0  0.4994701922442458  0.4345626579877973  0.18412931386760076  1.0000
  C   C13       1.0  0.49950673222639347  0.5000010792765934  0.14650532977341865  1.0000
  C   C14       1.0  0.5004944851585761  0.49999527021994794  0.8534965793506754  1.0000
  C   C15       1.0  0.49918739590380296  0.5000017435448143  0.2902530382622856  1.0000
  C   C16       1.0  0.5008118561075533  0.4999989736089248  0.7097478492833316  1.0000
  C   C17       1.0  0.42077193856275125  0.5000107178215744  0.03469390935130429  1.0000
  C   C18       1.0  0.5792279675262717  0.4999850857136537  0.9653069806405906  1.0000
  C   C19       1.0  0.4210163741353696  0.5000156586633723  0.9640374393185807  1.0000
  C   C20       1.0  0.578984186054825  0.49998069083703467  0.03596345307897759  1.0000
  C   C21       1.0  0.5002645845054231  0.49999556517012433  0.9288261669836114  1.0000
  C   C22       1.0  0.49973532313627783  0.5000013302765041  0.07117523015857329  1.0000
  C   C23       1.0  0.4460576842053853  0.2733524417701432  0.45842659559590243  1.0000
  C   C24       1.0  0.5539409090585108  0.726647183476054  0.5415727680728891  1.0000
  C   C25       1.0  0.553942222506947  0.2733515993139192  0.5415741242367955  1.0000
  C   C26       1.0  0.4460570233101321  0.7266485719027855  0.4584247346792408  1.0000
  C   C27       1.0  0.44406593809434  0.1975761440777291  0.45702160294285915  1.0000
  C   C28       1.0  0.5559339618192068  0.802423481187418  0.542977258386962  1.0000
  C   C29       1.0  0.5559346199353286  0.19757585954554457  0.5429787278580418  1.0000
  C   C30       1.0  0.444063323876037  0.802424311636223  0.4570221548721987  1.0000
  C   C31       1.0  0.5000014133485989  0.1577169462615871  0.49999970605385596  1.0000
  C   C32       1.0  0.49999783556209104  0.8422826789860879  0.5000001671830674  1.0000
  C   C33       1.0  0.6710466820770475  0.5000040457887779  0.5009153525538534  1.0000
  C   C34       1.0  0.32895387506182766  0.500002676931288  0.49908452544970305  1.0000
  C   C35       1.0  0.5781705384097646  0.03795132460204089  0.5091576630596107  1.0000
  C   C36       1.0  0.4218280548517797  0.9620477546857917  0.49084170061323806  1.0000
  C   C37       1.0  0.4218306033206359  0.037952615127011306  0.49084352886265487  1.0000
  C   C38       1.0  0.5781679914865376  0.9620459181971199  0.5091563419726696  1.0000
  C   C39       1.0  0.499996872222688  0.9227727752538615  0.4999990563180957  1.0000
  C   C40       1.0  0.5000017210388562  0.0772263040339709  0.5000003073547602  1.0000
  C   C41       1.0  0.18508577473168225  0.5661997130857588  0.4996241096113961  1.0000
  C   C42       1.0  0.8149134757363893  0.43380209599005337  0.5003762707676883  1.0000
  C   C43       1.0  0.23076725679580076  0.500001648201625  0.49941658786996596  1.0000
  C   C44       1.0  0.7692339590693891  0.500001252800672  0.5005848140469735  1.0000
  C   C45       1.0  0.1850874536078919  0.4338031699383222  0.4997189262439078  1.0000
  C   C46       1.0  0.814913100416227  0.5661991851254696  0.5002799374753194  1.0000
  C   C47       1.0  0.09338444967261948  0.43241820578673174  0.49992375330901934  1.0000
  C   C48       1.0  0.9066161027964694  0.567582511407281  0.5000746032639823  1.0000
  C   C49       1.0  0.046488988683371694  0.5000008106465618  0.4999198740867356  1.0000
  C   C50       1.0  0.95351156378571  0.49999990654745113  0.5000784824862662  1.0000
  C   C51       1.0  0.09338211468553227  0.5675843957776152  0.4998243492335205  1.0000
  C   C52       1.0  0.9066164785830606  0.4324163213853183  0.5001750144271496  1.0000
  C   C53       1.0  0.04466591761875089  0.3654471663297231  0.500071885610204  1.0000
  C   C54       1.0  0.9553352920474651  0.6345540968188033  0.49992748768528356  1.0000
  I   I1        1.0  0.4993561804659377  0.6671021480064213  0.13337435987224913  1.0000
  I   I2        1.0  0.5006437225294745  0.33289420149784377  0.866625515798766  1.0000
  I   I3        1.0  0.5006667584900056  0.6670977031924465  0.8666271659433276  1.0000
  I   I4        1.0  0.49934689451946207  0.33290028428181273  0.1333773247453109  1.0000
  N   N1        1.0  0.4999994630104679  0.310681923955201  0.5000010940700435  1.0000
  N   N2        1.0  0.4999978236061223  0.6893182472304246  0.4999987719336544  1.0000
  O   O1        1.0  0.5011308661329038  0.4379983266785317  0.6043403322860498  1.0000
  O   O2        1.0  0.4988710084585931  0.5620007526059897  0.39566259354428  1.0000
  O   O3        1.0  0.4988691619556319  0.4380005041728481  0.3956619898743198  1.0000
  O   O4        1.0  0.5011313997919372  0.5619980291556956  0.6043394096653996  1.0000
  O   O5        1.0  0.6330695672615291  0.4380553898452106  0.5010325248881387  1.0000
  O   O6        1.0  0.36693229651525167  0.5619486031019534  0.498966850796755  1.0000
  O   O7        1.0  0.3669311370792271  0.4380553624038015  0.49897689906693893  1.0000
  O   O8        1.0  0.6330674623977329  0.5619491764463831  0.5010244931989333  1.0000
