data_image0
_chemical_formula_structural       Zn2H54C62I8N2O16
_chemical_formula_sum              "Zn2 H54 C62 I8 N2 O16"
_cell_length_a       10.875618398127934
_cell_length_b       18.464838404341027
_cell_length_c       18.810281546400088
_cell_angle_alpha    90.16749287069777
_cell_angle_beta     91.31702817115591
_cell_angle_gamma    89.79796104975168

_space_group_name_H-M_alt    "P 1"
_space_group_IT_number       1

loop_
  _space_group_symop_operation_xyz
  'x, y, z'

loop_
  _atom_site_type_symbol
  _atom_site_label
  _atom_site_symmetry_multiplicity
  _atom_site_fract_x
  _atom_site_fract_y
  _atom_site_fract_z
  _atom_site_occupancy
  Zn  Zn1       1.0  0.5160267154237275  0.41708693029455896  0.5017333815199478  1.0000
  Zn  Zn2       1.0  0.5124773228564976  0.581447519939303  0.5057382680885283  1.0000
  H   H1        1.0  0.5677167590822948  0.301825001878342  0.6085843328736971  1.0000
  H   H2        1.0  0.4507316007348622  0.3021967190131464  0.39816828791838793  1.0000
  H   H3        1.0  0.5656510748558431  0.16621325818031346  0.6138707904232206  1.0000
  H   H4        1.0  0.4363299249126981  0.16676156730911634  0.3949427222767667  1.0000
  H   H5        1.0  0.5644737948190937  0.0682945991720487  0.39651400126495423  1.0000
  H   H6        1.0  0.4351496641091116  0.065942033087893  0.61109705063528  1.0000
  H   H7        1.0  0.8889901868760005  0.3411103614698021  0.5452020675422274  1.0000
  H   H8        1.0  0.14219598378654297  0.3365594097898992  0.47415834620780123  1.0000
  H   H9        1.0  0.3716849592897801  0.5868914483558781  0.8555516046540603  1.0000
  H   H10       1.0  0.4633952729161733  0.5630452738945523  0.1293116871691993  1.0000
  H   H11       1.0  0.42491108830061813  0.377176345432467  0.696270838848669  1.0000
  H   H12       1.0  0.2859805428301668  0.40352667738637393  0.31160745997737394  1.0000
  H   H13       1.0  0.43092537400360686  0.38074011541616676  0.06958528432523539  1.0000
  H   H14       1.0  0.44387806638764005  0.37713331163242697  0.9383073930722787  1.0000
  H   H15       1.0  0.6851222309064936  0.9958385158103839  0.3344575346286405  1.0000
  H   H16       1.0  0.5308783122826668  0.9878420380525699  0.3003997024467894  1.0000
  H   H17       1.0  0.5780969062942134  0.860634303402584  0.2589066804564908  1.0000
  H   H18       1.0  0.6787776124950895  0.9247317702776242  0.22035974263849312  1.0000
  H   H19       1.0  0.731891772110906  0.8696746451141949  0.2923418591190199  1.0000
  H   H20       1.0  0.46236283208722273  0.9838765915335232  0.706247113247457  1.0000
  H   H21       1.0  0.31076490504506177  0.9904736024207139  0.6678319617990311  1.0000
  H   H22       1.0  0.3100852388028841  0.9171444702702589  0.7800960782123597  1.0000
  H   H23       1.0  0.2671748005261918  0.8626414780381921  0.7054373089311525  1.0000
  H   H24       1.0  0.4179459559645622  0.8553766585481525  0.743671308033548  1.0000
  H   H25       1.0  0.7455586647639834  0.8783332703607837  0.47214467543094685  1.0000
  H   H26       1.0  0.8611549481669912  0.8335664976064765  0.524607747691931  1.0000
  H   H27       1.0  0.8662544765818722  0.9407828343063613  0.6091350806689847  1.0000
  H   H28       1.0  0.9006230326123088  0.9674749661370968  0.5209825081682666  1.0000
  H   H29       1.0  0.7519219788935202  0.9849693626273677  0.5550558176311711  1.0000
  H   H30       1.0  0.1516583374872482  0.8231281655540598  0.475584161805493  1.0000
  H   H31       1.0  0.2608937170939711  0.8729161704440288  0.5281762203154514  1.0000
  H   H32       1.0  0.1377679928802635  0.928176844428961  0.3891016204888374  1.0000
  H   H33       1.0  0.0982434437954609  0.9558001929562394  0.47641991642456816  1.0000
  H   H34       1.0  0.24594386700907478  0.9770668545162241  0.4432701191686306  1.0000
  H   H35       1.0  0.7178503583230976  0.7467737995307074  0.6667105747422113  1.0000
  H   H36       1.0  0.8352117800638793  0.7419003677291088  0.6017791984731957  1.0000
  H   H37       1.0  0.8617860605670841  0.6092074370638443  0.6252939014097266  1.0000
  H   H38       1.0  0.8880978811663951  0.6613359966294825  0.7036380706225103  1.0000
  H   H39       1.0  0.7462346755918502  0.6136222633191224  0.690921718574174  1.0000
  H   H40       1.0  0.4033096175911338  0.680220836893966  0.32547066072726955  1.0000
  H   H41       1.0  0.29781682156265527  0.7528960112945525  0.34295122880210027  1.0000
  H   H42       1.0  0.1277432966728895  0.6628819983837602  0.3577829628548486  1.0000
  H   H43       1.0  0.19649691036884315  0.6504195664855743  0.2733965903583027  1.0000
  H   H44       1.0  0.23399663322950903  0.5904542242991367  0.34450053032840344  1.0000
  H   H45       1.0  0.9988158735908357  0.5133380868584538  0.8986726822355707  1.0000
  H   H46       1.0  0.11737868435034214  0.48285560450300125  0.8417620621952437  1.0000
  H   H47       1.0  0.1173176612414366  0.6023137355723236  0.7794480460205407  1.0000
  H   H48       1.0  0.967463075239607  0.5636800450212007  0.7767249825088741  1.0000
  H   H49       1.0  0.0018574713799992988  0.6354741730131651  0.8372756957184677  1.0000
  H   H50       1.0  0.05220274953211398  0.61327053826313  0.13102270895970491  1.0000
  H   H51       1.0  0.10960646590312709  0.5250272589435026  0.14995367329922263  1.0000
  H   H52       1.0  0.926964891513286  0.5635105734090048  0.0276400890257662  1.0000
  H   H53       1.0  0.88961484705802  0.5190167734128863  0.10834414442742712  1.0000
  H   H54       1.0  0.9854087914257403  0.47480328146717454  0.0463604187665254  1.0000
  C   C1        1.0  0.45648285653285103  0.48801597352105835  0.36890756856394813  1.0000
  C   C2        1.0  0.5192213999752083  0.4907443300129374  0.6389818412707982  1.0000
  C   C3        1.0  0.3586141719759154  0.4135620136985595  0.7977034351701136  1.0000
  C   C4        1.0  0.28110867344179974  0.4352415158880236  0.200951767064133  1.0000
  C   C5        1.0  0.41437889026668967  0.4224721720324496  0.7327169536472766  1.0000
  C   C6        1.0  0.3233246464573369  0.43903597061856914  0.2713640630206413  1.0000
  C   C7        1.0  0.4574804160216459  0.49008148688138664  0.7099236488648515  1.0000
  C   C8        1.0  0.4162275888357954  0.48771638947780355  0.29183393461592994  1.0000
  C   C9        1.0  0.23738900423980167  0.5152233164717329  0.9545609039246798  1.0000
  C   C10       1.0  0.2350378585464128  0.5200249169261113  0.0296418163929673  1.0000
  C   C11       1.0  0.30689729366352475  0.47173832558170387  0.0709711733772878  1.0000
  C   C12       1.0  0.31678233650466575  0.4656399358978974  0.9213298370470897  1.0000
  C   C13       1.0  0.3757747975981474  0.4179287380355632  0.037034344571012  1.0000
  C   C14       1.0  0.38217454095703823  0.415494998365098  0.9635557243805621  1.0000
  C   C15       1.0  0.5400633643158415  0.26905908654356386  0.5626505350950026  1.0000
  C   C16       1.0  0.4740140250698772  0.26927451184461404  0.4446203592643768  1.0000
  C   C17       1.0  0.5370343161304589  0.19398202412385504  0.5651775983514113  1.0000
  C   C18       1.0  0.46803278598758874  0.19427656248582537  0.4432457215775472  1.0000
  C   C19       1.0  0.5009180149660749  0.15451983687754017  0.5043359439734303  1.0000
  C   C20       1.0  0.5348063206659717  0.0377121838182575  0.44228486957818086  1.0000
  C   C21       1.0  0.46522300610715206  0.0364234746282364  0.5644790266906696  1.0000
  C   C22       1.0  0.28149877467861006  0.5051655213531561  0.5242387101841645  1.0000
  C   C23       1.0  0.7436026264095474  0.5022142943051832  0.4810043223502447  1.0000
  C   C24       1.0  0.5372114293161657  0.9619673163885167  0.44191175072727873  1.0000
  C   C25       1.0  0.4655797244236338  0.9606000734495764  0.5630874430061115  1.0000
  C   C26       1.0  0.5026146661222625  0.9227600830970887  0.5021388785876439  1.0000
  C   C27       1.0  0.49976032336026327  0.07466156114078612  0.5038615539246578  1.0000
  C   C28       1.0  0.6005278742659215  0.8060764181317239  0.5385143327760034  1.0000
  C   C29       1.0  0.41508677317023757  0.8037567788231643  0.4639482913770223  1.0000
  C   C30       1.0  0.5972869850375417  0.7298743451645893  0.5403489609543044  1.0000
  C   C31       1.0  0.42340650935095425  0.7278651836952648  0.46303350166565593  1.0000
  C   C32       1.0  0.5059844072499615  0.8426331850206593  0.5013713484217632  1.0000
  C   C33       1.0  0.0770581703761621  0.44591708359114096  0.5092048816054273  1.0000
  C   C34       1.0  0.9505852123250589  0.4449202767361911  0.49698157478825783  1.0000
  C   C35       1.0  0.1438273427243928  0.5096572166271685  0.5188844812140089  1.0000
  C   C36       1.0  0.8813344260461378  0.5075934508099919  0.48430714358261895  1.0000
  C   C37       1.0  0.07320870914171  0.57415214072536  0.5135982852379612  1.0000
  C   C38       1.0  0.9495499012190364  0.5728512048339455  0.4873800078667259  1.0000
  C   C39       1.0  0.9433719090097059  0.3638821317037042  0.5025830833622393  1.0000
  C   C40       1.0  0.08717086156381268  0.3648665202359425  0.5134893718014268  1.0000
  C   C41       1.0  0.4342533699111186  0.5501975686482509  0.7538026477942665  1.0000
  C   C42       1.0  0.4655750156681221  0.5329864595852598  0.24014967974441961  1.0000
  C   C43       1.0  0.3837465368885873  0.5404047087791214  0.8206214590760368  1.0000
  C   C44       1.0  0.4223644435674387  0.529461350737904  0.16988966586729504  1.0000
  C   C45       1.0  0.34819460056561974  0.47195625329396756  0.8454736881515714  1.0000
  C   C46       1.0  0.3302657661265656  0.48016372615730757  0.14872904194689343  1.0000
  C   C47       1.0  0.6104794499912173  0.957157087312488  0.32203617864880846  1.0000
  C   C48       1.0  0.6521313084191647  0.8994625677014767  0.2704706374977306  1.0000
  C   C49       1.0  0.3863028378844717  0.9525803742911308  0.6815706494831488  1.0000
  C   C50       1.0  0.3430002994248866  0.8933226709323849  0.7304239479703796  1.0000
  C   C51       1.0  0.7851109664623053  0.8733660524885422  0.5262988150941084  1.0000
  C   C52       1.0  0.8282641763651668  0.9458987200006354  0.5547703001407385  1.0000
  C   C53       1.0  0.2231521484944849  0.8653197874957995  0.4738719516312885  1.0000
  C   C54       1.0  0.17360701644859938  0.9357392408045656  0.4436618524148628  1.0000
  C   C55       1.0  0.7638598016810575  0.7110337774076141  0.6287695547061461  1.0000
  C   C56       1.0  0.817672698136313  0.6445106804527114  0.6642960070489465  1.0000
  C   C57       1.0  0.3186448864386903  0.69550847203589  0.3527573294922064  1.0000
  C   C58       1.0  0.21255149889498173  0.6469355319642529  0.33120120704951017  1.0000
  C   C59       1.0  0.07755579360135559  0.5311105345558148  0.8671547155240588  1.0000
  C   C60       1.0  0.0392322029367591  0.586661559896669  0.812029691839854  1.0000
  C   C61       1.0  0.0744027095596778  0.5605774476710721  0.1072040358332202  1.0000
  C   C62       1.0  0.962687209497666  0.5276357632922384  0.06982990342327608  1.0000
  I   I1        1.0  0.1392656648991135  0.671490935633315  0.5596611805368781  1.0000
  I   I2        1.0  0.8771033269198367  0.668866800670564  0.44119439529255533  1.0000
  I   I3        1.0  0.8816264964276925  0.3055892529209673  0.40739005269072953  1.0000
  I   I4        1.0  0.15190818780316556  0.3223717630582286  0.6158902214581161  1.0000
  I   I5        1.0  0.46423744645188947  0.6594600321435992  0.726045408975736  1.0000
  I   I6        1.0  0.6178747013888638  0.6004227344341969  0.26345628862370774  1.0000
  I   I7        1.0  0.28215620118749024  0.310671862420385  0.8185410036410588  1.0000
  I   I8        1.0  0.14366847450986597  0.3588368608564566  0.1743232915174673  1.0000
  N   N1        1.0  0.5096642101671094  0.30618504536872854  0.5033208421605053  1.0000
  N   N2        1.0  0.5111730700926317  0.6932299019043526  0.5018214605112661  1.0000
  O   O1        1.0  0.48609162962568325  0.4264639369236178  0.3945637277760525  1.0000
  O   O2        1.0  0.528772276883977  0.42877549886114247  0.6089209862986068  1.0000
  O   O3        1.0  0.4531333228877727  0.5479287592810992  0.4012092705252216  1.0000
  O   O4        1.0  0.5550556559113105  0.5500522821174485  0.6134712262747044  1.0000
  O   O5        1.0  0.3268581313919015  0.443377091019407  0.5101708469027885  1.0000
  O   O6        1.0  0.7009115777661419  0.43924143807139865  0.4912309723355365  1.0000
  O   O7        1.0  0.3403767027824287  0.5626957738328642  0.5381444427451642  1.0000
  O   O8        1.0  0.6826217149486523  0.5602563034210561  0.4732651245800951  1.0000
  O   O9        1.0  0.5755640314075237  0.921033170821815  0.3861619609659499  1.0000
  O   O10       1.0  0.4285387698790259  0.9182151129658963  0.617753134361074  1.0000
  O   O11       1.0  0.6917604687203109  0.8451983911908343  0.5729034996285094  1.0000
  O   O12       1.0  0.32080478268403567  0.8392711130221002  0.42854268100793297  1.0000
  O   O13       1.0  0.6737994540292364  0.6856452956549292  0.5763086301906881  1.0000
  O   O14       1.0  0.3420622399302927  0.684743696720595  0.4288286675752673  1.0000
  O   O15       1.0  0.16749356949749478  0.5635423873252279  0.9155844874653738  1.0000
  O   O16       1.0  0.17145576478096558  0.5769664557938016  0.05832613432099271  1.0000
