data_image0
_chemical_formula_structural       Al2H24C48S6O30
_chemical_formula_sum              "Al2 H24 C48 S6 O30"
_cell_length_a       4.252203539055317
_cell_length_b       28.887035989037667
_cell_length_c       28.886704167882755
_cell_angle_alpha    119.99609639176917
_cell_angle_beta     90.00051414294663
_cell_angle_gamma    89.9994988323079

_space_group_name_H-M_alt    "P 1"
_space_group_IT_number       1

loop_
  _space_group_symop_operation_xyz
  'x, y, z'

loop_
  _atom_site_type_symbol
  _atom_site_label
  _atom_site_symmetry_multiplicity
  _atom_site_fract_x
  _atom_site_fract_y
  _atom_site_fract_z
  _atom_site_occupancy
  Al  Al1       1.0  0.9717860186883414  0.5000027696657413  0.49999744769644394  1.0000
  Al  Al2       1.0  0.9714722000631965  0.16665307363309273  0.8333430317660628  1.0000
  H   H1        1.0  0.21087616977464316  0.1745367164476832  0.6941760199200928  1.0000
  H   H2        1.0  0.21742740162239474  0.22511307619445384  0.6447934483421776  1.0000
  H   H3        1.0  0.6844166960347025  0.30567493170166693  0.8267767046336303  1.0000
  H   H4        1.0  0.6845345832900236  0.3609866521572229  0.506567018871415  1.0000
  H   H5        1.0  0.2113330353207843  0.4921480535343506  0.63920126193279  1.0000
  H   H6        1.0  0.21778447363801232  0.4415548193784818  0.6885681694681978  1.0000
  H   H7        1.0  0.21088244745357804  0.019602473556908393  0.8254606004738747  1.0000
  H   H8        1.0  0.21738722286904283  0.9196510243800875  0.7748795304548183  1.0000
  H   H9        1.0  0.6843787665622827  0.021081820974295243  0.6943201775853183  1.0000
  H   H10       1.0  0.6844902020294014  0.6455769732000293  0.6390055659707913  1.0000
  H   H11       1.0  0.2113549766462057  0.6470510707064536  0.5078322898448633  1.0000
  H   H12       1.0  0.2177549424280585  0.7470037519282117  0.5584236803120177  1.0000
  H   H13       1.0  0.21094453348649012  0.30583358501380087  0.9803684741764086  1.0000
  H   H14       1.0  0.2174438625280715  0.35521865291216415  0.08032062813025934  1.0000
  H   H15       1.0  0.6843712069750155  0.17323603022067152  0.9789422434765596  1.0000
  H   H16       1.0  0.6844789480609066  0.4934479508952805  0.3544150830595001  1.0000
  H   H17       1.0  0.21140342303367993  0.3608050678621026  0.35295869292385623  1.0000
  H   H18       1.0  0.21777499351024693  0.31144499867215814  0.2530037868700603  1.0000
  H   H19       1.0  0.1497718705831943  0.4022758728789882  0.7776094372397964  1.0000
  H   H20       1.0  0.1498138530691477  0.26437602883653  0.5557224778129921  1.0000
  H   H21       1.0  0.14967703873359986  0.8753337224261206  0.5977125865133958  1.0000
  H   H22       1.0  0.14970727938854372  0.7913312770551356  0.7356143210252667  1.0000
  H   H23       1.0  0.14964667820441951  0.22241098898698652  0.12470643996197595  1.0000
  H   H24       1.0  0.1496567646489524  0.44429360946391944  0.20865040982771896  1.0000
  C   C1        1.0  0.4681800243613239  0.4578038495395873  0.4192227266536221  1.0000
  C   C2        1.0  0.46817898200752245  0.4614292153404592  0.5422044942707203  1.0000
  C   C3        1.0  0.46817061884920014  0.5807788086030713  0.538564978524427  1.0000
  C   C4        1.0  0.4678979104391203  0.2052496046794089  0.7911572895016191  1.0000
  C   C5        1.0  0.4678968659771172  0.08587560348867387  0.7947492121258649  1.0000
  C   C6        1.0  0.4678921649086903  0.20884559656295926  0.9141192767649783  1.0000
  C   C7        1.0  0.45217720854370913  0.2364739752616956  0.762940345438004  1.0000
  C   C8        1.0  0.31297319177533467  0.21443076010525156  0.7122977449797075  1.0000
  C   C9        1.0  0.31406271591581714  0.2426247620336639  0.6849982692927198  1.0000
  C   C10       1.0  0.4372098076212012  0.29496658700676903  0.7089097971618301  1.0000
  C   C11       1.0  0.5601634629226808  0.31771046005260234  0.7614250884539686  1.0000
  C   C12       1.0  0.5774879176531371  0.28817400332663823  0.7873157579595897  1.0000
  C   C13       1.0  0.43568419116980545  0.32228914065061076  0.6799201939454561  1.0000
  C   C14       1.0  0.435746219204198  0.34436239930268897  0.6534162522175037  1.0000
  C   C15       1.0  0.4373625031827118  0.37169078270498795  0.6244332810105958  1.0000
  C   C16       1.0  0.5602884230551126  0.34894869791602184  0.5719175926887344  1.0000
  C   C17       1.0  0.5776730311597831  0.37849217034897015  0.5460323700669463  1.0000
  C   C18       1.0  0.45248067994862845  0.43020198154493283  0.5704201468281198  1.0000
  C   C19       1.0  0.3133513600383965  0.4522461232972006  0.6210694287283757  1.0000
  C   C20       1.0  0.3143595717728119  0.42404262797936115  0.6483590130303513  1.0000
  C   C21       1.0  0.4521952292646461  0.026439841200989606  0.7635259267164115  1.0000
  C   C22       1.0  0.31297096077096853  0.9978381512504059  0.7855662135309274  1.0000
  C   C23       1.0  0.31399004190944885  0.9423469791048691  0.757368557581856  1.0000
  C   C24       1.0  0.43711368054239585  0.9139229357959665  0.7050226811577858  1.0000
  C   C25       1.0  0.560088337804622  0.9436980256059612  0.6822836834719793  1.0000
  C   C26       1.0  0.5774433026741264  0.9991208383575199  0.7118228832062101  1.0000
  C   C27       1.0  0.4356376358153611  0.8576179320510988  0.6777004921986887  1.0000
  C   C28       1.0  0.4356572172080321  0.8090381053120197  0.6556215466027312  1.0000
  C   C29       1.0  0.43731601755607846  0.7527329292793611  0.6282939914343827  1.0000
  C   C30       1.0  0.5602279908301854  0.7229605837168336  0.6510399439562561  1.0000
  C   C31       1.0  0.5776267715034678  0.6675364789025837  0.6214978833112852  1.0000
  C   C32       1.0  0.4524579548364116  0.6402180745429791  0.5697861440015047  1.0000
  C   C33       1.0  0.31334267410935723  0.668820966542306  0.5477375070625284  1.0000
  C   C34       1.0  0.3143343153765201  0.7243099248514185  0.5759401462457419  1.0000
  C   C35       1.0  0.4522095143057427  0.237070780254669  0.9735588668067123  1.0000
  C   C36       1.0  0.3130056913875591  0.2877115972339865  0.0021464398730018028  1.0000
  C   C37       1.0  0.3140554481996388  0.3150147621532611  0.05763757675426013  1.0000
  C   C38       1.0  0.43714850420042245  0.29110545459291615  0.08607592277540732  1.0000
  C   C39       1.0  0.5600995237723154  0.23859127150376486  0.0563163212455677  1.0000
  C   C40       1.0  0.5774613574802461  0.21269805899272853  0.0008912330806581369  1.0000
  C   C41       1.0  0.4356207487288444  0.3201018642193319  0.14238967841593111  1.0000
  C   C42       1.0  0.4356402629945109  0.346603990024832  0.19095693075393436  1.0000
  C   C43       1.0  0.4372473530530741  0.37558882467477883  0.24726910758085552  1.0000
  C   C44       1.0  0.5601712055400228  0.4281025150036585  0.2770368240589889  1.0000
  C   C45       1.0  0.5776148556736302  0.4539825938755797  0.33246120063849816  1.0000
  C   C46       1.0  0.4524601326602848  0.4295909058776672  0.35978335727243405  1.0000
  C   C47       1.0  0.3133423039007681  0.3789415954143251  0.3311856701582343  1.0000
  C   C48       1.0  0.31430562047658844  0.3516579546697756  0.2756964707265084  1.0000
  S   S1        1.0  0.6955841340117744  0.3851042514715176  0.79807900310567  1.0000
  S   S2        1.0  0.6956403027748976  0.2815500435169085  0.5352498556953903  1.0000
  S   S3        1.0  0.6954875717046818  0.9129728399249757  0.6148873067780655  1.0000
  S   S4        1.0  0.6955448668215497  0.753684003185974  0.7184387865165219  1.0000
  S   S5        1.0  0.6954807760443344  0.20194135256475218  0.0870650306335961  1.0000
  S   S6        1.0  0.6955013594619787  0.4647678726030763  0.2462989912273486  1.0000
  O   O1        1.0  0.7085174801268154  0.5592452493514699  0.5466375070160012  1.0000
  O   O2        1.0  0.7085304813000448  0.4874065789986163  0.44075431364353074  1.0000
  O   O3        1.0  0.708524288374619  0.4533585575610672  0.5125991165213293  1.0000
  O   O4        1.0  0.2409234676355823  0.5566694458256124  0.5064236307228214  1.0000
  O   O5        1.0  0.24093609309245068  0.4935704836842234  0.5502366109003276  1.0000
  O   O6        1.0  0.24093882253745147  0.44976751593065967  0.4433301367013911  1.0000
  O   O7        1.0  0.7082101381080294  0.17923694131878426  0.892579782177819  1.0000
  O   O8        1.0  0.7082233861961528  0.21330855495990866  0.8207577722076705  1.0000
  O   O9        1.0  0.7082301935827502  0.10741785377584277  0.7866873903934675  1.0000
  O   O10       1.0  0.24064900762864028  0.21688341295594424  0.8900117563055543  1.0000
  O   O11       1.0  0.240650251585862  0.10998039944663418  0.826897191581267  1.0000
  O   O12       1.0  0.2406376264760652  0.17309715763362035  0.7831128006023462  1.0000
  O   O13       1.0  0.43366495825000584  0.4209020294566698  0.8048264243755057  1.0000
  O   O14       1.0  0.8468551720657446  0.3928712397178416  0.845850698249876  1.0000
  O   O15       1.0  0.9272038990438816  0.3892649268069805  0.7590230732441797  1.0000
  O   O16       1.0  0.43368286237327414  0.24575431324780073  0.5284948339683239  1.0000
  O   O17       1.0  0.846925336813861  0.273782167867175  0.4874811330927642  1.0000
  O   O18       1.0  0.9272438953709213  0.2773833136684092  0.5743049294524455  1.0000
  O   O19       1.0  0.4335643162635705  0.8839303143385778  0.5790875035232689  1.0000
  O   O20       1.0  0.8467724114532375  0.9529802779980019  0.6071252904532615  1.0000
  O   O21       1.0  0.9271098144918852  0.8697530236070038  0.6107192928838785  1.0000
  O   O22       1.0  0.43357739611396084  0.7827182803016514  0.7542322855356645  1.0000
  O   O23       1.0  0.8468349128115378  0.713681683964616  0.7262053845453309  1.0000
  O   O24       1.0  0.9271342228680624  0.7969096167849515  0.7226114003191383  1.0000
  O   O25       1.0  0.4335517899761924  0.1951928114800197  0.1161134492811797  1.0000
  O   O26       1.0  0.8468001619400171  0.1541696036132407  0.047077610242780614  1.0000
  O   O27       1.0  0.9270949696558405  0.2409984215836545  0.1302779109735042  1.0000
  O   O28       1.0  0.4335466745133161  0.47152488787385505  0.21725939216961626  1.0000
  O   O29       1.0  0.8468180043944784  0.5125344977668363  0.2862915436740181  1.0000
  O   O30       1.0  0.9270964127502026  0.4257123831773484  0.2030796974705851  1.0000
