data_image0
_chemical_formula_structural       Cd4H36C32N8O16
_chemical_formula_sum              "Cd4 H36 C32 N8 O16"
_cell_length_a       7.490313484124284
_cell_length_b       9.108193124509443
_cell_length_c       14.65877825842287
_cell_angle_alpha    92.04230158754936
_cell_angle_beta     104.80231238198819
_cell_angle_gamma    90.029141162355

_space_group_name_H-M_alt    "P 1"
_space_group_IT_number       1

loop_
  _space_group_symop_operation_xyz
  'x, y, z'

loop_
  _atom_site_type_symbol
  _atom_site_label
  _atom_site_symmetry_multiplicity
  _atom_site_fract_x
  _atom_site_fract_y
  _atom_site_fract_z
  _atom_site_occupancy
  Cd  Cd1       1.0  0.5126177219142108  0.4809528512284728  0.6315896697896193  1.0000
  Cd  Cd2       1.0  0.880508465921011  0.0190194509965522  0.3684462346469175  1.0000
  Cd  Cd3       1.0  0.487382106927079  0.5190471219278975  0.36841282933541203  1.0000
  Cd  Cd4       1.0  0.11949133130692502  0.98097942781483  0.6315541886905508  1.0000
  H   H1        1.0  0.4633486479751597  0.8625451995009996  0.4085484392085447  1.0000
  H   H2        1.0  0.05500495305716411  0.6373146056144562  0.5913466084252476  1.0000
  H   H3        1.0  0.5366511670120816  0.1374536749914839  0.5914540328863183  1.0000
  H   H4        1.0  0.944994856010311  0.36268427031765776  0.40865518075048607  1.0000
  H   H5        1.0  0.2784308779689937  0.9616724330016168  0.4381684151837106  1.0000
  H   H6        1.0  0.8403549387964093  0.5382557159775843  0.5619543578178536  1.0000
  H   H7        1.0  0.7215689588065572  0.0383286402582712  0.5618334280523599  1.0000
  H   H8        1.0  0.15964622544859  0.46174206408543483  0.43804621582285114  1.0000
  H   H9        1.0  0.59176071497798  0.6948139708567068  0.8227369774685229  1.0000
  H   H10       1.0  0.7682303771240057  0.8050968423933895  0.17729804388492448  1.0000
  H   H11       1.0  0.4082322887267652  0.30519369768816074  0.17726277544328892  1.0000
  H   H12       1.0  0.23176660898906934  0.19490094656087112  0.8226979002407901  1.0000
  H   H13       1.0  0.340699743253019  0.7493762695924175  0.9311044976556672  1.0000
  H   H14       1.0  0.4086118438773881  0.7503884933837525  0.06910278613233337  1.0000
  H   H15       1.0  0.659291889529392  0.25063360068359936  0.06889308322568871  1.0000
  H   H16       1.0  0.5913865844427164  0.24961368870194894  0.9308941263665885  1.0000
  H   H17       1.0  0.1355467393052621  0.4070345602603568  0.7278551133911931  1.0000
  H   H18       1.0  0.407349173087475  0.0930913285993071  0.2721174268926134  1.0000
  H   H19       1.0  0.8644626863635309  0.592959918985251  0.27214849191681617  1.0000
  H   H20       1.0  0.5926519793179851  0.9069064543429873  0.7278817809098327  1.0000
  H   H21       1.0  0.9325588670764662  0.48430705038347804  0.8301771400362057  1.0000
  H   H22       1.0  0.1017331734730291  0.015520652605047792  0.1699082316959846  1.0000
  H   H23       1.0  0.0674409598740411  0.5156951272988479  0.169821998553509  1.0000
  H   H24       1.0  0.8982652310442634  0.9844782291700868  0.8300906484698203  1.0000
  H   H25       1.0  0.966271340259489  0.6671603248994131  0.8766431418578193  1.0000
  H   H26       1.0  0.0888177812553721  0.832698699665954  0.12335052814297137  1.0000
  H   H27       1.0  0.0337256833867059  0.3328385569601977  0.12335556097458071  1.0000
  H   H28       1.0  0.9111819982132516  0.1673001834643344  0.876647846437109  1.0000
  H   H29       1.0  0.19218411777399783  0.5725274617900453  0.02493645341403551  1.0000
  H   H30       1.0  0.16746346722284502  0.9276059057339836  0.975330914179935  1.0000
  H   H31       1.0  0.8078101025678849  0.42746812424685027  0.9750618136610569  1.0000
  H   H32       1.0  0.8325349788565718  0.07239627203281172  0.024668047076382038  1.0000
  H   H33       1.0  0.14347675628041398  0.3921665354866875  0.9781642576187792  1.0000
  H   H34       1.0  0.1654069061693519  0.10789415671622749  0.022151384392501004  1.0000
  H   H35       1.0  0.856517505623586  0.6078323465418692  0.021834090546818233  1.0000
  H   H36       1.0  0.8345915260560233  0.8921069223866808  0.9778475498336476  1.0000
  C   C1        1.0  0.351959386232366  0.7598896745515658  0.5100043256451343  1.0000
  C   C2        1.0  0.8421187634872922  0.7400138267494398  0.4900188266739249  1.0000
  C   C3        1.0  0.6480390242046994  0.24010920578393066  0.4899952374398069  1.0000
  C   C4        1.0  0.15788105149995602  0.25998504774304376  0.5099836454209381  1.0000
  C   C5        1.0  0.32685934148894796  0.8525270867078161  0.42309914381409186  1.0000
  C   C6        1.0  0.9040141981738472  0.6473972900978852  0.5769372733689337  1.0000
  C   C7        1.0  0.6731404537244927  0.1474706905604108  0.5769026183314736  1.0000
  C   C8        1.0  0.0959856108936279  0.3526015858342291  0.4230645158068  1.0000
  C   C9        1.0  0.19473465121009778  0.779783952389053  0.3356426392691603  1.0000
  C   C10       1.0  0.8597426013957021  0.7201857782556402  0.6644155287553418  1.0000
  C   C11       1.0  0.8052665486772456  0.22021712510527175  0.6643573325429203  1.0000
  C   C12       1.0  0.14025722946007593  0.27981529644389275  0.3355856315615924  1.0000
  C   C13       1.0  0.461303189134  0.6421558979637325  0.8211346884199672  1.0000
  C   C14       1.0  0.6394666390620573  0.857770799438768  0.1789263031165973  1.0000
  C   C15       1.0  0.5386952846534855  0.3578484771308438  0.17886432689668652  1.0000
  C   C16       1.0  0.360533148340842  0.14222918379504532  0.8210714155745223  1.0000
  C   C17       1.0  0.33939450293352286  0.6681632224054964  0.8753524823326515  1.0000
  C   C18       1.0  0.4632527803136454  0.8316018032843289  0.12482578558365992  1.0000
  C   C19       1.0  0.6606053912726821  0.331843347053109  0.12464813021600209  1.0000
  C   C20       1.0  0.5367456123641148  0.16839708137007384  0.8751717287438793  1.0000
  C   C21       1.0  0.2276274641542813  0.49229289099375234  0.7677296523947561  1.0000
  C   C22       1.0  0.4593781648454112  0.007681810092542199  0.2323046916565801  1.0000
  C   C23       1.0  0.7723778545435637  0.507704885936576  0.23227281908442174  1.0000
  C   C24       1.0  0.5406188251729418  0.9923148758789252  0.767693274196354  1.0000
  C   C25       1.0  0.0312965057681041  0.5586249844856395  0.8787798709342809  1.0000
  C   C26       1.0  0.151900999835739  0.941242090715718  0.12131917112826328  1.0000
  C   C27       1.0  0.9687046802651976  0.44137499434479815  0.12122007384763117  1.0000
  C   C28       1.0  0.8480946588078951  0.0587589914354112  0.8786780425928171  1.0000
  C   C29       1.0  0.0831574892811133  0.5025083675967679  0.9790411138155122  1.0000
  C   C30       1.0  0.104049592356148  0.9975264222308836  0.02112031746987239  1.0000
  C   C31       1.0  0.9168367449148038  0.4974883171040149  0.020957180289748627  1.0000
  C   C32       1.0  0.8959460722072521  0.0024746584806081013  0.9788775791703372  1.0000
  N   N1        1.0  0.3898597197813133  0.5328199045974386  0.7543188739478025  1.0000
  N   N2        1.0  0.6350200778893867  0.9671997497027008  0.24569287351218355  1.0000
  N   N3        1.0  0.6101414978653424  0.46718116857798003  0.24568314662167273  1.0000
  N   N4        1.0  0.3649797015792444  0.032799133427594995  0.754305501067897  1.0000
  N   N5        1.0  0.19267401292278666  0.5721415871073104  0.8411056384023041  1.0000
  N   N6        1.0  0.35092022291389924  0.9276614138342297  0.15905999517303826  1.0000
  N   N7        1.0  0.8073271928843299  0.4278594889473766  0.1588950163289056  1.0000
  N   N8        1.0  0.6490781756836272  0.0723374693805425  0.8409382020736373  1.0000
  O   O1        1.0  0.40370108790804693  0.6260997228727091  0.5016842726716603  1.0000
  O   O2        1.0  0.902232707225686  0.8738316658385797  0.49832577622827057  1.0000
  O   O3        1.0  0.5962973264342892  0.37389805447999436  0.4983173121405003  1.0000
  O   O4        1.0  0.09777124445508893  0.1261672098401121  0.5016765449476708  1.0000
  O   O5        1.0  0.32606340145397184  0.8129748436024754  0.5857743924881973  1.0000
  O   O6        1.0  0.7403404798676335  0.6868446569251816  0.4142886391925344  1.0000
  O   O7        1.0  0.6739350010488325  0.1870229366294964  0.4142258264856977  1.0000
  O   O8        1.0  0.259656597056491  0.3131542119777108  0.585716209912043  1.0000
  O   O9        1.0  0.0332218843107555  0.8306652626990854  0.3067172878741786  1.0000
  O   O10       1.0  0.7268230858189711  0.6696350394867422  0.6932959836134103  1.0000
  O   O11       1.0  0.9667793017225463  0.1693347161313454  0.6932826569077335  1.0000
  O   O12       1.0  0.2731780902655673  0.3303627376970084  0.3067059558655529  1.0000
  O   O13       1.0  0.2513017099098889  0.6703546224247602  0.29454741963157005  1.0000
  O   O14       1.0  0.9580025828116804  0.8293144484632792  0.7056186021621257  1.0000
  O   O15       1.0  0.7486994859484568  0.32964425198324687  0.7054552297966978  1.0000
  O   O16       1.0  0.041994486301902605  0.17068662640519242  0.2943822034880057  1.0000
