data_image0
_chemical_formula_structural       Cu2H20C24N20O2
_chemical_formula_sum              "Cu2 H20 C24 N20 O2"
_cell_length_a       8.025793126882855
_cell_length_b       8.671858532374129
_cell_length_c       12.567367509085853
_cell_angle_alpha    89.99286397107346
_cell_angle_beta     90.0007986782521
_cell_angle_gamma    117.55704717043795

_space_group_name_H-M_alt    "P 1"
_space_group_IT_number       1

loop_
  _space_group_symop_operation_xyz
  'x, y, z'

loop_
  _atom_site_type_symbol
  _atom_site_label
  _atom_site_symmetry_multiplicity
  _atom_site_fract_x
  _atom_site_fract_y
  _atom_site_fract_z
  _atom_site_occupancy
  Cu  Cu1       1.0  0.7602788425745786  2.244813956050001e-05  0.9999783917629301  1.0000
  Cu  Cu2       1.0  0.26027487920617887  7.9792882346e-06  0.5000280074930359  1.0000
  H   H1        1.0  0.4442217416259383  0.04318562750591329  0.9389097135371146  1.0000
  H   H2        1.0  0.40098744234897055  0.9567166504414288  0.06116117822960381  1.0000
  H   H3        1.0  0.9010240793995621  0.9567665328703754  0.43882739920366726  1.0000
  H   H4        1.0  0.9442466719604428  0.04318241274306439  0.5611297373466471  1.0000
  H   H5        1.0  0.17174789571057394  0.3786001042937101  0.5564351416699651  1.0000
  H   H6        1.0  0.7930986524192463  0.6215974435859194  0.4436991737217896  1.0000
  H   H7        1.0  0.29310687246446326  0.621587636332123  0.05633322691226541  1.0000
  H   H8        1.0  0.6718385601645522  0.37866066743276855  0.9435018992039944  1.0000
  H   H9        1.0  0.3036762301374126  0.6718683250620076  0.4715644484377606  1.0000
  H   H10       1.0  0.6319679315931809  0.3283909524519544  0.5286588435953092  1.0000
  H   H11       1.0  0.13199803223168516  0.32838580141405765  0.9713505850459613  1.0000
  H   H12       1.0  0.8037881372074409  0.6719008317860186  0.028423129438351707  1.0000
  H   H13       1.0  0.9781639412090257  0.8186807167161233  0.6615311282154295  1.0000
  H   H14       1.0  0.15988331325195304  0.18119857677523046  0.3384226113443774  1.0000
  H   H15       1.0  0.6598947338120524  0.1811917166550572  0.16156060822818571  1.0000
  H   H16       1.0  0.4781820408559767  0.8186992691470536  0.8385093048612121  1.0000
  H   H17       1.0  0.8346151871144086  0.5331102822720835  0.7545940797204196  1.0000
  H   H18       1.0  0.3017283023984234  0.4666234463856114  0.24527133394778391  1.0000
  H   H19       1.0  0.8017044936834027  0.4666470510380876  0.2547148546318354  1.0000
  H   H20       1.0  0.33460264314750526  0.5331360798409859  0.7454187115350805  1.0000
  C   C1        1.0  0.9227213314250235  0.26994922429891227  0.7224249038002739  1.0000
  C   C2        1.0  0.6529162664401794  0.7300146979201045  0.2775659471438203  1.0000
  C   C3        1.0  0.15289968916166422  0.7300233820561884  0.222435052327377  1.0000
  C   C4        1.0  0.4227052307234657  0.269964122588739  0.7775708827007507  1.0000
  C   C5        1.0  0.9898424787733404  0.4313046428628269  0.6621454923940462  1.0000
  C   C6        1.0  0.5586672789164736  0.5686935647752518  0.33786909799933806  1.0000
  C   C7        1.0  0.05868166802013518  0.5686893523889722  0.1621266277338975  1.0000
  C   C8        1.0  0.48987152545061724  0.43133764087399135  0.8378560999007406  1.0000
  C   C9        1.0  0.12171433490281915  0.4709446396682396  0.5798423397766969  1.0000
  C   C10       1.0  0.6507840290351226  0.5291939073356887  0.4203029891171539  1.0000
  C   C11       1.0  0.1507890338976239  0.5291542983727312  0.07970260533171822  1.0000
  C   C12       1.0  0.6217838863927696  0.4710037877729789  0.9201435355177524  1.0000
  C   C13       1.0  0.19729302937985693  0.6349437417291384  0.5335212276313542  1.0000
  C   C14       1.0  0.5624442836456396  0.36519042922122935  0.4666709870863316  1.0000
  C   C15       1.0  0.06248877792334889  0.3651843195111582  0.0333367815552776  1.0000
  C   C16       1.0  0.6974051139697082  0.6349889059508128  0.9664711035291234  1.0000
  C   C17       1.0  0.016307389284783477  0.7176178987708185  0.6400243754646626  1.0000
  C   C18       1.0  0.2989931739101692  0.28234495360263884  0.3599938363040637  1.0000
  C   C19       1.0  0.7990252511227638  0.2823453871281174  0.1399875546800544  1.0000
  C   C20       1.0  0.5163746313775378  0.7176524147467661  0.8599980651422925  1.0000
  C   C21       1.0  0.935791805390153  0.5578433168980512  0.6910718415661777  1.0000
  C   C22       1.0  0.3781745303540163  0.44209084483927813  0.30887876280252163  1.0000
  C   C23       1.0  0.8781558653027162  0.44207495612501185  0.19111505566638698  1.0000
  C   C24       1.0  0.43580489146046375  0.5578904132260334  0.8089373984117287  1.0000
  N   N1        1.0  0.8744712344234742  0.257646321547071  0.8256568466679397  1.0000
  N   N2        1.0  0.616941646459871  0.742310085673054  0.17432802970665762  1.0000
  N   N3        1.0  0.11691700662963454  0.742348339406611  0.32567235632286895  1.0000
  N   N4        1.0  0.374423703096177  0.2576199452484644  0.6743339701441117  1.0000
  N   N5        1.0  0.8407696526450509  0.09709621606270248  0.8526573380024445  1.0000
  N   N6        1.0  0.7437388359862851  0.902856724026826  0.1473112761383746  1.0000
  N   N7        1.0  0.24370519470317484  0.9029008101878944  0.35266134399807925  1.0000
  N   N8        1.0  0.34068041449081937  0.09705229909508262  0.6473716889229877  1.0000
  N   N9        1.0  0.8638039029145049  0.011947930954327998  0.7697813977039091  1.0000
  N   N10       1.0  0.8518897864297017  0.9880237712533739  0.23018545916872313  1.0000
  N   N11       1.0  0.3519384045756694  0.9880338528345617  0.2697840297697951  1.0000
  N   N12       1.0  0.3638206514524711  0.0119432084810001  0.7302552036798958  1.0000
  N   N13       1.0  0.9156934181448763  0.1194785776782794  0.6870731276540667  1.0000
  N   N14       1.0  0.7962862311243413  0.8805284856868454  0.3129088283564272  1.0000
  N   N15       1.0  0.29629456501762524  0.8805435581008326  0.1870821411789265  1.0000
  N   N16       1.0  0.4156727720396347  0.1194779781594661  0.812941157889469  1.0000
  N   N17       1.0  0.1464426719318296  0.7562946963522562  0.5630445999128356  1.0000
  N   N18       1.0  0.39035001847801715  0.2437603666578596  0.437059018132807  1.0000
  N   N19       1.0  0.890374787371286  0.2437567557989269  0.06292021820891591  1.0000
  N   N20       1.0  0.6465001095653875  0.756318968470893  0.9369757518746199  1.0000
  O   O1        1.0  0.4896492136193658  0.9996653219341313  0.9999609758575333  1.0000
  O   O2        1.0  0.9896820173089296  0.9997924643559981  0.5000233502952228  1.0000
