data_image0
_chemical_formula_structural       Zn6H32C100I16O24
_chemical_formula_sum              "Zn6 H32 C100 I16 O24"
_cell_length_a       21.945883332282946
_cell_length_b       21.944020956859752
_cell_length_c       21.94441059468334
_cell_angle_alpha    91.92618987823063
_cell_angle_beta     118.89525851615318
_cell_angle_gamma    118.89590248755108

_space_group_name_H-M_alt    "P 1"
_space_group_IT_number       1

loop_
  _space_group_symop_operation_xyz
  'x, y, z'

loop_
  _atom_site_type_symbol
  _atom_site_label
  _atom_site_symmetry_multiplicity
  _atom_site_fract_x
  _atom_site_fract_y
  _atom_site_fract_z
  _atom_site_occupancy
  Zn  Zn1       1.0  0.44278925972884764  0.5000062254556213  0.9427927610682545  1.0000
  Zn  Zn2       1.0  0.9999996047136931  0.041566076551483117  0.04156437366697905  1.0000
  Zn  Zn3       1.0  0.999993062189489  0.9584363795131666  0.9584262087917139  1.0000
  Zn  Zn4       1.0  0.5571987591045229  0.05720518241880508  0.4999877234879906  1.0000
  Zn  Zn5       1.0  0.5572203636423723  0.5000044338656479  0.05720830661659445  1.0000
  Zn  Zn6       1.0  0.4427859971163884  0.9427843882568044  0.4999988663377337  1.0000
  H   H1        1.0  0.2847067412065912  0.6797149402639774  0.18457864450439132  1.0000
  H   H2        1.0  0.4946851698177568  0.39478953795216404  0.6795006809967603  1.0000
  H   H3        1.0  0.7153199662414098  0.89985599044725  0.39503331502255173  1.0000
  H   H4        1.0  0.505282714875328  0.18480214181126794  0.9000961447676303  1.0000
  H   H5        1.0  0.5048465554378296  0.3202876170172999  0.6049801078395093  1.0000
  H   H6        1.0  0.2847002527122909  0.6051815914411023  0.0999109670695049  1.0000
  H   H7        1.0  0.4952004870571898  0.10015261189684567  0.815467357200646  1.0000
  H   H8        1.0  0.7152736111553253  0.8151698758207075  0.3204801061050091  1.0000
  H   H9        1.0  0.8791237274486011  0.9444813409060874  0.2166987495629943  1.0000
  H   H10       1.0  0.7283003969089067  0.06627159208100863  0.9445135822452361  1.0000
  H   H11       1.0  0.12111075219679185  0.3377358747928483  0.0655480138491811  1.0000
  H   H12       1.0  0.2717951776299827  0.21627849733509658  0.3379626794416169  1.0000
  H   H13       1.0  0.2721301266928009  0.05550750186894499  0.9345105273923197  1.0000
  H   H14       1.0  0.8781946419030718  0.9336855378640861  0.662007800963707  1.0000
  H   H15       1.0  0.7277297162171124  0.6623507929039576  0.7832777967833311  1.0000
  H   H16       1.0  0.12163839971034211  0.783693757056092  0.055494807699389505  1.0000
  H   H17       1.0  0.6965590496237367  0.5584321675328779  0.8336822254003664  1.0000
  H   H18       1.0  0.7238210076629985  0.8610041351471835  0.558298377501238  1.0000
  H   H19       1.0  0.3033092559091983  0.1371069348276635  0.8617923840672433  1.0000
  H   H20       1.0  0.2760112386504331  0.8343451255333105  0.13716998783462483  1.0000
  H   H21       1.0  0.27543259555383065  0.44160294250309573  0.13826846343418  1.0000
  H   H22       1.0  0.6972776853535051  0.13896452978202237  0.8628285714204794  1.0000
  H   H23       1.0  0.7248097433525797  0.8629209443668697  0.16630466226823162  1.0000
  H   H24       1.0  0.30283388894239494  0.16563703098210422  0.4416953573686229  1.0000
  H   H25       1.0  0.9227722322364189  0.9292476220061517  0.1351512633796761  1.0000
  H   H26       1.0  0.7942808864971838  0.007009665323146048  0.9293132380910977  1.0000
  H   H27       1.0  0.07735912246960908  0.21249762940359315  0.0066181156455513875  1.0000
  H   H28       1.0  0.205747840528133  0.13504709956563943  0.21271690026872392  1.0000
  H   H29       1.0  0.20584202301514404  0.07072741585250952  0.9934297321641524  1.0000
  H   H30       1.0  0.9222762918428276  0.9929738128915774  0.7872545280641106  1.0000
  H   H31       1.0  0.7940590992426805  0.7875703405026825  0.8648164037484776  1.0000
  H   H32       1.0  0.07763915663450403  0.8649310860245193  0.07069668402374409  1.0000
  C   C1        1.0  0.6207108797590664  0.6206978717997556  7.826671762183458e-06  1.0000
  C   C2        1.0  0.731711894945157  0.062149131924968605  0.8967383562675054  1.0000
  C   C3        1.0  0.5000424958778779  0.9163564950402047  0.416347180121015  1.0000
  C   C4        1.0  0.49995476633103664  0.5836500721535883  0.08361551087382682  1.0000
  C   C5        1.0  0.5000252952342096  0.08367361985416726  0.5836850070039219  1.0000
  C   C6        1.0  0.4999616357655441  0.4163253182951223  0.9163246486599094  1.0000
  C   C7        1.0  0.5766597685454755  0.8859332163084659  0.3774908761411453  1.0000
  C   C8        1.0  0.5086116840942125  0.30940197659273844  0.886006163756555  1.0000
  C   C9        1.0  0.4234086689144193  0.8008500801076366  0.30932340849914663  1.0000
  C   C10       1.0  0.4912872824537615  0.37733166144556657  0.8007445659111951  1.0000
  C   C11       1.0  0.4915929427433525  0.1140918853907351  0.6907351172399815  1.0000
  C   C12       1.0  0.16484583446125364  0.33026788237641824  0.06151835080609661  1.0000
  C   C13       1.0  0.5765609858957957  0.690550978485362  0.19921599400522177  1.0000
  C   C14       1.0  0.5085046548170098  0.19917248545637997  0.6225645819247347  1.0000
  C   C15       1.0  0.42337740391299405  0.6226260560083573  0.11396628747124984  1.0000
  C   C16       1.0  0.2683647312923085  0.1650843752668152  0.33042210124649074  1.0000
  C   C17       1.0  0.5000410925957655  0.866966372335945  0.3669816203460386  1.0000
  C   C18       1.0  0.4999391367558985  0.36694068849633515  0.8669430245422235  1.0000
  C   C19       1.0  0.5000562594101083  0.1330618282952969  0.6330817844654747  1.0000
  C   C20       1.0  0.4999632014783659  0.6330167893667921  0.13300304100262392  1.0000
  C   C21       1.0  0.421548785955224  0.7560067717619106  0.2596656630805114  1.0000
  C   C22       1.0  0.26870441264833284  0.10328472705545269  0.9385319006612391  1.0000
  C   C23       1.0  0.4961219419029703  0.33435982359373645  0.7559115469204657  1.0000
  C   C24       1.0  0.5784808335483904  0.8381228201446618  0.33448026842914674  1.0000
  C   C25       1.0  0.5038204651524795  0.25975710173447214  0.8382173252075307  1.0000
  C   C26       1.0  0.503670940709064  0.24400001370167965  0.6655454673682185  1.0000
  C   C27       1.0  0.42153389156066373  0.6656106465474778  0.1617715563715549  1.0000
  C   C28       1.0  0.49638102912704346  0.16188772994146922  0.7403688131808226  1.0000
  C   C29       1.0  0.578440205938648  0.7402113532214188  0.24407141572782365  1.0000
  C   C30       1.0  0.8345527411863785  0.9378262082746716  0.6695462899816607  1.0000
  C   C31       1.0  0.5000094975598729  0.7735545030847462  0.2735628667998996  1.0000
  C   C32       1.0  0.49998580705962337  0.2735567494480692  0.7735635770726006  1.0000
  C   C33       1.0  0.5000134310444154  0.22644844876476364  0.7264554253202322  1.0000
  C   C34       1.0  0.49999251627053104  0.7264220221951945  0.22643372998165753  1.0000
  C   C35       1.0  0.7312107551843924  0.669805195042571  0.8345062176435222  1.0000
  C   C36       1.0  0.34478117973213074  0.6934339258608802  0.19587881341799124  1.0000
  C   C37       1.0  0.49720409535704135  0.34848584565243357  0.6932742769603095  1.0000
  C   C38       1.0  0.6552364475463577  0.8510876395718157  0.34866709313028116  1.0000
  C   C39       1.0  0.5027732585005537  0.19605238304993836  0.8512795579629966  1.0000
  C   C40       1.0  0.502432089648174  0.3065610679759487  0.6513396447625083  1.0000
  C   C41       1.0  0.3447779605218742  0.6514925115791854  0.1487282020083995  1.0000
  C   C42       1.0  0.49759183673845797  0.1489128538944726  0.8041523161650518  1.0000
  C   C43       1.0  0.1652955932106366  0.8348937403109176  0.10325910615935636  1.0000
  C   C44       1.0  0.6552087101914024  0.803925295997139  0.3067152226411166  1.0000
  C   C45       1.0  0.6949293499329132  0.7845808591154793  0.07846268028410461  1.0000
  C   C46       1.0  0.835337574825871  0.8967241275793608  0.16547128535950864  1.0000
  C   C47       1.0  0.7064978223597365  0.09013345904804027  0.7844701761331337  1.0000
  C   C48       1.0  0.30521557987983533  0.3835905546931855  0.08974648897237358  1.0000
  C   C49       1.0  0.2935622847871926  0.07802259216019539  0.3836441914357493  1.0000
  C   C50       1.0  0.2938293252576472  0.21543298369719108  0.9102879041535062  1.0000
  C   C51       1.0  0.6943139427703002  0.9098528438461243  0.6163555936338909  1.0000
  C   C52       1.0  0.7060840021330889  0.6164210032882805  0.9215223529972505  1.0000
  C   C53       1.0  0.30558009463612723  0.9219594611349038  0.21551915193441576  1.0000
  C   C54       1.0  0.7491630645786319  0.8481273698044735  0.13973648213055873  1.0000
  C   C55       1.0  0.7089235995235369  0.09969151796072141  0.8480685223960266  1.0000
  C   C56       1.0  0.25103857897468634  0.3906808082945332  0.09910302303476469  1.0000
  C   C57       1.0  0.2911673647556583  0.13921983334930843  0.39077141426066936  1.0000
  C   C58       1.0  0.2915495807905941  0.1518882356091709  0.9009500513755242  1.0000
  C   C59       1.0  0.7483445179711339  0.9002856680114419  0.609216997814201  1.0000
  C   C60       1.0  0.7083400988474293  0.6093616198559314  0.8602449914033626  1.0000
  C   C61       1.0  0.25150708724588344  0.8607591825532522  0.15192941849240066  1.0000
  C   C62       1.0  0.6206480741748522  0.9999944077478631  0.620656177625449  1.0000
  C   C63       1.0  0.8599665945873767  0.8875984253238373  0.12109370772980552  1.0000
  C   C64       1.0  0.7668191068366922  0.028222764798556496  0.8876366686866107  1.0000
  C   C65       1.0  0.14017243840813617  0.26123547535944874  0.02775626890436199  1.0000
  C   C66       1.0  0.2332258758264985  0.12084592463033769  0.2613892516769596  1.0000
  C   C67       1.0  0.2334546599455507  0.11239607008081264  0.9722974121169801  1.0000
  C   C68       1.0  0.3793179489303497  0.37930261674150495  1.3413129884966936e-05  1.0000
  C   C69       1.0  0.8593903335900988  0.9717683332213695  0.7385855705132511  1.0000
  C   C70       1.0  0.7664670359765609  0.7388235644768031  0.8788789716175102  1.0000
  C   C71       1.0  0.14050864636189442  0.8791310901170348  0.11236764154170946  1.0000
  C   C72       1.0  0.3793289712352674  0.9999891016042  0.3793347812748991  1.0000
  C   C73       1.0  0.8030165374274886  0.8236579348692457  0.05523832965056379  1.0000
  C   C74       1.0  0.7686059291114732  0.020975453371541154  0.8236522365659058  1.0000
  C   C75       1.0  0.1970634892428721  0.2522813272372347  0.020723413872396214  1.0000
  C   C76       1.0  0.2314122517117312  0.05506614377223687  0.25236242361550154  1.0000
  C   C77       1.0  0.23156034791038854  0.17633980790527914  0.9793274906208184  1.0000
  C   C78       1.0  0.8026735400479624  0.9790293564129585  0.7476275221442351  1.0000
  C   C79       1.0  0.7684000657448209  0.7477447007453576  0.9447355956021255  1.0000
  C   C80       1.0  0.1972661505117017  0.9449144445802845  0.17634143390331058  1.0000
  C   C81       1.0  0.7251655367148402  0.7623468986561052  0.04276330097100367  1.0000
  C   C82       1.0  0.7197846694895845  0.03747258549535102  0.762302689984395  1.0000
  C   C83       1.0  0.27492202698932994  0.3176397443049126  0.037256235685347895  1.0000
  C   C84       1.0  0.2802331619026006  0.0425349311440968  0.31768956414716604  1.0000
  C   C85       1.0  0.2803926260877462  0.2376586571984731  0.9627878321770994  1.0000
  C   C86       1.0  0.724821065850442  0.9625248081520114  0.6823067315850012  1.0000
  C   C87       1.0  0.7195725662814495  0.6823735853224944  0.957224249393107  1.0000
  C   C88       1.0  0.27512983044348976  0.9574545470199849  0.23769451547662607  1.0000
  C   C89       1.0  0.8174593821817667  0.8174530536121695  0.9999836668043403  1.0000
  C   C90       1.0  0.8174078978948459  5.743504317524766e-06  0.8174071007542666  1.0000
  C   C91       1.0  0.18255044977646412  0.182556738709323  2.2037560981372187e-05  1.0000
  C   C92       1.0  0.18257944956845049  0.9999920711713699  0.1825900760269334  1.0000
  C   C93       1.0  0.6896771974275212  0.6896633002131837  1.0253194489001938e-06  1.0000
  C   C94       1.0  0.6896176911551561  0.999992752514508  0.6896271008892965  1.0000
  C   C95       1.0  0.31035993659854455  0.31034553213377336  2.492994519798352e-05  1.0000
  C   C96       1.0  0.3103634581957024  0.9999910435874497  0.310373612280948  1.0000
  C   C97       1.0  0.8842847250937568  1.205077992973734e-06  0.8842862938168706  1.0000
  C   C98       1.0  0.11567590977023198  0.11568628597657242  8.27906416839642e-06  1.0000
  C   C99       1.0  0.11570220964932082  0.9999928285464109  0.11570739554750284  1.0000
  C   C100      1.0  0.8843205725746442  0.8843217671463605  0.9999876857126608  1.0000
  I   I1        1.0  0.6944404287625617  0.9852650898603913  0.4609142803210274  1.0000
  I   I2        1.0  0.524783213330913  0.2910416196985679  0.9854371899326182  1.0000
  I   I3        1.0  0.30563270659814645  0.7664748124760694  0.2908803676214192  1.0000
  I   I4        1.0  0.4750814912909505  0.46057713478223417  0.7661956257461996  1.0000
  I   I5        1.0  0.4756826069893734  0.014757578410211657  0.7091847672826718  1.0000
  I   I6        1.0  0.6943471314534693  0.7088848864559625  0.23376765193644647  1.0000
  I   I7        1.0  0.524408123098226  0.2335347120526734  0.5391413199837416  1.0000
  I   I8        1.0  0.3055834747281523  0.5393648842442715  0.014520095257104477  1.0000
  I   I9        1.0  0.5651959605939681  0.7378121255154896  0.02580930097511923  1.0000
  I   I10       1.0  0.7125130444347008  0.173050221378425  0.7375673550375695  1.0000
  I   I11       1.0  0.43496759867845475  0.4606133724106486  0.1727069997012053  1.0000
  I   I12       1.0  0.2875775995431624  0.025136769835718636  0.4605630624160498  1.0000
  I   I13       1.0  0.2879288938900757  0.2622170800293091  0.8273308148674589  1.0000
  I   I14       1.0  0.5645047540453876  0.8269416916490401  0.5394632217989966  1.0000
  I   I15       1.0  0.7119782523632167  0.5393413644234428  0.9741832451687601  1.0000
  I   I16       1.0  0.435382375826478  0.9748495526414656  0.26241589868406123  1.0000
  O   O1        1.0  0.5448428422119777  0.5863078991449272  0.9424172686870237  1.0000
  O   O2        1.0  0.6438547553248668  0.04148232838161196  0.5862741868359508  1.0000
  O   O3        1.0  0.4551899854590006  0.3975821564569699  0.04148701742220605  1.0000
  O   O4        1.0  0.35611548620033057  0.9423923235801723  0.39761379129025426  1.0000
  O   O5        1.0  0.35611034979998374  0.4136853609525488  0.9585341318815993  1.0000
  O   O6        1.0  0.5447786490655916  0.9585043576696322  0.6023853391820495  1.0000
  O   O7        1.0  0.6439112023899795  0.6024268557850475  0.05760951825312327  1.0000
  O   O8        1.0  0.455196118961716  0.05757905606810707  0.413710626481297  1.0000
  O   O9        1.0  0.45584627425217406  0.5706800242426553  0.014116175339658798  1.0000
  O   O10       1.0  0.5565314829834521  0.11479358591354573  0.5706930097154342  1.0000
  O   O11       1.0  0.5440693067158974  0.5582586141856325  0.11474991293425059  1.0000
  O   O12       1.0  0.4434800845768764  0.014165799828312198  0.5582871577813863  1.0000
  O   O13       1.0  0.44345577566909355  0.4293165316883502  0.8852064554581318  1.0000
  O   O14       1.0  0.4559296875111585  0.8852256309560645  0.4417399667064573  1.0000
  O   O15       1.0  0.5565066252010383  0.441718728811182  0.9858331136709994  1.0000
  O   O16       1.0  0.5441470687218127  0.985855525089157  0.4293120508538805  1.0000
  O   O17       1.0  0.8961186591302737  0.9495533825654549  0.875376947285858  1.0000
  O   O18       1.0  0.07413560216765089  0.05340589542056049  0.9495634745660624  1.0000
  O   O19       1.0  0.10385854693328878  0.979255068667449  0.05342393760291491  1.0000
  O   O20       1.0  0.9258477758811736  0.875414387205865  0.9792373158839852  1.0000
  O   O21       1.0  0.9258330409000664  0.05044733816274063  0.946572217600469  1.0000
  O   O22       1.0  0.8961615203583901  0.9466006436780959  0.020732256596339503  1.0000
  O   O23       1.0  0.07416247780628991  0.020734413356798608  0.12460693713269681  1.0000
  O   O24       1.0  0.10383009373916252  0.12459267362790173  0.050444136340054506  1.0000
