data_image0
_chemical_formula_structural       Rb4H4C16O16
_chemical_formula_sum              "Rb4 H4 C16 O16"
_cell_length_a       4.187354095186474
_cell_length_b       8.06406959711369
_cell_length_c       16.048072028009614
_cell_angle_alpha    89.9999167807565
_cell_angle_beta     90.00010446579905
_cell_angle_gamma    96.64178520836782

_space_group_name_H-M_alt    "P 1"
_space_group_IT_number       1

loop_
  _space_group_symop_operation_xyz
  'x, y, z'

loop_
  _atom_site_type_symbol
  _atom_site_label
  _atom_site_symmetry_multiplicity
  _atom_site_fract_x
  _atom_site_fract_y
  _atom_site_fract_z
  _atom_site_occupancy
  Rb  Rb1       1.0  0.28449220592379726  0.2386574540946214  0.5666624401981295  1.0000
  Rb  Rb2       1.0  0.7155030087836352  0.2613424892450809  0.0666622859900983  1.0000
  Rb  Rb3       1.0  0.7155059256552005  0.7613418107447173  0.4333379209665794  1.0000
  Rb  Rb4       1.0  0.28449512279134836  0.7386567755957784  0.9333368289189892  1.0000
  H   H1        1.0  0.5081286740110471  0.48334156842146575  0.762702150241438  1.0000
  H   H2        1.0  0.49186992033866517  0.0166566529250147  0.2626995799037175  1.0000
  H   H3        1.0  0.491869728764982  0.5166589448608433  0.2372975877950552  1.0000
  H   H4        1.0  0.508130871371776  0.9833438639552412  0.737300158133344  1.0000
  C   C1        1.0  0.14559958883348398  0.3006799524139084  0.7897496179535042  1.0000
  C   C2        1.0  0.8544002644180536  0.19932319686903807  0.28974708375338315  1.0000
  C   C3        1.0  0.8543993563406359  0.6993230577528209  0.21025012008219335  1.0000
  C   C4        1.0  0.14560264502975429  0.8006760751661943  0.7102532774124555  1.0000
  C   C5        1.0  0.896531084617557  0.16480178969808892  0.7778518451488027  1.0000
  C   C6        1.0  0.1034633717792062  0.3351988844637503  0.27784885169597834  1.0000
  C   C7        1.0  0.10346254028965517  0.8351987163883337  0.2221478928865608  1.0000
  C   C8        1.0  0.8965395376666051  0.6648003875722353  0.7221508863420567  1.0000
  C   C9        1.0  0.884712379339227  0.1343380942894115  0.8693812285530742  1.0000
  C   C10       1.0  0.11527734595848928  0.3656598530174975  0.3693751023188128  1.0000
  C   C11       1.0  0.11528363450640457  0.8656624153934301  0.1306197557384792  1.0000
  C   C12       1.0  0.8847255634873221  0.6343394190184951  0.6306246357192151  1.0000
  C   C13       1.0  0.1309024471423044  0.2844058108653513  0.8803866763429441  1.0000
  C   C14       1.0  0.8690982607302615  0.21559836625780796  0.3803803982113152  1.0000
  C   C15       1.0  0.8690962268367883  0.7155959508576544  0.11961430794877262  1.0000
  C   C16       1.0  0.13090464871353893  0.7844009057789446  0.619618716698902  1.0000
  O   O1        1.0  0.31398935504286374  0.3943739153107728  0.7361288517400056  1.0000
  O   O2        1.0  0.6860085258515483  0.10562187383099089  0.236125061115942  1.0000
  O   O3        1.0  0.6860085053370851  0.6056241010863559  0.26387150942510124  1.0000
  O   O4        1.0  0.31399199465984395  0.894377394607055  0.7638746769215174  1.0000
  O   O5        1.0  0.7507929416635263  0.10008898110799441  0.7136578306237953  1.0000
  O   O6        1.0  0.24921038604868778  0.3999106152502776  0.2136536119626058  1.0000
  O   O7        1.0  0.24920518991546456  0.8999102837313445  0.28634253054091374  1.0000
  O   O8        1.0  0.7507922521980744  0.6000874083435052  0.7863461260758342  1.0000
  O   O9        1.0  0.7433405403240343  0.030082782761276405  0.9174511826045162  1.0000
  O   O10       1.0  0.25666252387792804  0.4699200593010531  0.4174475382896504  1.0000
  O   O11       1.0  0.2566602513904143  0.9699177341174589  0.0825498016881738  1.0000
  O   O12       1.0  0.7433403855658725  0.5300792127356929  0.5825515766205669  1.0000
  O   O13       1.0  0.2598977227074073  0.36165361885601044  0.941409584763278  1.0000
  O   O14       1.0  0.7401001754543016  0.13834666081022817  0.4414076648272882  1.0000
  O   O15       1.0  0.7401006800686288  0.6383468944262986  0.05859015327321519  1.0000
  O   O16       1.0  0.25990273399150243  0.8616526112257574  0.558592073210747  1.0000
