data_image0
_chemical_formula_structural       Cu2H24C22N6O6F6
_chemical_formula_sum              "Cu2 H24 C22 N6 O6 F6"
_cell_length_a       6.2438243429273985
_cell_length_b       7.678118533484044
_cell_length_c       14.466685531421245
_cell_angle_alpha    101.99015274637118
_cell_angle_beta     94.26425708520128
_cell_angle_gamma    92.00250638540727

_space_group_name_H-M_alt    "P 1"
_space_group_IT_number       1

loop_
  _space_group_symop_operation_xyz
  'x, y, z'

loop_
  _atom_site_type_symbol
  _atom_site_label
  _atom_site_symmetry_multiplicity
  _atom_site_fract_x
  _atom_site_fract_y
  _atom_site_fract_z
  _atom_site_occupancy
  Cu  Cu1       1.0  0.4999945867462615  8.606030014800777e-06  0.5000059768946983  1.0000
  Cu  Cu2       1.0  0.9999909226639119  0.9999928077768699  0.5000005830723353  1.0000
  H   H1        1.0  0.2664824336687063  0.3366671363954552  0.5627948330723314  1.0000
  H   H2        1.0  0.7335319310017565  0.6633366207208057  0.4371877208428359  1.0000
  H   H3        1.0  0.22050285603262412  0.16408103298296334  0.7168005967399224  1.0000
  H   H4        1.0  0.7795049419096642  0.8358920319005421  0.28317781056432517  1.0000
  H   H5        1.0  0.06481841917405258  0.34015421253152306  0.6916874894108318  1.0000
  H   H6        1.0  0.9351865620458357  0.6598254698007722  0.3082894466851229  1.0000
  H   H7        1.0  0.3333518123812453  0.4765721406170299  0.8146733716104465  1.0000
  H   H8        1.0  0.666623352393934  0.5233944507846928  0.1853205377490212  1.0000
  H   H9        1.0  0.4076203318536288  0.5356968404904733  0.709605624951081  1.0000
  H   H10       1.0  0.5923621366816647  0.46431383620163996  0.29039732360156023  1.0000
  H   H11       1.0  0.7317699405021543  0.4530985249727095  0.7992372420559732  1.0000
  H   H12       1.0  0.2682149164011491  0.5469254399206207  0.20076442208012676  1.0000
  H   H13       1.0  0.6766411263308142  0.2889622174345021  0.692911454860571  1.0000
  H   H14       1.0  0.32336740876072406  0.7110537363554883  0.3070846312809223  1.0000
  H   H15       1.0  0.6056224438218223  0.24509516258712688  0.8027159158644536  1.0000
  H   H16       1.0  0.39439540464245937  0.7549155421847757  0.1972826954990552  1.0000
  H   H17       1.0  0.5307236002856045  0.0711104531797133  0.2245372333354396  1.0000
  H   H18       1.0  0.46927915756966593  0.9288911135387748  0.775473732972273  1.0000
  H   H19       1.0  0.5020930127392519  0.1293316077696716  0.060826573369332906  1.0000
  H   H20       1.0  0.4979146816236196  0.8706727285299963  0.9391896897946808  1.0000
  H   H21       1.0  0.8597990906890801  0.3032273676536406  0.09945828618516832  1.0000
  H   H22       1.0  0.14020117024247009  0.6967861122914129  0.900549703926508  1.0000
  H   H23       1.0  0.8893218315423894  0.2402708737278161  0.2626937080324439  1.0000
  H   H24       1.0  0.11068173830253161  0.7597439017124471  0.7373117647956065  1.0000
  C   C1        1.0  0.22628380068145051  0.2865441854611744  0.6889846210386564  1.0000
  C   C2        1.0  0.7737183088470517  0.7134422494995503  0.3109984602944138  1.0000
  C   C3        1.0  0.39451385136443673  0.42302892887095567  0.7455847577167063  1.0000
  C   C4        1.0  0.6054770860827078  0.5769603288214425  0.2544093057262202  1.0000
  C   C5        1.0  0.6146545717512666  0.3486311345458333  0.7607479771973189  1.0000
  C   C6        1.0  0.3853519509840099  0.6513782091381797  0.23925080104564236  1.0000
  C   C7        1.0  0.22704256096395883  0.1075034366135412  0.3492285646444416  1.0000
  C   C8        1.0  0.7729392117609138  0.8924952662055786  0.6507744812110019  1.0000
  C   C9        1.0  0.2111967020406595  0.1509649954533572  0.2526201998649356  1.0000
  C   C10       1.0  0.7888077121478504  0.8490364541196626  0.7473838970398532  1.0000
  C   C11       1.0  0.38467211237763627  0.12161639587479559  0.1962714485359456  1.0000
  C   C12       1.0  0.6153226336591899  0.8783850929619559  0.8037364749634577  1.0000
  C   C13       1.0  0.368189380231577  0.1542097129629809  0.1050703755670384  1.0000
  C   C14       1.0  0.631803800665331  0.8457931893133048  0.8949424831790723  1.0000
  C   C15       1.0  0.17807388733396584  0.21794649147892634  0.0701786271589953  1.0000
  C   C16       1.0  0.8219390620911186  0.7820643926825923  0.9298308987554904  1.0000
  C   C17       1.0  0.005352905691253801  0.2503074545896737  0.1265708849850782  1.0000
  C   C18       1.0  0.9946377370604154  0.7497059417285354  0.8734340076799398  1.0000
  C   C19       1.0  0.021819767650789898  0.21594810166877915  0.2175908436062386  1.0000
  C   C20       1.0  0.9781773367709548  0.7840667491035375  0.7824199499013957  1.0000
  C   C21       1.0  0.16643693219563  0.2601684465025969  0.9732709705491942  1.0000
  C   C22       1.0  0.8335836330474322  0.7398358866016608  0.026742960105174487  1.0000
  N   N1        1.0  0.2397203786560098  0.8319839992457005  0.4751661227149953  1.0000
  N   N2        1.0  0.7602750430852154  0.16800001677141543  0.5248316868431289  1.0000
  N   N3        1.0  0.24169683270910272  0.6955288262698148  0.5046635757623221  1.0000
  N   N4        1.0  0.7583110265607332  0.30447510449095466  0.49532983806545866  1.0000
  N   N5        1.0  0.2433100341063081  0.5619001807289479  0.5299229613128489  1.0000
  N   N6        1.0  0.756695685272298  0.4380649163092157  0.47005661022846107  1.0000
  O   O1        1.0  0.41550792865442787  0.09089051066946749  0.3854452220928763  1.0000
  O   O2        1.0  0.584472116532595  0.9091069638448273  0.6145638577051997  1.0000
  O   O3        1.0  0.04960572625461171  0.09044990518241748  0.3853874341620269  1.0000
  O   O4        1.0  0.9503667692045569  0.909525982279632  0.6146059825055943  1.0000
  O   O5        1.0  0.27067419726199665  0.2302281703935023  0.590642680571051  1.0000
  O   O6        1.0  0.7293463542544812  0.7697716347975785  0.40934104753732464  1.0000
  F   F1        1.0  0.27186611704368596  0.14093214658451098  0.9104254606523483  1.0000
  F   F2        1.0  0.7281963948565248  0.8591029068322908  0.08958827942381477  1.0000
  F   F3        1.0  0.26248342545327574  0.4249107696801389  0.975089061078485  1.0000
  F   F4        1.0  0.7374838439172962  0.5751159703863422  0.024921981805775296  1.0000
  F   F5        1.0  0.961226578664288  0.2609169223339478  0.9342696347024813  1.0000
  F   F6        1.0  0.03879041895965679  0.7390526936768819  0.0657377522368208  1.0000
