data_image0
_chemical_formula_structural       Cd3H24C36N12
_chemical_formula_sum              "Cd3 H24 C36 N12"
_cell_length_a       8.414345814566735
_cell_length_b       8.98053932456997
_cell_length_c       12.84915549027343
_cell_angle_alpha    92.39866283993005
_cell_angle_beta     98.20648503479835
_cell_angle_gamma    105.33581817145512

_space_group_name_H-M_alt    "P 1"
_space_group_IT_number       1

loop_
  _space_group_symop_operation_xyz
  'x, y, z'

loop_
  _atom_site_type_symbol
  _atom_site_label
  _atom_site_symmetry_multiplicity
  _atom_site_fract_x
  _atom_site_fract_y
  _atom_site_fract_z
  _atom_site_occupancy
  Cd  Cd1       1.0  0.9991400193225456  0.9958761856364118  0.9993080686747858  1.0000
  Cd  Cd2       1.0  0.7887829272190173  0.17126266734415904  0.5961975027266604  1.0000
  Cd  Cd3       1.0  0.38104410363384733  0.592216005482136  0.07979706141605189  1.0000
  H   H1        1.0  0.18794388608745985  0.8529961748039053  0.19853580977144247  1.0000
  H   H2        1.0  0.27348105797776157  0.8966947291403  0.3925679273789838  1.0000
  H   H3        1.0  0.22514632758760908  0.13288766307946526  0.48682926752287164  1.0000
  H   H4        1.0  0.09327423710324469  0.30459858294484116  0.3825508870785512  1.0000
  H   H5        1.0  0.04876371740522961  0.4679987606158917  0.2779352397070767  1.0000
  H   H6        1.0  0.900945994047845  0.6166686958388183  0.15619082830802  1.0000
  H   H7        1.0  0.753080314080769  0.4923318308775534  0.9790025721446226  1.0000
  H   H8        1.0  0.7692940421583786  0.22404469980674685  0.9263774491426346  1.0000
  H   H9        1.0  0.8972299331514574  0.8528939109149148  0.6227410765854771  1.0000
  H   H10       1.0  0.938518373044019  0.6266855815139534  0.5162599003982749  1.0000
  H   H11       1.0  0.8521105627739161  0.6068900869234143  0.3200360518839034  1.0000
  H   H12       1.0  0.737569743540888  0.8095926285957373  0.238365615606881  1.0000
  H   H13       1.0  0.6188747404058785  0.9620152580887119  0.18141893422595248  1.0000
  H   H14       1.0  0.4929034463928446  0.1689303725605668  0.1184306141044118  1.0000
  H   H15       1.0  0.48172134128461136  0.3811778619164912  0.250051564463547  1.0000
  H   H16       1.0  0.59659295321822  0.37281074514549317  0.43883983556523987  1.0000
  H   H17       1.0  0.4913573495492258  0.8395199660024273  0.5483217705498545  1.0000
  H   H18       1.0  0.25331587813270307  0.6889790052788239  0.6287267825012108  1.0000
  H   H19       1.0  0.14119634041266943  0.8320318180439158  0.7639857239103236  1.0000
  H   H20       1.0  0.2665489137370898  0.11413991602844217  0.8056807233438832  1.0000
  H   H21       1.0  0.3236285131316094  0.3548187440284634  0.7816668823712475  1.0000
  H   H22       1.0  0.47800949082625976  0.6334650980896369  0.8217871346605249  1.0000
  H   H23       1.0  0.7705511656757124  0.7253759215768125  0.7829047528288483  1.0000
  H   H24       1.0  0.892151940064785  0.5308084498963053  0.6985136704514261  1.0000
  C   C1        1.0  0.16706840924779692  0.9513641696482505  0.24199748268452478  1.0000
  C   C2        1.0  0.2160310758770904  0.9773688952438345  0.3510421264632129  1.0000
  C   C3        1.0  0.18949084415871903  0.10675796528524018  0.4017698645990251  1.0000
  C   C4        1.0  0.11472845027461888  0.20404208551998687  0.3426390804057107  1.0000
  C   C5        1.0  0.0668811582623263  0.1691118401670622  0.2334944438945357  1.0000
  C   C6        1.0  0.9818021192379047  0.26531823134897786  0.16646899747986768  1.0000
  C   C7        1.0  0.9808367331983091  0.4150740759899918  0.20110501554421487  1.0000
  C   C8        1.0  0.8995418267951791  0.4981858851527505  0.1331354226518755  1.0000
  C   C9        1.0  0.817817891564182  0.4302391476955306  0.033601455697286994  1.0000
  C   C10       1.0  0.8260159525402102  0.28176767258378277  0.004519913380548238  1.0000
  C   C11       1.0  0.8624429519599983  0.8368430135074545  0.5371397839881809  1.0000
  C   C12       1.0  0.8846776156578356  0.7123356180182084  0.4781736836752515  1.0000
  C   C13       1.0  0.8378983175314472  0.7027069809787106  0.3691731919479934  1.0000
  C   C14       1.0  0.7722668221873474  0.8157397689607534  0.3234677279797181  1.0000
  C   C15       1.0  0.7513184981083398  0.936345952071953  0.3880600262008116  1.0000
  C   C16       1.0  0.6760078284789371  0.05773559244555319  0.3447532343758439  1.0000
  C   C17       1.0  0.6136999887467594  0.054368552142953795  0.237210676412495  1.0000
  C   C18       1.0  0.5436152181203583  0.170730780278113  0.2015140331565917  1.0000
  C   C19       1.0  0.5371435242307855  0.28859965347369604  0.2735684115552388  1.0000
  C   C20       1.0  0.6007522083756242  0.28401440431432684  0.3792210372550642  1.0000
  C   C21       1.0  0.43802832147307663  0.8969892256135593  0.6055181558291167  1.0000
  C   C22       1.0  0.3040735952911574  0.8132500371715068  0.650597717768072  1.0000
  C   C23       1.0  0.24204325626709525  0.8927070973764157  0.7237245803783594  1.0000
  C   C24       1.0  0.3120805485017328  0.051588331710142696  0.7473358832211545  1.0000
  C   C25       1.0  0.44561173940091675  0.12724172635569175  0.6979221543226827  1.0000
  C   C26       1.0  0.5283754504956448  0.2956969243428134  0.7209011242025837  1.0000
  C   C27       1.0  0.4506428077913753  0.3968197111088258  0.7658770473482264  1.0000
  C   C28       1.0  0.5367152228455935  0.5527720303972785  0.7876063352606053  1.0000
  C   C29       1.0  0.6986447298577545  0.6047223521461829  0.7650868921124996  1.0000
  C   C30       1.0  0.7663390844732304  0.49774068723699827  0.718717209458532  1.0000
  C   C31       1.0  0.37422413870001486  0.630030203114515  0.24994534575162666  1.0000
  C   C32       1.0  0.026942528068460085  0.3482008542226111  0.588020044815913  1.0000
  C   C33       1.0  0.21280128534821321  0.723446178431473  0.002451145645444795  1.0000
  C   C34       1.0  0.3081005341566223  0.347918709735751  0.016852900807890592  1.0000
  C   C35       1.0  0.9060813103189743  0.025169639143832988  0.8315335870526894  1.0000
  C   C36       1.0  0.6287161036943374  0.7280783664560956  0.04552104694815992  1.0000
  N   N1        1.0  0.0942251093908055  0.0437718802803744  0.184857240048899  1.0000
  N   N2        1.0  0.9067609527224076  0.20286620781528336  0.06880693731747561  1.0000
  N   N3        1.0  0.7971349031306401  0.9448229060323283  0.4936014772750283  1.0000
  N   N4        1.0  0.6683068579248257  0.17221879336113935  0.41378491095384357  1.0000
  N   N5        1.0  0.5079457684636636  0.04922438945327909  0.6290347728320498  1.0000
  N   N6        1.0  0.6831467006551719  0.34788863641822576  0.6964436235824037  1.0000
  N   N7        1.0  0.3640702863157086  0.6599019548469085  0.33809696838899567  1.0000
  N   N8        1.0  0.149781798968398  0.4427922124254024  0.5796721089492607  1.0000
  N   N9        1.0  0.1343884521635985  0.8103651743773382  0.9797777877813018  1.0000
  N   N10       1.0  0.2591034929447247  0.21555642420314305  0.9891352773046549  1.0000
  N   N11       1.0  0.8652195315057227  0.04609823202873288  0.7437445192718357  1.0000
  N   N12       1.0  0.7570951243128262  0.807568603215415  0.03138830878192779  1.0000
