data_image0
_chemical_formula_structural       Al6H78C86O33
_chemical_formula_sum              "Al6 H78 C86 O33"
_cell_length_a       12.520136678579165
_cell_length_b       12.447251840846217
_cell_length_c       26.754792222862672
_cell_angle_alpha    82.99876882546548
_cell_angle_beta     81.42952079257319
_cell_angle_gamma    63.49266881197293

_space_group_name_H-M_alt    "P 1"
_space_group_IT_number       1

loop_
  _space_group_symop_operation_xyz
  'x, y, z'

loop_
  _atom_site_type_symbol
  _atom_site_label
  _atom_site_symmetry_multiplicity
  _atom_site_fract_x
  _atom_site_fract_y
  _atom_site_fract_z
  _atom_site_occupancy
  Al  Al1       1.0  0.41404336761866756  0.4045995355177537  0.5078656167266118  1.0000
  Al  Al2       1.0  0.6679549215280645  0.4153146698037771  0.4957523387711759  1.0000
  Al  Al3       1.0  0.44487327546585215  0.6500124251210693  0.4946806958167045  1.0000
  Al  Al4       1.0  0.9254394743107003  0.932548521406609  0.9816275290903603  1.0000
  Al  Al5       1.0  0.913511124893603  0.6787155533273361  0.99341041414241  1.0000
  Al  Al6       1.0  0.6809548742573317  0.9033759742614649  0.9966819423466545  1.0000
  H   H1        1.0  0.30853811614219523  0.6965589441927945  0.17984097892220768  1.0000
  H   H2        1.0  0.35858343733524856  0.5442800992425488  0.2699634215629061  1.0000
  H   H3        1.0  0.469178377497883  0.2978526410659654  0.2059171198953607  1.0000
  H   H4        1.0  0.48441511598607423  0.3504106925450543  0.2843989791390342  1.0000
  H   H5        1.0  0.663420883979825  0.021971303349040697  0.30884096651142556  1.0000
  H   H6        1.0  0.5193086747783154  0.13815898943266794  0.300398881597836  1.0000
  H   H7        1.0  0.8202796128147156  0.2225999152908642  0.2649744763788036  1.0000
  H   H8        1.0  0.8458281844806949  0.0708233281779371  0.2745572212104364  1.0000
  H   H9        1.0  0.6057735815221507  0.3843084892148454  0.2593710762486694  1.0000
  H   H10       1.0  0.5668160174377591  0.3597578207887864  0.1795972848120329  1.0000
  H   H11       1.0  0.8496340958394271  0.07021381621684238  0.1873966768121633  1.0000
  H   H12       1.0  0.4896453912611349  0.7858044809432059  0.7939195607725011  1.0000
  H   H13       1.0  0.7750667548258862  0.7368186457337771  0.6855902546201307  1.0000
  H   H14       1.0  0.6224356728788014  0.839988341210528  0.6897159854436907  1.0000
  H   H15       1.0  0.6156976047214614  0.8525381671816984  0.7763284968182731  1.0000
  H   H16       1.0  0.9946152383774847  0.804761974504885  0.29462647971562456  1.0000
  H   H17       1.0  0.7725766237075078  0.7711933871805243  0.7696253902961414  1.0000
  H   H18       1.0  0.7472210851199678  0.4558140769198431  0.7150024960779077  1.0000
  H   H19       1.0  0.8447378292119158  0.5248128424947679  0.697927264892698  1.0000
  H   H20       1.0  0.9874313445346488  0.8622103006887587  0.21206359522101076  1.0000
  H   H21       1.0  0.12952255430237616  0.519586735425463  0.21696755105639912  1.0000
  H   H22       1.0  0.3198356204072114  0.5199918133509555  0.15235999603171993  1.0000
  H   H23       1.0  0.9178552968160006  0.7228238240002439  0.24708761242303723  1.0000
  H   H24       1.0  0.537520782686876  0.8821235511209126  0.24244570859843856  1.0000
  H   H25       1.0  0.4693535029463407  0.9860815209958316  0.29056998046884525  1.0000
  H   H26       1.0  0.3861682015009294  0.9890753711294664  0.2419035326365488  1.0000
  H   H27       1.0  0.43852194881417733  0.15640580496290107  0.2217673324376932  1.0000
  H   H28       1.0  0.5204569605864933  0.04904196979591549  0.1769292201914894  1.0000
  H   H29       1.0  0.694745435051587  0.8974688042140002  0.15407464238503366  1.0000
  H   H30       1.0  0.8199987091098895  0.9307107812267075  0.14625909778457918  1.0000
  H   H31       1.0  0.8333407373155313  0.7907378978495175  0.1751522901921589  1.0000
  H   H32       1.0  0.8122008188743169  0.9383632952172575  0.238985494201188  1.0000
  H   H33       1.0  0.7077152083704664  0.878508380822012  0.2512822867950817  1.0000
  H   H34       1.0  0.37074461197178016  0.7100028263300189  0.2940948447621494  1.0000
  H   H35       1.0  0.965147721866458  0.22560378484864424  0.2052195207488694  1.0000
  H   H36       1.0  0.9974661417752982  0.15192274035664607  0.1481824602766366  1.0000
  H   H37       1.0  0.9509561383672821  0.30937718520301866  0.1460503935043178  1.0000
  H   H38       1.0  0.7838495948248294  0.26206575331487153  0.1308242256637513  1.0000
  H   H39       1.0  0.7476530318130798  0.34377977786683533  0.1853325762481717  1.0000
  H   H40       1.0  0.415705872998622  0.9255121262097461  0.7355856706852038  1.0000
  H   H41       1.0  0.45282487972455226  0.9061076111732619  0.6691731132287726  1.0000
  H   H42       1.0  0.30400433308625474  0.9472637559260519  0.6970217480503179  1.0000
  H   H43       1.0  0.4128967318255121  0.7286786329123983  0.6768849677598894  1.0000
  H   H44       1.0  0.34775276182575965  0.7561706633474968  0.7402602403704108  1.0000
  H   H45       1.0  0.8648138863186432  0.28494615052348843  0.7630923446038621  1.0000
  H   H46       1.0  0.9253537887139843  0.28670438488199324  0.8189508774065644  1.0000
  H   H47       1.0  0.8087801475704667  0.24281967447587494  0.823118083399379  1.0000
  H   H48       1.0  0.7312554196750014  0.4535228526333839  0.8503461272167385  1.0000
  H   H49       1.0  0.6618671514452928  0.44051286575108867  0.8002590868592917  1.0000
  H   H50       1.0  0.4592416002730177  0.5639757555463021  0.7209641550666177  1.0000
  H   H51       1.0  0.49412638543872617  0.5618330774085079  0.8082483409630967  1.0000
  H   H52       1.0  0.9441068403349605  0.6129518400465556  0.7205250254252462  1.0000
  H   H53       1.0  0.9366504787926505  0.669569459097566  0.7795714922895769  1.0000
  H   H54       1.0  0.05951965414632103  0.535954087851664  0.7601144344126354  1.0000
  H   H55       1.0  0.9068268823883446  0.5032658251538891  0.8278536689575446  1.0000
  H   H56       1.0  0.9579339737607883  0.4178905680643298  0.7744690363134338  1.0000
  H   H57       1.0  0.9160810610525589  0.9556371038796314  0.35370998846402557  1.0000
  H   H58       1.0  0.04356015023804381  0.8510707554008687  0.38353909775317857  1.0000
  H   H59       1.0  0.014645498346702403  0.004576111005747001  0.3739814192058617  1.0000
  H   H60       1.0  0.1773478075955453  0.8904081821622186  0.30742659007785983  1.0000
  H   H61       1.0  0.04633355440304856  0.9906074014348079  0.2806819169649941  1.0000
  H   H62       1.0  0.21205891556056866  0.8342857282027581  0.11777256196628368  1.0000
  H   H63       1.0  0.06029303796500338  0.9403472890683204  0.12189776112565201  1.0000
  H   H64       1.0  0.17479386795447038  0.9873877714576338  0.1226569038181893  1.0000
  H   H65       1.0  0.08341733975301233  0.990662562992554  0.20828122310117442  1.0000
  H   H66       1.0  0.22772964846139146  0.8724023181354422  0.20657617960377186  1.0000
  H   H67       1.0  0.11128081454305067  0.3573523492895632  0.3348517311543517  1.0000
  H   H68       1.0  0.1221430056255883  0.3669248066327953  0.2676442579127283  1.0000
  H   H69       1.0  0.2467973351567991  0.2652570118627295  0.29960605383382705  1.0000
  H   H70       1.0  0.28905632832618977  0.4315762947709345  0.2658979134641939  1.0000
  H   H71       1.0  0.26113764780612325  0.44014328674329295  0.33230903958254027  1.0000
  H   H72       1.0  0.10534500741039214  0.489868444144399  0.39327125452054185  1.0000
  H   H73       1.0  0.03746913776883098  0.6456268156462598  0.4018310345653262  1.0000
  H   H74       1.0  0.9474298355145409  0.5679968832945618  0.4059433333300361  1.0000
  H   H75       1.0  0.9402876741062515  0.6952049770892187  0.3241744160581561  1.0000
  H   H76       1.0  0.9720781976413237  0.5467558046791295  0.3173280163456198  1.0000
  H   H77       1.0  0.2876147249479147  0.32108916479708677  0.5495820555788384  1.0000
  H   H78       1.0  0.9991279126487741  0.06487552852579628  0.9997701834937444  1.0000
  C   C1        1.0  0.6270051725147284  0.2806289162680642  0.4331037032712572  1.0000
  C   C2        1.0  0.6870641173838836  0.62713432791071  0.2671943977690177  1.0000
  C   C3        1.0  0.6805009534535743  0.6221314646472252  0.31774493720536157  1.0000
  C   C4        1.0  0.6711960992675332  0.6184482646554201  0.3641878643071976  1.0000
  C   C5        1.0  0.2974025839833275  0.636686250140329  0.2582206695770068  1.0000
  C   C6        1.0  0.08156382448824942  0.8041192454341228  0.2794854485083603  1.0000
  C   C7        1.0  0.08151905358835901  0.8190818973312728  0.2205333238541058  1.0000
  C   C8        1.0  0.0872154002855866  0.6957165631294515  0.1067001966584087  1.0000
  C   C9        1.0  0.17722382197121794  0.6741128449400121  0.295028233980176  1.0000
  C   C10       1.0  0.2742566745940709  0.6374777659604332  0.2033461072602378  1.0000
  C   C11       1.0  0.1374656529895334  0.6897496543776995  0.2008174335786279  1.0000
  C   C12       1.0  0.6410896809897935  0.6001422153211634  0.4174015010438339  1.0000
  C   C13       1.0  0.08756139987150398  0.606087072717244  0.23464632118698603  1.0000
  C   C14       1.0  0.12294202594084432  0.582792685351464  0.29057235678402543  1.0000
  C   C15       1.0  0.11192841712324514  0.692307833606236  0.14933031159795007  1.0000
  C   C16       1.0  0.21554197638662495  0.6629962752469822  0.3446720611587537  1.0000
  C   C17       1.0  0.25925535676335454  0.6464417892523215  0.38423969753949183  1.0000
  C   C18       1.0  0.5714156410861051  0.31647214015627867  0.26106398774228984  1.0000
  C   C19       1.0  0.6139913464694616  0.10168204786548782  0.2843960644585195  1.0000
  C   C20       1.0  0.628985060552992  0.06609268702113978  0.22906323537321066  1.0000
  C   C21       1.0  0.6598298999435316  0.1315514381319502  0.0964952947140887  1.0000
  C   C22       1.0  0.6589848210129574  0.1978553890422674  0.2872444076490126  1.0000
  C   C23       1.0  0.30848602899707345  0.6144221457379401  0.43194639876978863  1.0000
  C   C24       1.0  0.5584113525305769  0.2917274990625103  0.20780334028329148  1.0000
  C   C25       1.0  0.6554653766300191  0.16528016318139996  0.193369845303657  1.0000
  C   C26       1.0  0.7807254326506766  0.1568240457856476  0.2010521458728576  1.0000
  C   C27       1.0  0.7855177824287055  0.15911776294265678  0.2583517320881866  1.0000
  C   C28       1.0  0.6539881438707412  0.1501506923165437  0.1406932341043188  1.0000
  C   C29       1.0  0.6580539595491787  0.216964287550816  0.3396367441678265  1.0000
  C   C30       1.0  0.6522757876362136  0.23602728168385304  0.3836998912678524  1.0000
  C   C31       1.0  0.5365426113961362  0.665371002941626  0.7330997693654026  1.0000
  C   C32       1.0  0.6871189998567929  0.7562363822303908  0.7069709361681261  1.0000
  C   C33       1.0  0.6898779520159977  0.7681766919259234  0.7633373693913725  1.0000
  C   C34       1.0  0.6125214215738524  0.2821721146080094  0.5771566278382068  1.0000
  C   C35       1.0  0.6933792738183938  0.6894481860067999  0.8911895296917081  1.0000
  C   C36       1.0  0.6580009554555631  0.6499623043968866  0.701161132350812  1.0000
  C   C37       1.0  0.5422435204046748  0.6888709538948063  0.7888055615746055  1.0000
  C   C38       1.0  0.6746462443616822  0.6623875368006792  0.7962770800986263  1.0000
  C   C39       1.0  0.772304019464947  0.5357958090328266  0.7783577501240089  1.0000
  C   C40       1.0  0.7617024853002619  0.5334500791800281  0.7213600103972198  1.0000
  C   C41       1.0  0.6820998622792164  0.6758140410467488  0.8483180759280273  1.0000
  C   C42       1.0  0.6518202231092475  0.6407707192066852  0.6482989594974952  1.0000
  C   C43       1.0  0.6474605494500667  0.6306252149495178  0.6040673102529651  1.0000
  C   C44       1.0  0.11951889419093226  0.6963647072698078  0.8647547790437855  1.0000
  C   C45       1.0  0.628044267229626  0.6043918800714605  0.5566525853259634  1.0000
  C   C46       1.0  0.14955762321194757  0.6858632098536787  0.8191841774978599  1.0000
  C   C47       1.0  0.17691813638047196  0.6753808456930983  0.7691468454855581  1.0000
  C   C48       1.0  0.19612623256190193  0.6664139534248292  0.7228930877861116  1.0000
  C   C49       1.0  0.2199128613722865  0.6552454208917025  0.6728022842558374  1.0000
  C   C50       1.0  0.2445394067087748  0.6440208001867516  0.6270146112298534  1.0000
  C   C51       1.0  0.7026597111085239  0.084989004368758  0.861403947175873  1.0000
  C   C52       1.0  0.6873635499298274  0.11405854320305048  0.816616897878184  1.0000
  C   C53       1.0  0.6733445379718078  0.1449651031384747  0.7674493613007201  1.0000
  C   C54       1.0  0.6627774557717601  0.1718228118777816  0.7219258897370864  1.0000
  C   C55       1.0  0.6500659588543058  0.20233619903768835  0.6726402770465967  1.0000
  C   C56       1.0  0.2948343955054682  0.6166415530454828  0.5756179748122463  1.0000
  C   C57       1.0  0.6378211278429688  0.2311834272163865  0.6275985813935209  1.0000
  C   C58       1.0  0.03816021892674835  0.7269383324348837  0.058759181936025584  1.0000
  C   C59       1.0  0.7269391272307859  0.7061209317137409  0.07266773748469291  1.0000
  C   C60       1.0  0.696940756337689  0.06582989163572249  0.0517650117714936  1.0000
  C   C61       1.0  0.062193567201340685  0.7208905999852534  0.9155778305981954  1.0000
  C   C62       1.0  0.7219446730995501  0.7156751050389188  0.9363642595311603  1.0000
  C   C63       1.0  0.7311927678464659  0.036562607091077816  0.9119284125487184  1.0000
  C   C64       1.0  0.7005268005899269  0.668659701905078  0.12403565054699327  1.0000
  C   C65       1.0  0.6939152604582262  0.6491249712969278  0.1701798159592016  1.0000
  C   C66       1.0  0.6891813534830434  0.6342519308903007  0.22071157492607088  1.0000
  C   C67       1.0  0.5119808268566786  0.06562692439253939  0.21709986013879498  1.0000
  C   C68       1.0  0.4750089745638775  0.9756771095340825  0.2498815454705365  1.0000
  C   C69       1.0  0.7343898891471524  0.9387000444700176  0.22423024892432147  1.0000
  C   C70       1.0  0.772395201426733  0.8869582555424881  0.17205038908812748  1.0000
  C   C71       1.0  0.8066230342895792  0.25611993318143783  0.1695708047036533  1.0000
  C   C72       1.0  0.9371960818384152  0.23445251023690616  0.16723603031228151  1.0000
  C   C73       1.0  0.42029164684709036  0.7601877265128749  0.7124356307749694  1.0000
  C   C74       1.0  0.398604716010645  0.8915191191277716  0.7030691089972123  1.0000
  C   C75       1.0  0.7461517666509893  0.4350104573551405  0.8100466136088754  1.0000
  C   C76       1.0  0.8421670604121304  0.305985109635074  0.803196340688821  1.0000
  C   C77       1.0  0.9018759485432213  0.5093416272633745  0.7867653464539757  1.0000
  C   C78       1.0  0.9619215473311942  0.5873628053530524  0.7603233998043278  1.0000
  C   C79       1.0  0.08426043818255403  0.9074749984404061  0.3048957963800731  1.0000
  C   C80       1.0  0.011142479322245567  0.930402605996072  0.3569399724234614  1.0000
  C   C81       1.0  0.1388667605539525  0.9010675015224834  0.19395967190294527  1.0000
  C   C82       1.0  0.14669144497335673  0.915940991851009  0.1361369974283591  1.0000
  C   C83       1.0  0.21841458423333662  0.45042068281843944  0.29778468335320696  1.0000
  C   C84       1.0  0.17124833547467233  0.3555255307075953  0.3002480044150744  1.0000
  C   C85       1.0  0.010578872867313375  0.6025234947412486  0.3288574696466923  1.0000
  C   C86       1.0  0.02720006776234392  0.5748414667669977  0.3853338532855872  1.0000
  O   O1        1.0  0.3279339110942915  0.5111298347736052  0.452088731720842  1.0000
  O   O2        1.0  0.7009101583027971  0.5022997988557663  0.5393889220992634  1.0000
  O   O3        1.0  0.5354007525752141  0.6818629241375687  0.5358966718335978  1.0000
  O   O4        1.0  0.3262725281077366  0.6940516617299223  0.5496106711382751  1.0000
  O   O5        1.0  0.5097037462041882  0.4914270575880337  0.4996763424952774  1.0000
  O   O6        1.0  0.7999401847809935  0.0446673685703161  0.029135971101673885  1.0000
  O   O7        1.0  0.007036382602486278  0.8344389733278558  0.041176819026730996  1.0000
  O   O8        1.0  0.02620925638030521  0.6444893388356475  0.0383721075341512  1.0000
  O   O9        1.0  0.8256951582371245  0.6345895302949671  0.049341412251749296  1.0000
  O   O10       1.0  0.6539452818540711  0.8096242794371876  0.05606550250779919  1.0000
  O   O11       1.0  0.6250496683558567  0.0261276188972701  0.0397814978619238  1.0000
  O   O12       1.0  0.5256252339385555  0.30014377977910556  0.4569156499910818  1.0000
  O   O13       1.0  0.8332053340967819  0.017014112792857396  0.9228309228887994  1.0000
  O   O14       1.0  0.041113846662852956  0.8201724257635662  0.9315677943953274  1.0000
  O   O15       1.0  0.03256690223081203  0.6396785953824419  0.9390620231496526  1.0000
  O   O16       1.0  0.8252358642681942  0.6456512082425974  0.9509279567149775  1.0000
  O   O17       1.0  0.6451446464735543  0.8107794662785747  0.9582629306590107  1.0000
  O   O18       1.0  0.6501552462545491  0.0145318376920969  0.9405697740544667  1.0000
  O   O19       1.0  0.8392193697491307  0.8372321662422023  0.9904896860318146  1.0000
  O   O20       1.0  0.7080610487772532  0.3023894402035125  0.4486389558244781  1.0000
  O   O21       1.0  0.7128071846758958  0.50398262969793  0.4399243350592243  1.0000
  O   O22       1.0  0.5408354614229937  0.6783612371391001  0.4368275428637887  1.0000
  O   O23       1.0  0.3310364398380446  0.693266837101241  0.4499042764668316  1.0000
  O   O24       1.0  0.30868996111196645  0.5179204699062793  0.5613576947559551  1.0000
  O   O25       1.0  0.508819671545467  0.3103986731624531  0.5655403107031489  1.0000
  O   O26       1.0  0.6977345456978271  0.29831747399656183  0.5488625140266024  1.0000
  O   O27       1.0  0.33790247639302623  0.5179333001732259  0.18681476772053426  1.0000
  O   O28       1.0  0.9628805358473046  0.6473949674014534  0.2306017323596592  1.0000
  O   O29       1.0  0.3543370990235177  0.7134702549444468  0.2592310364095596  1.0000
  O   O30       1.0  0.5320318576253911  0.5503804117528688  0.7349497775805248  1.0000
  O   O31       1.0  0.48672251509794506  0.6316171508646563  0.8245361654182801  1.0000
  O   O32       1.0  0.32555493390110973  0.3266423124498488  0.5157889709692611  1.0000
  O   O33       1.0  0.009209565161874905  0.015410107895341701  0.9726394857200518  1.0000
