data_image0
_chemical_formula_structural       FeCuH18C30S2N2O4F12
_chemical_formula_sum              "Fe1 Cu1 H18 C30 S2 N2 O4 F12"
_cell_length_a       8.39639096142484
_cell_length_b       10.172497446337301
_cell_length_c       10.66530949401182
_cell_angle_alpha    93.11399925640414
_cell_angle_beta     112.70630574362721
_cell_angle_gamma    101.00284370896438

_space_group_name_H-M_alt    "P 1"
_space_group_IT_number       1

loop_
  _space_group_symop_operation_xyz
  'x, y, z'

loop_
  _atom_site_type_symbol
  _atom_site_label
  _atom_site_symmetry_multiplicity
  _atom_site_fract_x
  _atom_site_fract_y
  _atom_site_fract_z
  _atom_site_occupancy
  Fe  Fe1       1.0  0.5000008303665738  0.49999817731746543  0.4999997542147838  1.0000
  Cu  Cu1       1.0  0.9999977358576188  1.6751722140003596e-07  5.55257976513803e-07  1.0000
  H   H1        1.0  0.1589967184969794  0.03947998725247712  0.3022667216248749  1.0000
  H   H2        1.0  0.841001985897343  0.9605194085166674  0.6977339120816168  1.0000
  H   H3        1.0  0.1106936621822215  0.9282445936413952  0.48974015083964423  1.0000
  H   H4        1.0  0.8893076252404484  0.07175480523763161  0.5102612638379895  1.0000
  H   H5        1.0  0.6844952057679948  0.627661141895125  0.17829599165715151  1.0000
  H   H6        1.0  0.31550707460802846  0.37233725245835825  0.8217066133572928  1.0000
  H   H7        1.0  0.7562938182031759  0.748326861990087  0.0036300965763871444  1.0000
  H   H8        1.0  0.24370489069539766  0.25167253929058125  0.9963714763875728  1.0000
  H   H9        1.0  0.4745822775235809  0.7530251738682807  0.41300922588805383  1.0000
  H   H10       1.0  0.5254161147971813  0.24697319928582578  0.5869893898972691  1.0000
  H   H11       1.0  0.18951019926896615  0.5411126215641036  0.2910970177315519  1.0000
  H   H12       1.0  0.8104924409047883  0.45888271201071984  0.7089008632624216  1.0000
  H   H13       1.0  0.30786872528980774  0.3201680479568694  0.2524706942745851  1.0000
  H   H14       1.0  0.6921362038557177  0.6798262881588786  0.7475297067992271  1.0000
  H   H15       1.0  0.6687516783419057  0.39441264681303073  0.35036951734486615  1.0000
  H   H16       1.0  0.3312554650257484  0.6055847421682119  0.6496345102056296  1.0000
  H   H17       1.0  0.5306325997263812  0.19081198521131884  0.876091440459149  1.0000
  H   H18       1.0  0.46936819909793576  0.8091944586326677  0.12390453354618106  1.0000
  C   C1        1.0  0.05804809416402191  0.9463133677103885  0.27937572285241435  1.0000
  C   C2        1.0  0.9419509177996233  0.053687045162270415  0.7206259895177851  1.0000
  C   C3        1.0  0.030223772548481638  0.8837456050679866  0.3835600751900827  1.0000
  C   C4        1.0  0.9697772118091236  0.11625278221904271  0.6164412000813186  1.0000
  C   C5        1.0  0.8920203391898768  0.7679424784581886  0.350252472356985  1.0000
  C   C6        1.0  0.10797934914930352  0.23205590176237936  0.6497474731713737  1.0000
  C   C7        1.0  0.7923274015573016  0.7175042908435216  0.21070879421648678  1.0000
  C   C8        1.0  0.20767229579037413  0.28249410040008643  0.7892930298268155  1.0000
  C   C9        1.0  0.8313851742405449  0.7846358478161763  0.11267587515212095  1.0000
  C   C10       1.0  0.1686135346580286  0.21536355346448488  0.8873256978118391  1.0000
  C   C11       1.0  0.6336994831944409  0.6016666827403087  0.3999753874390565  1.0000
  C   C12       1.0  0.36630377662219615  0.39833069055307396  0.6000255901397864  1.0000
  C   C13       1.0  0.47640020682719364  0.6505392055781986  0.3804264844123254  1.0000
  C   C14       1.0  0.5236027634371182  0.3494571726577576  0.61957717153269  1.0000
  C   C15       1.0  0.3271008433260435  0.5388412882734671  0.31640686556400516  1.0000
  C   C16       1.0  0.6729021089212711  0.4611550679164013  0.6835930333511373  1.0000
  C   C17       1.0  0.39034103763733446  0.4213147319145989  0.29604475541605524  1.0000
  C   C18       1.0  0.6096625954897731  0.5786795971346878  0.7039543159147214  1.0000
  C   C19       1.0  0.5795886058712016  0.4594302875462333  0.3476590198748398  1.0000
  C   C20       1.0  0.42041564239453794  0.540566075710089  0.6523422087833454  1.0000
  C   C21       1.0  0.7811226462858017  0.3647462367320388  0.07902922252915809  1.0000
  C   C22       1.0  0.21887726586454906  0.635257199893566  0.9209710295448019  1.0000
  C   C23       1.0  0.796494499617573  0.22253332131025164  0.030065988841030802  1.0000
  C   C24       1.0  0.20350064681203864  0.7774670979206422  0.9699364305873814  1.0000
  C   C25       1.0  0.6445793960312257  0.14610142799833176  0.9170644054420195  1.0000
  C   C26       1.0  0.35541763002570553  0.8539009939254002  0.08293492625455916  1.0000
  C   C27       1.0  0.6300982614135648  0.018473795169995796  0.8544092749394495  1.0000
  C   C28       1.0  0.3698977671857691  0.9815296257677486  0.14558792716285748  1.0000
  C   C29       1.0  0.4555353893528107  0.9531681352967923  0.7307279725341971  1.0000
  C   C30       1.0  0.5444651109106926  0.04683730246672011  0.2692688013223616  1.0000
  S   S1        1.0  0.8520314360287886  0.6982871907318896  0.484976608416666  1.0000
  S   S2        1.0  0.1479695528330609  0.3017112020666559  0.5150256061122036  1.0000
  N   N1        1.0  0.9605274099418322  0.8982197509242836  0.14538545050467633  1.0000
  N   N2        1.0  0.039471303460985006  0.10177965586790803  0.8546170617167519  1.0000
  O   O1        1.0  0.942072149073944  0.19356911126892845  0.09285875089149455  1.0000
  O   O2        1.0  0.05792021303739159  0.8064262760046506  0.9071472773075087  1.0000
  O   O3        1.0  0.7397235224625689  0.9420095821798213  0.880336112438961  1.0000
  O   O4        1.0  0.260272221088691  0.05799284921201321  0.11966470728698651  1.0000
  F   F1        1.0  0.8775647659384872  0.40147168040886794  0.21614536192178946  1.0000
  F   F2        1.0  0.12244188883081365  0.5985327535373415  0.7838532249563954  1.0000
  F   F3        1.0  0.6104547366928371  0.3725940478022878  0.05310146863440937  1.0000
  F   F4        1.0  0.3895470821103189  0.6274114245852972  0.9469013312525263  1.0000
  F   F5        1.0  0.8439534096310483  0.4600439029985921  0.013981888605542342  1.0000
  F   F6        1.0  0.1560404704873264  0.5399524037260477  0.9860087021083216  1.0000
  F   F7        1.0  0.33414567986719124  0.031161602113996913  0.6982660409458036  1.0000
  F   F8        1.0  0.6658506517972143  0.9688428304157455  0.30173130056274294  1.0000
  F   F9        1.0  0.4868000898947147  0.9273684373229331  0.616097014133416  1.0000
  F   F10       1.0  0.5131994219196797  0.07263801047763252  0.38389950864380756  1.0000
  F   F11       1.0  0.37604569480122774  0.832727023790284  0.7539992485154131  1.0000
  F   F12       1.0  0.6239538782500771  0.16727535715114786  0.2459933500925685  1.0000
