data_image0
_chemical_formula_structural       Cu8H32C16N40
_chemical_formula_sum              "Cu8 H32 C16 N40"
_cell_length_a       4.284159155027349
_cell_length_b       14.135811816006628
_cell_length_c       14.135841683077594
_cell_angle_alpha    89.99999529401452
_cell_angle_beta     90.00038603281595
_cell_angle_gamma    90.0001138758654

_space_group_name_H-M_alt    "P 1"
_space_group_IT_number       1

loop_
  _space_group_symop_operation_xyz
  'x, y, z'

loop_
  _atom_site_type_symbol
  _atom_site_label
  _atom_site_symmetry_multiplicity
  _atom_site_fract_x
  _atom_site_fract_y
  _atom_site_fract_z
  _atom_site_occupancy
  Cu  Cu1       1.0  0.7949026217227483  0.39632129001830674  0.5108384485386421  1.0000
  Cu  Cu2       1.0  0.2949000308903392  0.48915908427999705  0.8963211621455398  1.0000
  Cu  Cu3       1.0  0.2949093099937627  0.010838495658568096  0.6036785436444772  1.0000
  Cu  Cu4       1.0  0.7949092505571328  0.10368013618064251  0.9891580505823893  1.0000
  Cu  Cu5       1.0  0.2050953601804437  0.6036795566249256  0.4891645518465352  1.0000
  Cu  Cu6       1.0  0.7051026193635082  0.5108410549415937  0.10368113082289906  1.0000
  Cu  Cu7       1.0  0.7050956743785476  0.9891616435639822  0.39631808995343215  1.0000
  Cu  Cu8       1.0  0.20509339959939868  0.8963185881950794  0.010835753326688298  1.0000
  H   H1        1.0  0.5427575626324169  0.6688375674215907  0.6541087390172463  1.0000
  H   H2        1.0  0.0427581308977025  0.3459030264096584  0.16884176279935295  1.0000
  H   H3        1.0  0.0427476221386129  0.1541000984663015  0.33116107576194037  1.0000
  H   H4        1.0  0.5427601773809557  0.8311614521401085  0.8458978073655812  1.0000
  H   H5        1.0  0.4572450876723479  0.3311639866460538  0.3458977984808412  1.0000
  H   H6        1.0  0.9572375168283926  0.6540964053866036  0.8311619450050782  1.0000
  H   H7        1.0  0.9572503597136688  0.8458993333308842  0.6688376800935811  1.0000
  H   H8        1.0  0.4572564778597793  0.1688379796630528  0.15409599655799863  1.0000
  H   H9        1.0  0.4731885996553303  0.6605727167253761  0.7737548854607252  1.0000
  H   H10       1.0  0.973210953133993  0.22625542844402702  0.16057792657729655  1.0000
  H   H11       1.0  0.9731920522588808  0.2737482717167978  0.33942896559641156  1.0000
  H   H12       1.0  0.4731956538251154  0.8394269672472633  0.7262493942563848  1.0000
  H   H13       1.0  0.5268093822601115  0.33942954476405174  0.22624882234601523  1.0000
  H   H14       1.0  0.026791697140794195  0.7737440033543663  0.8394264886560234  1.0000
  H   H15       1.0  0.026812932146619096  0.7262525749287435  0.6605704976879422  1.0000
  H   H16       1.0  0.5268069963523557  0.16057104970526126  0.27374653191757387  1.0000
  H   H17       1.0  0.664398298180039  0.33161254161129966  0.7156616339921554  1.0000
  H   H18       1.0  0.16439931622910106  0.28433458816619617  0.8316174241359418  1.0000
  H   H19       1.0  0.16440198096462666  0.21566361850636184  0.6683841330295477  1.0000
  H   H20       1.0  0.6644055304036623  0.1683852667829271  0.7843374239261391  1.0000
  H   H21       1.0  0.3356043520396597  0.6683890124566646  0.2843371218681268  1.0000
  H   H22       1.0  0.8355986656595816  0.7156641362077282  0.16838486882770098  1.0000
  H   H23       1.0  0.8355866641521884  0.7843386429804725  0.33161250055132274  1.0000
  H   H24       1.0  0.3355971198057047  0.8316106279001049  0.2156620393559904  1.0000
  H   H25       1.0  0.7264374662831656  0.3856045032572838  0.8209635263387153  1.0000
  H   H26       1.0  0.226444417506201  0.17903750442752653  0.8856114478329854  1.0000
  H   H27       1.0  0.2264419056717486  0.3209628628744666  0.6143909455367049  1.0000
  H   H28       1.0  0.7264373831673722  0.11439405091594783  0.6790335380828336  1.0000
  H   H29       1.0  0.2735581813942645  0.6143942211160366  0.17903593693603875  1.0000
  H   H30       1.0  0.773553564396991  0.8209633422157057  0.11439155255219896  1.0000
  H   H31       1.0  0.7735514077857317  0.6790379837676497  0.38560427320582835  1.0000
  H   H32       1.0  0.2735512619304287  0.8856046734553545  0.32096238807655897  1.0000
  C   C1        1.0  0.2880168707286899  0.5558945573216151  0.6941924029651074  1.0000
  C   C2        1.0  0.7880138617880873  0.30581713078345985  0.05589843200188227  1.0000
  C   C3        1.0  0.7880154150446614  0.19418433260919712  0.4441094906197235  1.0000
  C   C4        1.0  0.28802633267653016  0.9441050121624811  0.8058086627040166  1.0000
  C   C5        1.0  0.7119857795374074  0.4441069967461715  0.3058105974248873  1.0000
  C   C6        1.0  0.2119841201305732  0.6941837158597084  0.944105983226535  1.0000
  C   C7        1.0  0.21198956936405014  0.8058150991900919  0.5558906800863139  1.0000
  C   C8        1.0  0.7119809858429064  0.055894419637795116  0.19418514120987132  1.0000
  C   C9        1.0  0.97862598090105  0.4391119476437738  0.7142421605552155  1.0000
  C   C10       1.0  0.47863251942592194  0.2857601384255944  0.9391224912819066  1.0000
  C   C11       1.0  0.4786351588509418  0.21423543284091554  0.5608825478291875  1.0000
  C   C12       1.0  0.9786255552935615  0.060886055031232914  0.7857568421811008  1.0000
  C   C13       1.0  0.0213813377134429  0.5608881915792595  0.28576013241806913  1.0000
  C   C14       1.0  0.5213701308266251  0.7142371711035126  0.06088050910825868  1.0000
  C   C15       1.0  0.5213651571807034  0.7857661212263597  0.43911550060705895  1.0000
  C   C16       1.0  0.0213794290810014  0.9391147916144291  0.21423979141678723  1.0000
  N   N1        1.0  0.9833914099155477  0.45554114736056317  0.6209672096112724  1.0000
  N   N2        1.0  0.48339005621240716  0.3790367063602532  0.9555452852951586  1.0000
  N   N3        1.0  0.48339874362318364  0.12096311238830285  0.5444604711189596  1.0000
  N   N4        1.0  0.983395252920687  0.044458980531452114  0.8790332178643038  1.0000
  N   N5        1.0  0.016608906197944893  0.5444618215526377  0.3790379130411025  1.0000
  N   N6        1.0  0.516607925705294  0.6209662625522869  0.04445842251155339  1.0000
  N   N7        1.0  0.5165992382145816  0.8790341971395751  0.4555375773150414  1.0000
  N   N8        1.0  0.016607397208126404  0.9555383289981308  0.12095846377997076  1.0000
  N   N9        1.0  0.1848310824247008  0.5334253560757747  0.6080920116185806  1.0000
  N   N10       1.0  0.6848384523438539  0.39190907782773376  0.033428488555124085  1.0000
  N   N11       1.0  0.6848422813531555  0.10809090692746544  0.4665756827979094  1.0000
  N   N12       1.0  0.18483556774632603  0.9665762718775569  0.8919102547040934  1.0000
  N   N13       1.0  0.8151645653149372  0.4665783202591599  0.39191169618568  1.0000
  N   N14       1.0  0.3151665320790258  0.6080875242790142  0.9665738044158797  1.0000
  N   N15       1.0  0.3151603688633315  0.8919120619867587  0.5334223656407031  1.0000
  N   N16       1.0  0.8151624140605095  0.0334210376504345  0.10808496404342796  1.0000
  N   N17       1.0  0.5052757833865655  0.6261643764418637  0.7112457311224458  1.0000
  N   N18       1.0  0.005284551119629599  0.28876162206243094  0.12617076163470384  1.0000
  N   N19       1.0  0.0052823426750663  0.21124289449277717  0.37383412141547706  1.0000
  N   N20       1.0  0.5052867580820077  0.8738353273710686  0.7887593226242512  1.0000
  N   N21       1.0  0.4947198643540317  0.37383717762369884  0.28875868410352  1.0000
  N   N22       1.0  0.9947087624251765  0.7112399320024707  0.8738322387455992  1.0000
  N   N23       1.0  0.9947179733707401  0.7887558298819572  0.6261660492857357  1.0000
  N   N24       1.0  0.4947228946232299  0.12616339700678483  0.21123518871370803  1.0000
  N   N25       1.0  0.1674897124380053  0.49947398681154465  0.7634382452813211  1.0000
  N   N26       1.0  0.667486883773705  0.23656669845003364  0.9994806091854682  1.0000
  N   N27       1.0  0.6674908518483916  0.2634332341218695  0.5005255293565651  1.0000
  N   N28       1.0  0.16749949680420428  0.0005256366201678002  0.736564025727908  1.0000
  N   N29       1.0  0.8325129378512981  0.5005275672561568  0.23656687737353363  1.0000
  N   N30       1.0  0.3324970930430382  0.763432733342647  0.0005223911852282998  1.0000
  N   N31       1.0  0.33250012747291174  0.7365669050962326  0.4994739339132861  1.0000
  N   N32       1.0  0.8325124900691064  0.9994716729122148  0.2634297781909111  1.0000
  N   N33       1.0  0.8243975919265054  0.3659721299306328  0.7577088173804396  1.0000
  N   N34       1.0  0.32438894532482715  0.242287528632751  0.8659784747388951  1.0000
  N   N35       1.0  0.3243911272999894  0.2577121918053892  0.6340262442056213  1.0000
  N   N36       1.0  0.8244013513041394  0.1340271922344058  0.74228915780413  1.0000
  N   N37       1.0  0.17560272411608932  0.6340280092903543  0.2422906458990964  1.0000
  N   N38       1.0  0.6756043682186785  0.7577111957396666  0.13402523306314146  1.0000
  N   N39       1.0  0.6755998519971484  0.7422900696821699  0.365970389377672  1.0000
  N   N40       1.0  0.17560129889879048  0.8659715321411315  0.2577088906346531  1.0000
