data_image0
_chemical_formula_structural       Pr4H96C96N24O48
_chemical_formula_sum              "Pr4 H96 C96 N24 O48"
_cell_length_a       16.07952138322504
_cell_length_b       16.07951819673896
_cell_length_c       16.333553273000213
_cell_angle_alpha    90.00001832006829
_cell_angle_beta     89.99998884605552
_cell_angle_gamma    120.00003326991303

_space_group_name_H-M_alt    "P 1"
_space_group_IT_number       1

loop_
  _space_group_symop_operation_xyz
  'x, y, z'

loop_
  _atom_site_type_symbol
  _atom_site_label
  _atom_site_symmetry_multiplicity
  _atom_site_fract_x
  _atom_site_fract_y
  _atom_site_fract_z
  _atom_site_occupancy
  Pr  Pr1       1.0  0.6666665561088507  0.3333339143768796  0.16202474557141497  1.0000
  Pr  Pr2       1.0  0.3333338819859505  0.6666667429596699  0.33797552188422497  1.0000
  Pr  Pr3       1.0  0.33333387021162497  0.6666668182931801  0.8379757278100399  1.0000
  Pr  Pr4       1.0  0.6666665443345392  0.33333398971029726  0.6620243392605758  1.0000
  H   H1        1.0  0.5031341810858051  0.24938501348467665  0.9809322923016167  1.0000
  H   H2        1.0  0.7506142482966566  0.2537496104638137  0.980931657039399  1.0000
  H   H3        1.0  0.7462500334819919  0.4968649054817431  0.9809323079471427  1.0000
  H   H4        1.0  0.24938583499728384  0.5031346452364642  0.5190677595414642  1.0000
  H   H5        1.0  0.4968647127488381  0.7462502663301366  0.5190683863188994  1.0000
  H   H6        1.0  0.25374948254022195  0.7506145144069195  0.5190684102996884  1.0000
  H   H7        1.0  0.4968650014158982  0.7506144753663478  0.0190675688431057  1.0000
  H   H8        1.0  0.24938617802385465  0.7462511222060614  0.0190675918687475  1.0000
  H   H9        1.0  0.253749149019704  0.5031345833693662  0.0190681654342342  1.0000
  H   H10       1.0  0.7506143284730837  0.4968651064646251  0.48093210160320876  1.0000
  H   H11       1.0  0.503134469752851  0.2537492225209803  0.4809320870624775  1.0000
  H   H12       1.0  0.7462503218708748  0.24938559635357663  0.4809314508450768  1.0000
  H   H13       1.0  0.3363994594500427  0.14809170195255214  0.9296507379830886  1.0000
  H   H14       1.0  0.851908604428104  0.18830829356479487  0.9296506949174344  1.0000
  H   H15       1.0  0.8116916464279025  0.6636007545526251  0.929650773555629  1.0000
  H   H16       1.0  0.14809155375650826  0.33639963659517497  0.5703499096049854  1.0000
  H   H17       1.0  0.6636005329288321  0.8116918810635597  0.5703493227595972  1.0000
  H   H18       1.0  0.18830793997818773  0.8519079314940043  0.5703493746275613  1.0000
  H   H19       1.0  0.6636009668704328  0.8519090307175073  0.0703497353983664  1.0000
  H   H20       1.0  0.1480911999829785  0.8116918171957934  0.070349778463985  1.0000
  H   H21       1.0  0.18830815798318667  0.33639935620796274  0.07034969982579038  1.0000
  H   H22       1.0  0.8519088725639674  0.6636010960748846  0.4296505637764696  1.0000
  H   H23       1.0  0.3363992714822643  0.18830822969693636  0.4296505383851681  1.0000
  H   H24       1.0  0.8116922234921802  0.14809182020708522  0.4296504865171116  1.0000
  H   H25       1.0  0.2383002718561328  0.9758500515172983  0.9712646029825507  1.0000
  H   H26       1.0  0.024148868328673214  0.26244955762636113  0.9712651234882587  1.0000
  H   H27       1.0  0.7375502362463067  0.7616993993136418  0.9712645214514026  1.0000
  H   H28       1.0  0.9758506473439962  0.23830057131795696  0.5287354772645899  1.0000
  H   H29       1.0  0.7616988738393713  0.7375494520782908  0.5287355763377731  1.0000
  H   H30       1.0  0.26244933268618803  0.02414894258133418  0.5287355119235074  1.0000
  H   H31       1.0  0.7616992697048417  0.024149078274319738  0.028735258162079405  1.0000
  H   H32       1.0  0.975850314173023  0.7375499312247555  0.0287353498931182  1.0000
  H   H33       1.0  0.2624501900741834  0.2383013333563326  0.028735339693398  1.0000
  H   H34       1.0  0.024149516126357184  0.7616991803832179  0.4712649961167372  1.0000
  H   H35       1.0  0.2383012896309822  0.2624502996228912  0.4712648970435539  1.0000
  H   H36       1.0  0.7375498498155079  0.9758505462697825  0.4712649614578694  1.0000
  H   H37       1.0  0.3109503162189638  0.9055146102686747  0.06295579555460762  1.0000
  H   H38       1.0  0.09448575491907713  0.4054362120751094  0.0629557376104231  1.0000
  H   H39       1.0  0.5945648761302991  0.6890500003448778  0.0629557343204823  1.0000
  H   H40       1.0  0.9055147513755555  0.3109499870510744  0.43704387298329556  1.0000
  H   H41       1.0  0.6890496141918374  0.5945640285752063  0.43704393834910593  1.0000
  H   H42       1.0  0.40543609765783367  0.09448579366623724  0.4370444990754834  1.0000
  H   H43       1.0  0.6890498472513967  0.09448514143241482  0.9370440655900651  1.0000
  H   H44       1.0  0.9055146714014196  0.5945645205948578  0.9370441235343776  1.0000
  H   H45       1.0  0.40543590924945494  0.3109503732656832  0.937044126824226  1.0000
  H   H46       1.0  0.09448541209481211  0.689049764650008  0.5629559881613772  1.0000
  H   H47       1.0  0.31095054927853033  0.4054357231258835  0.5629559227955597  1.0000
  H   H48       1.0  0.5945646877219062  0.9055145799444162  0.5629559743058792  1.0000
  H   H49       1.0  0.43764621952252714  0.9137058736896222  0.1381133440839761  1.0000
  H   H50       1.0  0.0862944297657719  0.523941867037081  0.13811270418475632  1.0000
  H   H51       1.0  0.4760585935833036  0.5623535712018041  0.13811267288337353  1.0000
  H   H52       1.0  0.9137056607522852  0.43764627225246516  0.3618875572269076  1.0000
  H   H53       1.0  0.5623534561676352  0.4760587028663679  0.3618875969357305  1.0000
  H   H54       1.0  0.5239417106740731  0.08629444114345836  0.3618875392887659  1.0000
  H   H55       1.0  0.5623535848885552  0.08629423707096603  0.8618871292974433  1.0000
  H   H56       1.0  0.9137059965547181  0.4760588656328864  0.8618871569600444  1.0000
  H   H57       1.0  0.5239418327371865  0.43764716146817045  0.8618871882614272  1.0000
  H   H58       1.0  0.08629486177733252  0.5623531203893035  0.638112916154327  1.0000
  H   H59       1.0  0.4376473292121189  0.5239416707441933  0.638112264208978  1.0000
  H   H60       1.0  0.4760584527962734  0.9137053105577237  0.6381129340925612  1.0000
  H   H61       1.0  0.6805619484132136  0.006907821975872272  0.1787571206260452  1.0000
  H   H62       1.0  0.993093025369049  0.6736553088471028  0.17875719559013706  1.0000
  H   H63       1.0  0.3263450524214732  0.31943826081132437  0.17875720374039622  1.0000
  H   H64       1.0  0.006907875537315469  0.6805621799204289  0.32124251536299653  1.0000
  H   H65       1.0  0.31943756310792537  0.32634452715554824  0.32124242968363603  1.0000
  H   H66       1.0  0.6736546056166689  0.9930926294802448  0.3212431128903361  1.0000
  H   H67       1.0  0.319437855997897  0.993092288784531  0.8212421282820588  1.0000
  H   H68       1.0  0.006907400951455063  0.3263454238227723  0.8212420533180094  1.0000
  H   H69       1.0  0.6736547519896232  0.6805618499491713  0.8212426574043618  1.0000
  H   H70       1.0  0.9930919288737953  0.3194379308399745  0.6787567335451143  1.0000
  H   H71       1.0  0.6805626003624424  0.6736552245455415  0.6787574314610368  1.0000
  H   H72       1.0  0.3263451987944137  0.0069074812803436155  0.6787573604910833  1.0000
  H   H73       1.0  0.5642595432609026  0.9081185945612447  0.19779354784601824  1.0000
  H   H74       1.0  0.09188158670025359  0.656141265201896  0.19779294122295  1.0000
  H   H75       1.0  0.3438588268128058  0.4357407610221529  0.19779349463751572  1.0000
  H   H76       1.0  0.9081187512951984  0.5642592635349858  0.302206748674827  1.0000
  H   H77       1.0  0.43574065439340604  0.34385891030338206  0.3022067592569044  1.0000
  H   H78       1.0  0.6561400860936712  0.09188131165747387  0.3022066984919504  1.0000
  H   H79       1.0  0.435740620209451  0.0918811571399374  0.802206925535309  1.0000
  H   H80       1.0  0.9081188396202362  0.34385946746807855  0.8022069199218578  1.0000
  H   H81       1.0  0.6561409775982835  0.5642593497384353  0.8022069787439039  1.0000
  H   H82       1.0  0.09188105311590511  0.4357408472255101  0.697793112469931  1.0000
  H   H83       1.0  0.5642595090769547  0.6561408413977077  0.6977931018877683  1.0000
  H   H84       1.0  0.3438590964080318  0.9081181771935505  0.6977931626527721  1.0000
  H   H85       1.0  0.610901310117896  0.1057099214092219  0.1438835308113156  1.0000
  H   H86       1.0  0.8942904307729761  0.5051923065562604  0.14388356651485884  1.0000
  H   H87       1.0  0.4948083839856847  0.3890978078776257  0.14388358652438174  1.0000
  H   H88       1.0  0.10570994409917486  0.6109015146042934  0.3561167192074494  1.0000
  H   H89       1.0  0.38909809942091306  0.49480816131205785  0.3561166737879163  1.0000
  H   H90       1.0  0.5051919982781142  0.8942896764029553  0.356116725520721  1.0000
  H   H91       1.0  0.3890984942932005  0.8942901893512738  0.8561163303334498  1.0000
  H   H92       1.0  0.10571035460677793  0.49480806705430075  0.8561162946298495  1.0000
  H   H93       1.0  0.5051917794846831  0.6109019438234642  0.8561162746202912  1.0000
  H   H94       1.0  0.8942898603119145  0.3890985961562946  0.6438837541739703  1.0000
  H   H95       1.0  0.6109020640494334  0.5051915903891241  0.6438837995934109  1.0000
  H   H96       1.0  0.49480816519223936  0.10571007529822646  0.643883747860606  1.0000
  C   C1        1.0  0.5032088441368713  0.13654683546254628  0.051861315737326705  1.0000
  C   C2        1.0  0.8634525978076582  0.36666177925445725  0.051861317427956494  1.0000
  C   C3        1.0  0.6333380675236313  0.49679075762249164  0.0518613599515092  1.0000
  C   C4        1.0  0.13654720653883604  0.5032086687356029  0.4481383173157809  1.0000
  C   C5        1.0  0.4967906916470709  0.6333382379842121  0.4481383032742557  1.0000
  C   C6        1.0  0.3666611561426832  0.863452224343284  0.448138351949865  1.0000
  C   C7        1.0  0.49679131933349624  0.8634529162385364  0.9481385454073461  1.0000
  C   C8        1.0  0.13654720660343847  0.6333383315060388  0.9481385437168086  1.0000
  C   C9        1.0  0.3666617368874723  0.5032093531380041  0.9481385011932559  1.0000
  C   C10       1.0  0.8634529569315246  0.49679108296548685  0.551861543828892  1.0000
  C   C11       1.0  0.5032091127640399  0.3666618727761984  0.5518609456338553  1.0000
  C   C12       1.0  0.6333380263590414  0.13654726450764806  0.5518608969582106  1.0000
  C   C13       1.0  0.46053451753213165  0.1738890467317232  0.9981049104059424  1.0000
  C   C14       1.0  0.8261106556163327  0.2866457918907345  0.9981048931199369  1.0000
  C   C15       1.0  0.7133539104121881  0.539465320479387  0.9981049437035736  1.0000
  C   C16       1.0  0.17388889941300784  0.4605347153656325  0.5018951341707876  1.0000
  C   C17       1.0  0.5394651099635008  0.7133541267595117  0.5018951389229187  1.0000
  C   C18       1.0  0.2866456630637727  0.8261109351455572  0.5018951808885249  1.0000
  C   C19       1.0  0.5394652868789719  0.8261110640287724  0.0018949507388228  1.0000
  C   C20       1.0  0.17388914879477116  0.7133543188697614  0.0018949680248213  1.0000
  C   C21       1.0  0.2866465159082877  0.4605354121906728  0.0018955296778813005  1.0000
  C   C22       1.0  0.8261109049980887  0.5394653953948633  0.49810472697397057  1.0000
  C   C23       1.0  0.4605353163569886  0.28664660591045527  0.4981047222218819  1.0000
  C   C24       1.0  0.7133541413473237  0.17388917561493863  0.4981046802562403  1.0000
  C   C25       1.0  0.3671613823038911  0.11700637915058816  0.970646096480813  1.0000
  C   C26       1.0  0.8829920351836406  0.25015306916928626  0.9706448435331154  1.0000
  C   C27       1.0  0.7498461232814434  0.632838999282498  0.970644916504142  1.0000
  C   C28       1.0  0.11700731519687216  0.3671604892926936  0.5293551633237429  1.0000
  C   C29       1.0  0.6328378876474404  0.7498447375502267  0.5293539496394998  1.0000
  C   C30       1.0  0.2501533200464362  0.8829919789922299  0.5293546194931125  1.0000
  C   C31       1.0  0.6328394992849837  0.8829926544318667  0.0293549891369835  1.0000
  C   C32       1.0  0.11700776922746306  0.7498470415912096  0.029355017611649704  1.0000
  C   C33       1.0  0.25015332207038904  0.36716147053741116  0.029354944640708407  1.0000
  C   C34       1.0  0.8829935663919952  0.6328385442897613  0.4706459222940538  1.0000
  C   C35       1.0  0.36716103200416944  0.2501537703317283  0.4706446870317933  1.0000
  C   C36       1.0  0.7498448814866022  0.11700724700882147  0.470645853888314  1.0000
  C   C37       1.0  0.31163454144783737  0.019589515493699125  0.9934898604984637  1.0000
  C   C38       1.0  0.9804109328190049  0.2920456077904631  0.9934898392891826  1.0000
  C   C39       1.0  0.7079545905884997  0.6883652965817504  0.9934899277534514  1.0000
  C   C40       1.0  0.019589389862964806  0.3116347209064116  0.506510165422462  1.0000
  C   C41       1.0  0.6883650465989674  0.7079547864301148  0.5065095514659531  1.0000
  C   C42       1.0  0.29204523565234536  0.9804102720200022  0.5065096323088129  1.0000
  C   C43       1.0  0.6883658848726525  0.9804112171762754  0.0065100006463368  1.0000
  C   C44       1.0  0.019589493501484753  0.7079551248795042  0.006510021855618201  1.0000
  C   C45       1.0  0.292045572881868  0.3116344551193393  0.0065099333912215  1.0000
  C   C46       1.0  0.9804104145481318  0.6883653898540844  0.4934896957223032  1.0000
  C   C47       1.0  0.31163475781214345  0.2920453243302888  0.4934896974421577  1.0000
  C   C48       1.0  0.7079549278180225  0.019589479681087655  0.49349022883586013  1.0000
  C   C49       1.0  0.3517572367470192  0.9803007564686084  0.04392259031956771  1.0000
  C   C50       1.0  0.01969872390460368  0.3714562642728365  0.043922526337240704  1.0000
  C   C51       1.0  0.6285437441425542  0.6482425495252356  0.0439225115516209  1.0000
  C   C52       1.0  0.9803008856254319  0.35175691090282146  0.45607708533074753  1.0000
  C   C53       1.0  0.6482424439111227  0.6285438943428545  0.45607716069793725  1.0000
  C   C54       1.0  0.3714561513754049  0.01969874979980803  0.4560777036562557  1.0000
  C   C55       1.0  0.6482429267233484  0.019698995232481333  0.956077270825098  1.0000
  C   C56       1.0  0.9803010805064928  0.6285438464876592  0.9560773348075173  1.0000
  C   C57       1.0  0.37145606026854233  0.35175756123526  0.9560773495931372  1.0000
  C   C58       1.0  0.0196992778449353  0.6482428407982679  0.5439227758139252  1.0000
  C   C59       1.0  0.3517579824093671  0.37145683832711285  0.5439227004468634  1.0000
  C   C60       1.0  0.6285436530356847  0.9803013609607802  0.543922769725164  1.0000
  C   C61       1.0  0.4467366039088816  0.03650561061148487  0.073993660440955  1.0000
  C   C62       1.0  0.9634946763393372  0.41023101851806143  0.07399366973152151  1.0000
  C   C63       1.0  0.5897688495657786  0.5532633751232721  0.0739937280454726  1.0000
  C   C64       1.0  0.0365059978474847  0.44673642398659297  0.4260059629819112  1.0000
  C   C65       1.0  0.5532632856596111  0.5897689982430878  0.4260059359742314  1.0000
  C   C66       1.0  0.4102307533537157  0.9634939616796316  0.426006008482581  1.0000
  C   C67       1.0  0.5532635595614862  0.9634941410896046  0.9260062007037176  1.0000
  C   C68       1.0  0.03650610904042399  0.5897693550924998  0.9260061914131938  1.0000
  C   C69       1.0  0.41023095484532485  0.44673673563722355  0.9260061330992927  1.0000
  C   C70       1.0  0.9634944284730123  0.5532643086833743  0.5739938981628895  1.0000
  C   C71       1.0  0.446736877810757  0.4102307534580021  0.5739939251704412  1.0000
  C   C72       1.0  0.5897694101166449  0.03650579002145086  0.5739938526620919  1.0000
  C   C73       1.0  0.4831439972954781  0.9902429006685124  0.1246159824983408  1.0000
  C   C74       1.0  0.009756927930226388  0.4929014825239691  0.12461533736519209  1.0000
  C   C75       1.0  0.5070984148085669  0.5168555826070074  0.12461590571810892  1.0000
  C   C76       1.0  0.9902426752343556  0.4831440536534187  0.3753843140846627  1.0000
  C   C77       1.0  0.5168554854089605  0.5070985400173313  0.3753843632113885  1.0000
  C   C78       1.0  0.49290132596924957  0.00975692490151675  0.3753848994890845  1.0000
  C   C79       1.0  0.5168558071156112  0.009757210092075728  0.8753844908830787  1.0000
  C   C80       1.0  0.99024287648087  0.5070986282365266  0.875384523779573  1.0000
  C   C81       1.0  0.49290201151191576  0.4831451500630592  0.8753845676633463  1.0000
  C   C82       1.0  0.009757488236004912  0.5168556980476637  0.6246155470600102  1.0000
  C   C83       1.0  0.48314431900213606  0.4929015707431644  0.6246154979333766  1.0000
  C   C84       1.0  0.5070984784418398  0.9902431858590716  0.624615573892335  1.0000
  C   C85       1.0  0.6097579851599946  0.9859647015276138  0.2046659121738088  1.0000
  C   C86       1.0  0.01403549081619081  0.623793726253524  0.204665300030598  1.0000
  C   C87       1.0  0.3762068393715338  0.3902418370510646  0.20466584081761144  1.0000
  C   C88       1.0  0.9859648428295953  0.609757706300094  0.2953343919364073  1.0000
  C   C89       1.0  0.3902417458421752  0.37620693654429266  0.2953344122676286  1.0000
  C   C90       1.0  0.623792544536748  0.01403519860455297  0.2953343329041047  1.0000
  C   C91       1.0  0.3902428002197453  0.014035672083039678  0.7953345612075539  1.0000
  C   C92       1.0  0.985964935504299  0.3762070064164505  0.7953345611142026  1.0000
  C   C93       1.0  0.6237929650395485  0.6097582737095237  0.795334632563801  1.0000
  C   C94       1.0  0.014034961581508267  0.3902424044604018  0.7046654692083578  1.0000
  C   C95       1.0  0.6097580585689215  0.6237931742162034  0.7046654488771297  1.0000
  C   C96       1.0  0.376206637964955  0.9859642902464713  0.7046655282406179  1.0000
  N   N1        1.0  0.5692262833564711  0.033401382981487725  0.15712987566795533  1.0000
  N   N2        1.0  0.9665991628964716  0.5358257485962381  0.15712930441087988  1.0000
  N   N3        1.0  0.4641743186285651  0.4307732693120627  0.1571299482579249  1.0000
  N   N4        1.0  0.03340141758787493  0.5692264846981062  0.34286975510076456  1.0000
  N   N5        1.0  0.43077318505532936  0.46417443973253103  0.34287031273383667  1.0000
  N   N6        1.0  0.5358250810315467  0.9665987809606236  0.3428703817221503  1.0000
  N   N7        1.0  0.4307735210546325  0.966598727779008  0.8428699854768099  1.0000
  N   N8        1.0  0.033401622483296485  0.46417462501423057  0.8428699444971812  1.0000
  N   N9        1.0  0.5358254857825243  0.5692268414485255  0.8428705251234945  1.0000
  N   N10       1.0  0.9665983868232431  0.4307736260622975  0.6571294938073394  1.0000
  N   N11       1.0  0.5692269784150381  0.5358253119685585  0.6571295484108363  1.0000
  N   N12       1.0  0.46417472337954996  0.033401329799872266  0.6571294794226078  1.0000
  N   N13       1.0  0.7908034906600179  0.2751541827825221  0.25878015633780654  1.0000
  N   N14       1.0  0.7248462755826354  0.5156490970151921  0.2587802004981227  1.0000
  N   N15       1.0  0.48435133148560544  0.20919707082873626  0.2587795630858666  1.0000
  N   N16       1.0  0.27515390700878567  0.7908027247244577  0.2412201151760485  1.0000
  N   N17       1.0  0.20919703485737523  0.4843514742631924  0.24122007327719075  1.0000
  N   N18       1.0  0.5156490118398764  0.7248464414265855  0.2412200817551167  1.0000
  N   N19       1.0  0.20919703186961403  0.7248452098591543  0.7412197048067809  1.0000
  N   N20       1.0  0.2751538878877182  0.48435065468598987  0.7412202728831973  1.0000
  N   N21       1.0  0.5156484729254982  0.7908030399317594  0.7412202980588987  1.0000
  N   N22       1.0  0.7248455383430324  0.209197745095544  0.7587803582054633  1.0000
  N   N23       1.0  0.7908027695537214  0.5156486364973104  0.7587797878675745  1.0000
  N   N24       1.0  0.4843507925712202  0.27515366933391044  0.7587797793896414  1.0000
  O   O1        1.0  0.5902630401164329  0.190295419692717  0.08045705324082061  1.0000
  O   O2        1.0  0.8097048195636487  0.39996865915251323  0.08045706520599791  1.0000
  O   O3        1.0  0.6000319106180356  0.409736287388462  0.08045708683270189  1.0000
  O   O4        1.0  0.19029542537147384  0.5902632360411246  0.4195425884759487  1.0000
  O   O5        1.0  0.40973623637955797  0.6000320801414246  0.4195425689872962  1.0000
  O   O6        1.0  0.39996775365699455  0.8097034428958378  0.4195426029139639  1.0000
  O   O7        1.0  0.40973614238527734  0.8097040691583076  0.9195428079039021  1.0000
  O   O8        1.0  0.19029560675684803  0.600032073517461  0.9195427959388027  1.0000
  O   O9        1.0  0.39996789379306097  0.590263823372041  0.9195427743120633  1.0000
  O   O10       1.0  0.8097037571302295  0.40973625280989984  0.5804572726687808  1.0000
  O   O11       1.0  0.5902645490001959  0.39996829346913637  0.5804572921574194  1.0000
  O   O12       1.0  0.600032409813373  0.19029630880525158  0.5804572582307089  1.0000
  O   O13       1.0  0.789033808060168  0.3529075338014919  0.27458138453854997  1.0000
  O   O14       1.0  0.6470936642357258  0.4361270336149374  0.2745814112327025  1.0000
  O   O15       1.0  0.5638738871661815  0.21096677132116068  0.2745813837786102  1.0000
  O   O16       1.0  0.35290687618316946  0.7890333884384902  0.22541766717734651  1.0000
  O   O17       1.0  0.2109671024356246  0.5638736896522758  0.2254176453495944  1.0000
  O   O18       1.0  0.4361269571722842  0.647093818030811  0.225417636870155  1.0000
  O   O19       1.0  0.2109669773196074  0.6470928398089768  0.7254178643695114  1.0000
  O   O20       1.0  0.35290676208478533  0.5638736990549448  0.7254178376754439  1.0000
  O   O21       1.0  0.4361262763042005  0.7890329803798365  0.7254178651294083  1.0000
  O   O22       1.0  0.6470929282279343  0.21096672232200578  0.7745821939674186  1.0000
  O   O23       1.0  0.7890330610347576  0.43612606204872156  0.7745816035584241  1.0000
  O   O24       1.0  0.5638734691482269  0.3529069146390711  0.7745816120379914  1.0000
  O   O25       1.0  0.7417737770621001  0.22639733699224238  0.1966246638001365  1.0000
  O   O26       1.0  0.7736043203601852  0.5153775816234826  0.1966247062198363  1.0000
  O   O27       1.0  0.48462326754712853  0.2582263848852762  0.19662408121050132  1.0000
  O   O28       1.0  0.22639645361660138  0.7417723906036355  0.30337560169689237  1.0000
  O   O29       1.0  0.25822572198763527  0.4846227899127129  0.30337555818601203  1.0000
  O   O30       1.0  0.5153768889512519  0.7736038851138501  0.3033755790167377  1.0000
  O   O31       1.0  0.2582270083176396  0.7736030366184111  0.8033758095812331  1.0000
  O   O32       1.0  0.2263961059602905  0.48462315104658416  0.8033757671616186  1.0000
  O   O33       1.0  0.5153765368639751  0.7417737258752197  0.8033757799342639  1.0000
  O   O34       1.0  0.773603087944359  0.2582267391880678  0.6966248716843992  1.0000
  O   O35       1.0  0.7417734605140678  0.5153766989383043  0.6966243029587176  1.0000
  O   O36       1.0  0.4846225564005805  0.22639658470605178  0.6966242821281129  1.0000
  O   O37       1.0  0.836870090308807  0.2488530998086561  0.30147753201936206  1.0000
  O   O38       1.0  0.75114646987609  0.5880173363938609  0.3014775935987045  1.0000
  O   O39       1.0  0.4119825725896362  0.1631294080231527  0.3014775592417962  1.0000
  O   O40       1.0  0.24885309449053458  0.8368703155593165  0.1985227407107857  1.0000
  O   O41       1.0  0.16312936923751664  0.41198269690348616  0.1985220698338921  1.0000
  O   O42       1.0  0.5880182111129311  0.7511468905332632  0.1985226947255327  1.0000
  O   O43       1.0  0.1631300731615609  0.7511466518924338  0.6985223291253106  1.0000
  O   O44       1.0  0.24885333453499914  0.41198277436672737  0.6985228797827078  1.0000
  O   O45       1.0  0.5880172318214676  0.8368707027373433  0.698522301902969  1.0000
  O   O46       1.0  0.7511467099205331  0.16312979520137103  0.801478344907281  1.0000
  O   O47       1.0  0.8368704351736014  0.5880174138569174  0.8014771790742187  1.0000
  O   O48       1.0  0.4119825742668297  0.24885348307729777  0.8014771664191757  1.0000
