data_image0
_chemical_formula_structural       Zn8H42C78N6O26
_chemical_formula_sum              "Zn8 H42 C78 N6 O26"
_cell_length_a       18.10905596863873
_cell_length_b       17.96561438145676
_cell_length_c       18.20938862644218
_cell_angle_alpha    119.77162429012057
_cell_angle_beta     90.06751378879142
_cell_angle_gamma    118.90208600025854

_space_group_name_H-M_alt    "P 1"
_space_group_IT_number       1

loop_
  _space_group_symop_operation_xyz
  'x, y, z'

loop_
  _atom_site_type_symbol
  _atom_site_label
  _atom_site_symmetry_multiplicity
  _atom_site_fract_x
  _atom_site_fract_y
  _atom_site_fract_z
  _atom_site_occupancy
  Zn  Zn1       1.0  0.15174221277905534  0.10026487531651182  0.0620710694026414  1.0000
  Zn  Zn2       1.0  0.9693624798072166  0.9266369790896857  0.056912913538312085  1.0000
  Zn  Zn3       1.0  0.9792575759776626  0.9257616727366906  0.8839482537784488  1.0000
  Zn  Zn4       1.0  0.9830752081680811  0.11237565582454319  0.05568451441155989  1.0000
  Zn  Zn5       1.0  0.3916060722069759  0.9270374964872586  0.47403529698729574  1.0000
  Zn  Zn6       1.0  0.5602159740538111  0.10878727336313429  0.4748110685154217  1.0000
  Zn  Zn7       1.0  0.5652084874352284  0.9263603616096033  0.4636430349110227  1.0000
  Zn  Zn8       1.0  0.5644779429295356  0.09950563371690181  0.6456052957892098  1.0000
  H   H1        1.0  0.2618449336348334  0.14979937823095918  0.3124207546759549  1.0000
  H   H2        1.0  0.26195786311852504  0.840841305057289  0.20954748175809362  1.0000
  H   H3        1.0  0.2694131631339473  0.8186131825585148  0.04900606116598973  1.0000
  H   H4        1.0  0.1887561186604075  0.6651712633775376  0.8919037819303596  1.0000
  H   H5        1.0  0.023343958692912288  0.5665246936915975  0.8330218732244248  1.0000
  H   H6        1.0  0.9398082935579666  0.6192804035256003  0.9333322230541794  1.0000
  H   H7        1.0  0.020788138901899424  0.773337050905873  0.08939751198386849  1.0000
  H   H8        1.0  0.29609165382773023  0.0036304040782937  0.8812318481384763  1.0000
  H   H9        1.0  0.25706029226253685  0.058173541739059  0.649564619014015  1.0000
  H   H10       1.0  0.2080793522690527  0.2083729167870415  0.8989897851155745  1.0000
  H   H11       1.0  0.1282573184138869  0.2872000062561639  0.8961540509270804  1.0000
  H   H12       1.0  0.03300903761432042  0.22038037332541896  0.7509930091998668  1.0000
  H   H13       1.0  0.014399231597067812  0.0711732490897958  0.6104945747098255  1.0000
  H   H14       1.0  0.09477191730074705  0.9923712692300054  0.6131781139106706  1.0000
  H   H15       1.0  0.2595048094386172  0.4285311865492218  0.11622559742720988  1.0000
  H   H16       1.0  0.29860034444953243  0.6194167558817654  0.43588183970064154  1.0000
  H   H17       1.0  0.32496430499705303  0.5070609164963926  0.4622236285176412  1.0000
  H   H18       1.0  0.26646094451622565  0.42551943356649957  0.5439485652500835  1.0000
  H   H19       1.0  0.10566412775619233  0.2859055367663288  0.48989881222377807  1.0000
  H   H20       1.0  0.0038436945631659084  0.22969128489210525  0.3539542872280278  1.0000
  H   H21       1.0  0.06240240598267382  0.3109855467510343  0.2730623321121044  1.0000
  H   H22       1.0  0.9075146511258724  0.6017343065439461  0.7459858864730292  1.0000
  H   H23       1.0  0.6219170238231371  0.4161879126625506  0.7838328703590134  1.0000
  H   H24       1.0  0.7216091947439766  0.7152748605458825  0.8325129553246029  1.0000
  H   H25       1.0  0.6331211502317017  0.7832347022480661  0.9051761423319249  1.0000
  H   H26       1.0  0.5490503403523591  0.7245188624426504  0.9947847081094991  1.0000
  H   H27       1.0  0.5591433746008221  0.6025519030070539  0.015080157192059506  1.0000
  H   H28       1.0  0.6472127120622345  0.5330572716835249  0.9411336889013737  1.0000
  H   H29       1.0  0.8326179833045017  0.16786157554762582  0.4154511429274663  1.0000
  H   H30       1.0  0.7035106522935733  0.8890851226762844  0.0964257327568773  1.0000
  H   H31       1.0  0.561896214998896  0.925637663885574  0.10406293144610851  1.0000
  H   H32       1.0  0.3980084693397999  0.7998858104998945  0.036341526630273756  1.0000
  H   H33       1.0  0.3190474124055244  0.6718631953823575  0.07448055972911766  1.0000
  H   H34       1.0  0.40506607967614633  0.6696112124504339  0.1796751277694212  1.0000
  H   H35       1.0  0.568595259370092  0.7948063646161357  0.24626673477045802  1.0000
  H   H36       1.0  0.6131210196784452  0.8655381317031825  0.690136688054771  1.0000
  H   H37       1.0  0.9308779585853841  0.1431148529859527  0.8260743273960145  1.0000
  H   H38       1.0  0.9106194242031689  0.2896200805105522  0.8340673266000634  1.0000
  H   H39       1.0  0.9784512866618158  0.40143835673603684  0.7791337116817302  1.0000
  H   H40       1.0  0.955319234491519  0.3229743702287281  0.6164054309928274  1.0000
  H   H41       1.0  0.8640211069663551  0.13072796268678386  0.5091092543513793  1.0000
  H   H42       1.0  0.7951957787995666  0.0197132410189766  0.5638253799405959  1.0000
  C   C1        1.0  0.14742243022152493  0.9977618457584043  0.14911783199001147  1.0000
  C   C2        1.0  0.20212377054143374  0.9902444321853209  0.203460983430105  1.0000
  C   C3        1.0  0.2604744316523409  0.07980521321210432  0.28809262504310595  1.0000
  C   C4        1.0  0.31478230230100485  0.00044001817860820074  0.3126422561435049  1.0000
  C   C5        1.0  0.25968573093355457  0.9076010728517473  0.22947970516658953  1.0000
  C   C6        1.0  0.20227327649473642  0.9011304382520746  0.17160324870069113  1.0000
  C   C7        1.0  0.1506113666041884  0.8067953430464383  0.07940573135658709  1.0000
  C   C8        1.0  0.19702873696037654  0.7742767043223675  0.023330464684988634  1.0000
  C   C9        1.0  0.1516560796457257  0.6883235934396836  0.9351435432322999  1.0000
  C   C10       1.0  0.059064250130610736  0.6328872682773365  0.9022825344959243  1.0000
  C   C11       1.0  0.012166496278694991  0.6630481179098023  0.9582358489833422  1.0000
  C   C12       1.0  0.057498342995046435  0.7496544023445607  0.04619688303628776  1.0000
  C   C13       1.0  0.37685160671826873  0.007505175917131599  0.37442369488476857  1.0000
  C   C14       1.0  0.16337278149521947  0.030345019951873595  0.8804294940008858  1.0000
  C   C15       1.0  0.22208863004168222  0.03686813565371239  0.8232199755593683  1.0000
  C   C16       1.0  0.28679415003215064  0.017018544082063193  0.8306315769789734  1.0000
  C   C17       1.0  0.32481380663323733  0.024820184137062995  0.7141841627669051  1.0000
  C   C18       1.0  0.26262384443366926  0.04550881490175128  0.7013887041509219  1.0000
  C   C19       1.0  0.21163329712683776  0.056026432446692795  0.7589476296347113  1.0000
  C   C20       1.0  0.15685290294221227  0.09503965828547217  0.7562222244180317  1.0000
  C   C21       1.0  0.1645028030251652  0.17721841996743848  0.8357907719446159  1.0000
  C   C22       1.0  0.12019605636952953  0.22204389170203598  0.8340309914708895  1.0000
  C   C23       1.0  0.06690061977500511  0.1847400019560723  0.7528492570948301  1.0000
  C   C24       1.0  0.057190361264027004  0.10141481981887779  0.6736599477335047  1.0000
  C   C25       1.0  0.10233219395628622  0.0572785629752417  0.6751199334205964  1.0000
  C   C26       1.0  0.3830700824712849  0.019679437221675797  0.6553509840885923  1.0000
  C   C27       1.0  0.16562782857197794  0.2970101335771886  0.16040123840232914  1.0000
  C   C28       1.0  0.22333007839319663  0.41253924054129226  0.22313773324516709  1.0000
  C   C29       1.0  0.26785176452615644  0.469041889486533  0.187620338484109  1.0000
  C   C30       1.0  0.33140293944390464  0.6226623571062007  0.3232792901654448  1.0000
  C   C31       1.0  0.2896559765579382  0.5736835069814673  0.3649302124160484  1.0000
  C   C32       1.0  0.23595658763444052  0.46560232909871496  0.3154401347753718  1.0000
  C   C33       1.0  0.1981341586889657  0.41406112260838773  0.36145728803499105  1.0000
  C   C34       1.0  0.25452159657228185  0.44655089388188424  0.43898463394017984  1.0000
  C   C35       1.0  0.2216149135981809  0.4003434274394805  0.4846004993021537  1.0000
  C   C36       1.0  0.13157873153161154  0.3217963460029196  0.4539777037759548  1.0000
  C   C37       1.0  0.07467972270693927  0.28968066230935097  0.37766548063184036  1.0000
  C   C38       1.0  0.10778785274145966  0.33522522521550957  0.33142356764138714  1.0000
  C   C39       1.0  0.38928868960949353  0.738773342897339  0.37783173534791104  1.0000
  C   C40       1.0  0.879797436200519  0.7354016842670674  0.8756556385526933  1.0000
  C   C41       1.0  0.8167130464731754  0.6205667920654179  0.8183615699393838  1.0000
  C   C42       1.0  0.8435668626386884  0.5618654046619794  0.754845050318721  1.0000
  C   C43       1.0  0.7189168968947611  0.4099288923360972  0.7169137474032111  1.0000
  C   C44       1.0  0.6864298018159474  0.4607914579836175  0.7785862671106754  1.0000
  C   C45       1.0  0.7336684103315392  0.56871115874371  0.8289113868657692  1.0000
  C   C46       1.0  0.6905364422333236  0.6193320748520177  0.8818578817928961  1.0000
  C   C47       1.0  0.6873150985099558  0.6915166130407043  0.8736525282253991  1.0000
  C   C48       1.0  0.636737190577982  0.7291983041682498  0.9140996298960928  1.0000
  C   C49       1.0  0.5896164753875653  0.6963289913201294  0.964101423004024  1.0000
  C   C50       1.0  0.5946304945603346  0.6269078391104941  0.9748057241005836  1.0000
  C   C51       1.0  0.6440700560604499  0.5879942452508258  0.9333807181815669  1.0000
  C   C52       1.0  0.6616674968400459  0.2935870368057181  0.6574285938980322  1.0000
  C   C53       1.0  0.6578937119830498  0.02450637960508569  0.37401429790684654  1.0000
  C   C54       1.0  0.71238586595382  0.0242591391377047  0.3121699251302771  1.0000
  C   C55       1.0  0.8023402378146258  0.10379823549605757  0.34497508146205996  1.0000
  C   C56       1.0  0.8190960070746625  0.0303741581992014  0.20743947414339906  1.0000
  C   C57       1.0  0.7293290315099981  0.9497539400984181  0.16751026607436598  1.0000
  C   C58       1.0  0.6732020723387961  0.9467589782435437  0.22010569561264484  1.0000
  C   C59       1.0  0.5759812803549879  0.8683786672457713  0.17942138081416198  1.0000
  C   C60       1.0  0.5272309317021282  0.8686032924055169  0.11957144794020272  1.0000
  C   C61       1.0  0.4352139264515317  0.7982861457122111  0.08211712301657305  1.0000
  C   C62       1.0  0.39109692630639614  0.7265200146619648  0.10345984390248467  1.0000
  C   C63       1.0  0.4391722989004662  0.7249929191725141  0.16220059958102664  1.0000
  C   C64       1.0  0.5312661488340211  0.795939328176722  0.20027084847500026  1.0000
  C   C65       1.0  0.880695514263948  0.0302656471180285  0.15192409309377547  1.0000
  C   C66       1.0  0.6554190627996379  0.9978981041882165  0.639924754441651  1.0000
  C   C67       1.0  0.71690248996957  0.9988707202853389  0.6960041796084083  1.0000
  C   C68       1.0  0.6838711267823994  0.9271301916649575  0.7182135792494007  1.0000
  C   C69       1.0  0.8205034247684396  0.007239981709552999  0.8115803433249837  1.0000
  C   C70       1.0  0.859882843201987  0.08342919873011573  0.7947486442943017  1.0000
  C   C71       1.0  0.8082150867596171  0.07776060283108421  0.7327848143373714  1.0000
  C   C72       1.0  0.8481695688317784  0.14717596955928508  0.7026434011962123  1.0000
  C   C73       1.0  0.9008189558050005  0.2550282024009292  0.7628913995573043  1.0000
  C   C74       1.0  0.9387031412231864  0.31772165031388505  0.731774606724464  1.0000
  C   C75       1.0  0.9256663993927887  0.27376620233824406  0.6405424802557248  1.0000
  C   C76       1.0  0.8741068058760247  0.16641138055056365  0.5803713662737592  1.0000
  C   C77       1.0  0.8350909975547864  0.10349859515399369  0.6110256764380821  1.0000
  C   C78       1.0  0.8780421252724865  0.0092368703431589  0.873151634851119  1.0000
  N   N1        1.0  0.31656655622354174  0.0863704195910415  0.34201914072785655  1.0000
  N   N2        1.0  0.33880715370708  0.0127957042265905  0.7788823742501947  1.0000
  N   N3        1.0  0.3227312752847027  0.5719206555532707  0.23604572781093933  1.0000
  N   N4        1.0  0.7958717042136314  0.4587179515087029  0.7034146648655903  1.0000
  N   N5        1.0  0.8553707360040405  0.10821329038323307  0.2940764606319134  1.0000
  N   N6        1.0  0.7344851175270789  0.9287899984184447  0.7733855125872323  1.0000
  O   O1        1.0  0.021589411311822505  0.0170794898223008  0.015221328830946798  1.0000
  O   O2        1.0  0.06348816185427354  0.9463228492802711  0.1331514687607649  1.0000
  O   O3        1.0  0.1918391904530097  0.0587576375368926  0.1263407997725139  1.0000
  O   O4        1.0  0.455006009972351  0.08912732938173211  0.416175324729778  1.0000
  O   O5        1.0  0.34424168758377527  0.9291942742728382  0.378494438460379  1.0000
  O   O6        1.0  0.07986906931385115  0.9717013986410091  0.8400481241081648  1.0000
  O   O7        1.0  0.20224322845010081  0.0808864794334241  0.9635931302040175  1.0000
  O   O8        1.0  0.46432888888028145  0.06151272499739239  0.692562837315684  1.0000
  O   O9        1.0  0.3447451484081372  0.9744276925404948  0.5729447383096513  1.0000
  O   O10       1.0  0.08505816285006057  0.2579953746866152  0.12278084276707797  1.0000
  O   O11       1.0  0.20297155119466484  0.2491294917037905  0.14799336153035367  1.0000
  O   O12       1.0  0.46738574237947733  0.781276841098574  0.37272640479336866  1.0000
  O   O13       1.0  0.35421715249425734  0.7841954814028467  0.4259534697007295  1.0000
  O   O14       1.0  0.8905336713788828  0.7797929295600808  0.9590129588414767  1.0000
  O   O15       1.0  0.9197370217467764  0.7786793797779338  0.8368232813655961  1.0000
  O   O16       1.0  0.6490779558715047  0.252153473425885  0.5743416872774105  1.0000
  O   O17       1.0  0.6288747665293569  0.24824126337583852  0.6964828428455404  1.0000
  O   O18       1.0  0.6532611675325555  0.9752411244499086  0.4076027709862301  1.0000
  O   O19       1.0  0.6222145447182471  0.0739788723647337  0.3871505081519544  1.0000
  O   O20       1.0  0.9147797804576997  0.10107931013745029  0.13824097318865816  1.0000
  O   O21       1.0  0.8911189288300606  0.9565534516830494  0.12321102747151244  1.0000
  O   O22       1.0  0.6197008215835924  0.9252344245336559  0.5570050153231916  1.0000
  O   O23       1.0  0.644856575078215  0.07164038923224329  0.6825359709046308  1.0000
  O   O24       1.0  0.9157235469045091  0.08905413185023288  0.9533564452929678  1.0000
  O   O25       1.0  0.8851322709798239  0.932752246813173  0.839143317783893  1.0000
  O   O26       1.0  0.5219986903033912  0.0164968893652642  0.5149010522213047  1.0000
