data_image0
_chemical_formula_structural       Zn2H18C22S4N4O8
_chemical_formula_sum              "Zn2 H18 C22 S4 N4 O8"
_cell_length_a       10.930842808897777
_cell_length_b       11.433691572245339
_cell_length_c       12.725141984829373
_cell_angle_alpha    89.80364517738344
_cell_angle_beta     87.20270526831901
_cell_angle_gamma    89.38753511017647

_space_group_name_H-M_alt    "P 1"
_space_group_IT_number       1

loop_
  _space_group_symop_operation_xyz
  'x, y, z'

loop_
  _atom_site_type_symbol
  _atom_site_label
  _atom_site_symmetry_multiplicity
  _atom_site_fract_x
  _atom_site_fract_y
  _atom_site_fract_z
  _atom_site_occupancy
  Zn  Zn1       1.0  0.504063981867077  0.6231726513808197  0.5006232030497486  1.0000
  Zn  Zn2       1.0  0.5027255402587941  0.3809652731784895  0.5009451962374527  1.0000
  H   H1        1.0  0.6494704629847592  0.1683662778272605  0.5875251635355241  1.0000
  H   H2        1.0  0.4935451098127929  0.3109942676888195  0.8598075463722735  1.0000
  H   H3        1.0  0.8884992036782652  0.47726582086406205  0.663284044792043  1.0000
  H   H4        1.0  0.8892999037188292  0.6248698482115456  0.6216639083181404  1.0000
  H   H5        1.0  0.10329776257110272  0.6213717297573992  0.624161556073794  1.0000
  H   H6        1.0  0.1019360097950468  0.47116141404219286  0.6574844490126921  1.0000
  H   H7        1.0  0.09965638876074219  0.6840832603236535  0.4366641246684111  1.0000
  H   H8        1.0  0.11518935394855842  0.5812605935932849  0.3331760882642101  1.0000
  H   H9        1.0  0.887442005969753  0.6742194291736966  0.4261068831473978  1.0000
  H   H10       1.0  0.9029502194390916  0.5605492858906301  0.3327383456084974  1.0000
  H   H11       1.0  0.9033144914925801  0.3162018723979969  0.5275831365540071  1.0000
  H   H12       1.0  0.8991432756614446  0.349309167573253  0.392688947882931  1.0000
  H   H13       1.0  0.11284780688478692  0.3633693469730516  0.37887090587072697  1.0000
  H   H14       1.0  0.1173872514196361  0.3180368315063262  0.5110123902477284  1.0000
  H   H15       1.0  0.26092001342325233  0.8865037865572774  0.38109565561826025  1.0000
  H   H16       1.0  0.30276613247744427  0.7443271945916337  0.4184918854166142  1.0000
  H   H17       1.0  0.5267297142234072  0.7704850366597215  0.09542967699249522  1.0000
  H   H18       1.0  0.5139878386654857  0.7184440378798841  0.2236943269867098  1.0000
  C   C1        1.0  0.4908637226753357  0.4936491890989032  0.7057086980126925  1.0000
  C   C2        1.0  0.7422480798772428  0.5011764231431781  0.49941038271803967  1.0000
  C   C3        1.0  0.5060161830267519  0.4978847210609699  0.2941337724251625  1.0000
  C   C4        1.0  0.26096611362739003  0.5070810052290751  0.49289381259249865  1.0000
  C   C5        1.0  0.41940592746053806  0.8737001272057086  0.4586492820072223  1.0000
  C   C6        1.0  0.5755471935931809  0.1294076120384702  0.5457023549426481  1.0000
  C   C7        1.0  0.5508778364664835  0.0094493371692224  0.5315252086961664  1.0000
  C   C8        1.0  0.44679843353127785  0.9948354229816447  0.47287549319722905  1.0000
  C   C9        1.0  0.4971635717943244  0.5950122928951345  0.11335435757621329  1.0000
  C   C10       1.0  0.4924451809597983  0.4004214310070536  0.8886658869584707  1.0000
  C   C11       1.0  0.4992438805185486  0.4974886578856965  0.18038983906519232  1.0000
  C   C12       1.0  0.49045312547443853  0.4956839638388856  0.8215711517770857  1.0000
  C   C13       1.0  0.4933191494159744  0.4357957705199382  0.9948575989664619  1.0000
  C   C14       1.0  0.4931030560513605  0.5580630437353233  0.00681267384761241  1.0000
  C   C15       1.0  0.9264488532314702  0.5373900147531144  0.6026650523539062  1.0000
  C   C16       1.0  0.06828577674629341  0.5357785955077785  0.601275116278174  1.0000
  C   C17       1.0  0.12162390156751005  0.5052975027617278  0.489542209277765  1.0000
  C   C18       1.0  0.07252512618399722  0.5963492044300622  0.41214822234491777  1.0000
  C   C19       1.0  0.9310585769994831  0.5886885889493599  0.41050242896699973  1.0000
  C   C20       1.0  0.8822074515259857  0.5003961231752568  0.4941440920365636  1.0000
  C   C21       1.0  0.9355800925273672  0.3788224594838852  0.4669432969201281  1.0000
  C   C22       1.0  0.07703708865989971  0.383267142199358  0.45922429576230434  1.0000
  S   S1        1.0  0.610218337333734  0.8752766726670773  0.5644789984321932  1.0000
  S   S2        1.0  0.3885404420873329  0.12877599526198938  0.4397510296256968  1.0000
  S   S3        1.0  0.49508475321105994  0.363968417490149  0.1141891737044247  1.0000
  S   S4        1.0  0.4888900977819618  0.6290147579730601  0.8871344474136365  1.0000
  N   N1        1.0  0.5008323364426346  0.8032815973790832  0.5036174361798587  1.0000
  N   N2        1.0  0.4963723815611943  0.20015886200091865  0.5007302984115043  1.0000
  N   N3        1.0  0.3261127455984011  0.8307138442670308  0.40533237882522133  1.0000
  N   N4        1.0  0.49428516630304414  0.7089435546245396  0.14665046524425657  1.0000
  O   O1        1.0  0.4786677339977317  0.5920587316780654  0.6591946418444223  1.0000
  O   O2        1.0  0.5036839003209793  0.3939285386017843  0.6619173647432035  1.0000
  O   O3        1.0  0.6884704366605164  0.4033943843279105  0.4935896121133325  1.0000
  O   O4        1.0  0.6889283043422482  0.6005007256162428  0.5104699982548624  1.0000
  O   O5        1.0  0.4982465787604796  0.3991269401976396  0.34152811453930104  1.0000
  O   O6        1.0  0.5195874278161341  0.5973846455282299  0.3392795216364632  1.0000
  O   O7        1.0  0.31448708955844046  0.6058879045234774  0.4824715100542036  1.0000
  O   O8        1.0  0.31591166749311134  0.4111134540829227  0.5095689215374293  1.0000
