data_image0
_chemical_formula_structural       Fe8H64C72N56O8
_chemical_formula_sum              "Fe8 H64 C72 N56 O8"
_cell_length_a       16.76095965592316
_cell_length_b       16.761286095232006
_cell_length_c       16.76104876445107
_cell_angle_alpha    110.97961369173626
_cell_angle_beta     108.72096534538593
_cell_angle_gamma    108.72443248447644

_space_group_name_H-M_alt    "P 1"
_space_group_IT_number       1

loop_
  _space_group_symop_operation_xyz
  'x, y, z'

loop_
  _atom_site_type_symbol
  _atom_site_label
  _atom_site_symmetry_multiplicity
  _atom_site_fract_x
  _atom_site_fract_y
  _atom_site_fract_z
  _atom_site_occupancy
  Fe  Fe1       1.0  0.09129162392378004  0.5806085621402205  0.4610236087168786  1.0000
  Fe  Fe2       1.0  0.4086936677242505  0.36973456596779647  0.9892896496910383  1.0000
  Fe  Fe3       1.0  0.11959968775203567  0.48935336086703524  0.08062222884413464  1.0000
  Fe  Fe4       1.0  0.3804230757582157  0.961031372224454  0.8697540915752526  1.0000
  Fe  Fe5       1.0  0.9086995090629272  0.41936639702342393  0.5389675393079401  1.0000
  Fe  Fe6       1.0  0.5913036535716497  0.6302700385705859  0.010677664243942706  1.0000
  Fe  Fe7       1.0  0.880444480114441  0.5106937976711734  0.9194099323234823  1.0000
  Fe  Fe8       1.0  0.6195505376785421  0.03896205576608497  0.1302397939563208  1.0000
  H   H1        1.0  0.28143798589334057  0.5114691011671582  0.28809674163854027  1.0000
  H   H2        1.0  0.19856958550269607  0.5564531523448154  0.635768302739649  1.0000
  H   H3        1.0  0.3348668715293996  0.5220472686884465  0.6920148280269701  1.0000
  H   H4        1.0  0.4205745693870141  0.500115690636818  0.5941579560662403  1.0000
  H   H5        1.0  0.3650570389024637  0.5102019218525059  0.4423548700881454  1.0000
  H   H6        1.0  0.847157243709553  0.5756302227245698  0.11448664728350619  1.0000
  H   H7        1.0  0.922241194028167  0.5741006021203032  0.38487102738809364  1.0000
  H   H8        1.0  0.969437886630345  0.6075739266145347  0.32556039735845116  1.0000
  H   H9        1.0  0.21856582309273156  0.006652267257706497  0.730028377414854  1.0000
  H   H10       1.0  0.30140081356910986  0.43716808039048516  0.8578547470520661  1.0000
  H   H11       1.0  0.165086071847888  0.3570924193858147  0.6871525358224488  1.0000
  H   H12       1.0  0.07940065335789366  0.173523547514236  0.5795195505626225  1.0000
  H   H13       1.0  0.13495665985435318  0.07726582670384374  0.6451425105149583  1.0000
  H   H14       1.0  0.6528516912729642  0.26734305380897183  0.22848817791928158  1.0000
  H   H15       1.0  0.5777391397765611  0.46263831539932454  0.1518488462837765  1.0000
  H   H16       1.0  0.5305557018222941  0.35613344834681726  0.13813673691621625  1.0000
  H   H17       1.0  0.22333621234630377  0.2300325075385956  0.011421784729101585  1.0000
  H   H18       1.0  0.9206929660365758  0.357979218356846  0.05643797033152965  1.0000
  H   H19       1.0  0.8299893670891548  0.18729866305164228  0.022037524708196143  1.0000
  H   H20       1.0  0.9058768543547302  0.07960957369149929  9.677539519260957e-05  1.0000
  H   H21       1.0  0.06775936335796463  0.1451678489510044  0.010179967585898505  1.0000
  H   H22       1.0  0.4611456568371112  0.7284691549690694  0.07561352955108447  1.0000
  H   H23       1.0  0.1892498663281398  0.6518905553866644  0.07410491364390731  1.0000
  H   H24       1.0  0.2820319620134127  0.6381792671158023  0.10758663862465309  1.0000
  H   H25       1.0  0.2766557738342425  0.7880788022669661  0.5066718590472162  1.0000
  H   H26       1.0  0.5793181265255994  0.13576199033992964  0.937263547162573  1.0000
  H   H27       1.0  0.670028265014288  0.19203798901439476  0.8572762881697075  1.0000
  H   H28       1.0  0.5941412306673897  0.09418491735136306  0.6736945482974904  1.0000
  H   H29       1.0  0.43225564144881173  0.9423912640717164  0.5773835957989277  1.0000
  H   H30       1.0  0.03887830155211683  0.6144832832165078  0.7673366942230827  1.0000
  H   H31       1.0  0.3107658242685642  0.8848501393007382  0.9626353909646285  1.0000
  H   H32       1.0  0.2179715120535161  0.8255580515424655  0.8561476887786128  1.0000
  H   H33       1.0  0.7185746472221407  0.488558268808724  0.711933134400553  1.0000
  H   H34       1.0  0.8014382746938721  0.4435378252493436  0.3642375174911264  1.0000
  H   H35       1.0  0.6651554541550054  0.47795302878444096  0.3079882297017064  1.0000
  H   H36       1.0  0.5794494199807826  0.4999009655906832  0.4058496791157751  1.0000
  H   H37       1.0  0.6349598382210004  0.4898054093080547  0.55764715235172  1.0000
  H   H38       1.0  0.1528352964512293  0.4243652546375642  0.8855146549031616  1.0000
  H   H39       1.0  0.07778291935085217  0.42589781213977324  0.6151325307454414  1.0000
  H   H40       1.0  0.030590773662638057  0.392415814327812  0.6744421281832514  1.0000
  H   H41       1.0  0.7814322282604916  0.9933568044201949  0.2699759646926267  1.0000
  H   H42       1.0  0.6985561582352133  0.5628079357396062  0.14211862743617593  1.0000
  H   H43       1.0  0.8348634686604867  0.6428577947793814  0.31281402207868325  1.0000
  H   H44       1.0  0.92057695467885  0.8264268401290878  0.42045371303638746  1.0000
  H   H45       1.0  0.8650518686710881  0.922708905600331  0.35484997705159316  1.0000
  H   H46       1.0  0.3471427531132817  0.7326594947867874  0.7715281903317575  1.0000
  H   H47       1.0  0.42224262709518695  0.5373530040474962  0.8481558601196683  1.0000
  H   H48       1.0  0.4694093226527511  0.6438366516315667  0.8618275732881031  1.0000
  H   H49       1.0  0.7766556127656228  0.7699637203986853  0.9885777651211498  1.0000
  H   H50       1.0  0.07931173223227705  0.6420629013107232  0.9435462847899387  1.0000
  H   H51       1.0  0.17001406402064098  0.8127694361118213  0.9779895921256879  1.0000
  H   H52       1.0  0.09412555783028122  0.9204480012293673  0.9999537062406818  1.0000
  H   H53       1.0  0.9322466940048384  0.8548794213604438  0.9898721894989391  1.0000
  H   H54       1.0  0.5388412868213877  0.27151409649210484  0.9243762437877763  1.0000
  H   H55       1.0  0.8107592772208109  0.34813916465436284  0.9259049889640991  1.0000
  H   H56       1.0  0.7179810604662361  0.3618579925862662  0.8924170573601059  1.0000
  H   H57       1.0  0.7233329109215133  0.21188705980129904  0.4932967628038726  1.0000
  H   H58       1.0  0.4206706048609587  0.8642193747815483  0.06272493561059639  1.0000
  H   H59       1.0  0.3299697236628486  0.8079504588292463  0.1427284372664984  1.0000
  H   H60       1.0  0.4058525374271082  0.90580150305545  0.32630451669076166  1.0000
  H   H61       1.0  0.5677459383395415  0.05759856835396703  0.4226191989114412  1.0000
  H   H62       1.0  0.9611273980657558  0.38550476799573374  0.23265127878926958  1.0000
  H   H63       1.0  0.689236182871795  0.11513277600552387  0.03736686508756993  1.0000
  H   H64       1.0  0.7820130138145982  0.17442649864536006  0.14386742443177516  1.0000
  C   C1        1.0  0.23621917721792568  0.5440403105216305  0.5940075995155282  1.0000
  C   C2        1.0  0.3117565031717857  0.5251878260654195  0.62522003093094  1.0000
  C   C3        1.0  0.3597866141774515  0.5129860669909759  0.5701749147708381  1.0000
  C   C4        1.0  0.32903295532418037  0.5187767511100105  0.48624383483121403  1.0000
  C   C5        1.0  0.25080227617752343  0.5366853815021883  0.45807094149468225  1.0000
  C   C6        1.0  0.21122169772666408  0.5440311210395095  0.3738840227732396  1.0000
  C   C7        1.0  0.11709329630841825  0.562548390606743  0.2679149613176292  1.0000
  C   C8        1.0  0.0380327327001168  0.5652850092779076  0.20463591773281561  1.0000
  C   C9        1.0  0.9113712199510997  0.5678204390305267  0.13137851546116502  1.0000
  C   C10       1.0  0.2637506039280168  0.3577587604048418  0.8077980667407729  1.0000
  C   C11       1.0  0.18821530987450785  0.31342101714155046  0.7134069188212422  1.0000
  C   C12       1.0  0.14019370112895044  0.2103520806717398  0.6531762582658301  1.0000
  C   C13       1.0  0.17096251946072974  0.1571779674514531  0.6897303860067153  1.0000
  C   C14       1.0  0.24918867949701706  0.20725644353591122  0.7858752688890932  1.0000
  C   C15       1.0  0.2887787305050081  0.16265807983181443  0.8328096522932001  1.0000
  C   C16       1.0  0.38291556703242674  0.15083556685256377  0.9454674319002265  1.0000
  C   C17       1.0  0.46198342544094817  0.16662847080858967  0.027266111307788783  1.0000
  C   C18       1.0  0.5886357990619115  0.22002280945871894  0.15645839939060113  1.0000
  C   C19       1.0  0.9500320232742892  0.3079176158307461  0.04404512686402721  1.0000
  C   C20       1.0  0.8999335381992919  0.21352820526875135  0.025195249480539295  1.0000
  C   C21       1.0  0.942757819837638  0.15328155199510032  0.012987381725537286  1.0000
  C   C22       1.0  0.03247454794461645  0.18979773945569886  0.018763361725987693  1.0000
  C   C23       1.0  0.07858476469360193  0.2859370289896006  0.03669617663698688  1.0000
  C   C24       1.0  0.17011661658295898  0.33282711569656687  0.044030300861535886  1.0000
  C   C25       1.0  0.2946000107027586  0.44545968281340004  0.06251215665602668  1.0000
  C   C26       1.0  0.360637093571789  0.5272506806003108  0.06523590638076372  1.0000
  C   C27       1.0  0.4364476741394866  0.6564443336625061  0.0677984380154086  1.0000
  C   C28       1.0  0.5499825789203001  0.0940320452109304  0.8578673581174671  1.0000
  C   C29       1.0  0.600080841913531  0.12525692382651243  0.8135636600194259  1.0000
  C   C30       1.0  0.5572557580007426  0.07021035310685879  0.7104924819337839  1.0000
  C   C31       1.0  0.467545100819727  0.9862785939617141  0.6572993602433287  1.0000
  C   C32       1.0  0.4214276287204084  0.9581111764491155  0.7073304334349401  1.0000
  C   C33       1.0  0.3298875270913725  0.8739198180851134  0.6626968638051879  1.0000
  C   C34       1.0  0.20539714647488672  0.7679231600500742  0.6508473570424584  1.0000
  C   C35       1.0  0.13936826846853723  0.7046191515681316  0.6666065226676422  1.0000
  C   C36       1.0  0.06356636996594713  0.6313722763392916  0.7200110241217387  1.0000
  C   C37       1.0  0.7637803115796089  0.45594007609966525  0.4059887684389524  1.0000
  C   C38       1.0  0.6882599851337973  0.47480956429640053  0.37477891904435273  1.0000
  C   C39       1.0  0.6402278299799419  0.4870173608160329  0.42982612655719515  1.0000
  C   C40       1.0  0.6709790715779743  0.4812279253933908  0.5137538908396236  1.0000
  C   C41       1.0  0.7491913055418207  0.4632986278534758  0.5419158681456934  1.0000
  C   C42       1.0  0.7887749932728025  0.4559729177740691  0.6261198772613951  1.0000
  C   C43       1.0  0.8829121935089786  0.43745931580649977  0.7320942703940291  1.0000
  C   C44       1.0  0.9619764647370344  0.43473303824841025  0.7953871428928992  1.0000
  C   C45       1.0  0.08863401353536195  0.43219141014983364  0.8686267411160956  1.0000
  C   C46       1.0  0.7362090574743192  0.6422169881696719  0.19216414525880043  1.0000
  C   C47       1.0  0.811748424079937  0.6865375076195264  0.2865552359887645  1.0000
  C   C48       1.0  0.8597848556984001  0.7896154017091915  0.34679147258756143  1.0000
  C   C49       1.0  0.8290277976013625  0.8427939451023434  0.31024509442771375  1.0000
  C   C50       1.0  0.7508012258347063  0.7927275465256257  0.2141031915795963  1.0000
  C   C51       1.0  0.7112230515476978  0.8373392990182182  0.1671935113767731  1.0000
  C   C52       1.0  0.6170688891363194  0.8491555131806904  0.05454223074945455  1.0000
  C   C53       1.0  0.5380070005601139  0.8333796030284759  0.9727485473959873  1.0000
  C   C54       1.0  0.4113560414821291  0.7799785965859414  0.843553740668824  1.0000
  C   C55       1.0  0.04998858595649116  0.6921375058840982  0.9559554455882733  1.0000
  C   C56       1.0  0.10007355379912734  0.7865347413352453  0.974831208256944  1.0000
  C   C57       1.0  0.057249699356709774  0.8467744920816286  0.9870468952163164  1.0000
  C   C58       1.0  0.967534929909682  0.8102536522674058  0.98126988677906  1.0000
  C   C59       1.0  0.9214290736103264  0.7141032867029935  0.9633285598498065  1.0000
  C   C60       1.0  0.8298845826514092  0.6671851212672947  0.9559839385763665  1.0000
  C   C61       1.0  0.7053976520109656  0.5545394313890029  0.9374795611439736  1.0000
  C   C62       1.0  0.6393733012024112  0.4727479287408086  0.934745408863826  1.0000
  C   C63       1.0  0.5635451926536347  0.3435404148030444  0.9321800523965608  1.0000
  C   C64       1.0  0.45000346290168336  0.9059495843392324  0.14213049617383414  1.0000
  C   C65       1.0  0.39991544454608147  0.8747320231806697  0.18644009908618386  1.0000
  C   C66       1.0  0.4427442904685247  0.9297772155953226  0.28951139954541105  1.0000
  C   C67       1.0  0.5324637621559986  0.013717796474679701  0.34270871234789974  1.0000
  C   C68       1.0  0.5785724354819806  0.04188154221842677  0.2926699195185307  1.0000
  C   C69       1.0  0.6701127083104693  0.1260701095533676  0.33728942351280017  1.0000
  C   C70       1.0  0.7946091514714764  0.23205520385963024  0.34913795147986787  1.0000
  C   C71       1.0  0.8606305754143192  0.2953554151333081  0.33337026089404276  1.0000
  C   C72       1.0  0.9364386301243639  0.36862169521710086  0.2799830108419171  1.0000
  N   N1        1.0  0.20455790183903103  0.5499230416353383  0.512683495068515  1.0000
  N   N2        1.0  0.1377501712323051  0.5653232331475236  0.3547870788115404  1.0000
  N   N3        1.0  0.23303645071805318  0.5306741393476742  0.29963825103183683  1.0000
  N   N4        1.0  0.17382371142254974  0.5417952552810023  0.23152079445321053  1.0000
  N   N5        1.0  0.9692845928231575  0.5837024684778174  0.21938910877378964  1.0000
  N   N6        1.0  0.023503670176630458  0.539135223181205  0.11272644930953385  1.0000
  N   N7        1.0  0.9411118064012666  0.5409689885466874  0.0655358887444776  1.0000
  N   N8        1.0  0.2954244061277577  0.3081108041199201  0.8453491903804178  1.0000
  N   N9        1.0  0.36225116945163893  0.21704459938224113  0.927580962661601  1.0000
  N   N10       1.0  0.26696736267360416  0.06660236571816823  0.7976376827741021  1.0000
  N   N11       1.0  0.3261939251881998  0.05771675450303349  0.8679884588572335  1.0000
  N   N12       1.0  0.5307351640610775  0.25012943607601573  0.11444513038119207  1.0000
  N   N13       1.0  0.476515427744161  0.08925618626191327  0.0156433271952069  1.0000
  N   N14       1.0  0.5589062527939388  0.12444382793191978  0.09986762808127735  1.0000
  N   N15       1.0  0.037245863244855446  0.34544502691365847  0.04993061005269075  1.0000
  N   N16       1.0  0.21052477668866482  0.4275964619969415  0.06533014556801217  1.0000
  N   N17       1.0  0.23097822908476928  0.29762914126783363  0.03063373324350493  1.0000
  N   N18       1.0  0.3102076207230339  0.36795571293671253  0.04173441234416939  1.0000
  N   N19       1.0  0.3643287090739022  0.6144316047028726  0.08368729411295572  1.0000
  N   N20       1.0  0.42638519202112934  0.5156263599873085  0.03906533460456519  1.0000
  N   N21       1.0  0.4754238774479589  0.5998567502188764  0.0409126736659219  1.0000
  N   N22       1.0  0.46276923147009086  0.012698538425652894  0.8081732138478159  1.0000
  N   N23       1.0  0.28947926123782225  0.8548185114512918  0.7170559459455959  1.0000
  N   N24       1.0  0.26902189204616156  0.7996572128568714  0.566626404675702  1.0000
  N   N25       1.0  0.18978963508504157  0.7315332570499394  0.557733597868662  1.0000
  N   N26       1.0  0.13568510052319  0.7193834328998462  0.750107466468151  1.0000
  N   N27       1.0  0.07362161706970458  0.612702274684608  0.5892393326031565  1.0000
  N   N28       1.0  0.024584821805753103  0.5655078481295915  0.6244325267719261  1.0000
  N   N29       1.0  0.7954357182137738  0.4500441285635119  0.48731044927238537  1.0000
  N   N30       1.0  0.8622395784324154  0.4346687166697762  0.6452126645901757  1.0000
  N   N31       1.0  0.7669670574934525  0.46936024085257344  0.7003798525860175  1.0000
  N   N32       1.0  0.8261950315037296  0.458235994608387  0.7684939352719552  1.0000
  N   N33       1.0  0.03071322488864315  0.4162887485066448  0.7806171455040881  1.0000
  N   N34       1.0  0.97653898195896  0.4609148351487279  0.8873110309735424  1.0000
  N   N35       1.0  0.05893147543986996  0.459081690749791  0.9344966459185784  1.0000
  N   N36       1.0  0.7045455000905887  0.6918722452348546  0.15460937459056365  1.0000
  N   N37       1.0  0.6377533018757687  0.7829525421388155  0.07242835123497558  1.0000
  N   N38       1.0  0.7330373106617356  0.9334023462000688  0.2023857308562499  1.0000
  N   N39       1.0  0.673799244198747  0.9422793886444154  0.13203356828721982  1.0000
  N   N40       1.0  0.46927069859579945  0.7498830841011496  0.8855838361047643  1.0000
  N   N41       1.0  0.5234710652150268  0.9107560412747518  0.9843763199177433  1.0000
  N   N42       1.0  0.4410796491276157  0.8755509082124746  0.900146189646776  1.0000
  N   N43       1.0  0.9627862340116664  0.6546135313256657  0.9500850262443237  1.0000
  N   N44       1.0  0.7894791975093225  0.5724141337850525  0.9346784353572913  1.0000
  N   N45       1.0  0.7690091031574794  0.7023640728803144  0.9693716493537465  1.0000
  N   N46       1.0  0.6897682079164225  0.6320289001294414  0.9582510770715447  1.0000
  N   N47       1.0  0.6356739435831784  0.3855570742392161  0.9163023088622211  1.0000
  N   N48       1.0  0.5736192801201341  0.4843707054460751  0.9609003990087501  1.0000
  N   N49       1.0  0.5245638288824211  0.4001411609559328  0.9590455808052668  1.0000
  N   N50       1.0  0.5372190724195177  0.9872897573651046  0.19182356845588788  1.0000
  N   N51       1.0  0.710513077104565  0.14516937779461614  0.2829211076741984  1.0000
  N   N52       1.0  0.730996407000319  0.20031626347809373  0.43335982932342904  1.0000
  N   N53       1.0  0.8102298220173906  0.2684377088518841  0.44225450021426127  1.0000
  N   N54       1.0  0.8643138757574105  0.28060522570582  0.24987319034515573  1.0000
  N   N55       1.0  0.9263806154704709  0.3872661478935696  0.4107453001061855  1.0000
  N   N56       1.0  0.9754234502995653  0.4344710352800761  0.3755607615816742  1.0000
  O   O1        1.0  0.9802158005126099  0.6233538327299257  0.3941113066678027  1.0000
  O   O2        1.0  0.5197791095275476  0.4139073168767454  0.14314905804485523  1.0000
  O   O3        1.0  0.22927052623113278  0.6431982783514696  0.12337195420501945  1.0000
  O   O4        1.0  0.2707343007000274  0.8941031326018773  0.9139286954178728  1.0000
  O   O5        1.0  0.01983187919432073  0.3766094021360047  0.6058938546595981  1.0000
  O   O6        1.0  0.4801873607448994  0.5860664350435912  0.8568170192771163  1.0000
  O   O7        1.0  0.770765636208594  0.3568702420653126  0.8766562977086211  1.0000
  O   O8        1.0  0.7292399959737209  0.10587927719401337  0.08609250619719686  1.0000
