data_image0
_chemical_formula_structural       CdH14C20N4O6F4
_chemical_formula_sum              "Cd1 H14 C20 N4 O6 F4"
_cell_length_a       7.8047528299889555
_cell_length_b       8.297094122129439
_cell_length_c       8.952317836289152
_cell_angle_alpha    78.64878237124583
_cell_angle_beta     66.58034689727033
_cell_angle_gamma    83.56037863506491

_space_group_name_H-M_alt    "P 1"
_space_group_IT_number       1

loop_
  _space_group_symop_operation_xyz
  'x, y, z'

loop_
  _atom_site_type_symbol
  _atom_site_label
  _atom_site_symmetry_multiplicity
  _atom_site_fract_x
  _atom_site_fract_y
  _atom_site_fract_z
  _atom_site_occupancy
  Cd  Cd1       1.0  1.3948933883989321e-06  7.527367386984598e-07  0.4999981062744255  1.0000
  H   H1        1.0  0.015215907950420195  0.15073821189212572  0.17769975390170603  1.0000
  H   H2        1.0  0.9847852760739572  0.8492661932349177  0.8222977218509868  1.0000
  H   H3        1.0  0.05214099966194399  0.27411582073649027  0.2811032266127356  1.0000
  H   H4        1.0  0.9478631041126349  0.7258861335770845  0.7188947829737843  1.0000
  H   H5        1.0  0.7619130550536399  0.052694740951615394  0.21203905197936726  1.0000
  H   H6        1.0  0.23808845274867713  0.9473034824521063  0.7879616012811824  1.0000
  H   H7        1.0  0.40220968076978647  0.6265356111644708  0.03219941753446408  1.0000
  H   H8        1.0  0.5977960251990808  0.37346268155778256  0.967797549947399  1.0000
  H   H9        1.0  0.4413117550545421  0.026966815835763193  0.3526868435564339  1.0000
  H   H10       1.0  0.5586881672595821  0.97303511677417  0.6473114865591472  1.0000
  H   H11       1.0  0.12185794747541218  0.7283529011882875  0.25394512497484817  1.0000
  H   H12       1.0  0.8781437054304391  0.27164289396667124  0.7460536583891866  1.0000
  H   H13       1.0  0.7132395762706595  0.7379969387588898  0.9621705348855232  1.0000
  H   H14       1.0  0.2867646559013651  0.2620025396910322  0.03782897005411458  1.0000
  C   C1        1.0  0.3781309233507244  0.4072675732477222  0.4690825040680052  1.0000
  C   C2        1.0  0.6218647282451003  0.5927355041680542  0.5309204467745161  1.0000
  C   C3        1.0  0.5587169141063058  0.4405606298301379  0.35399404961709263  1.0000
  C   C4        1.0  0.4412771464326255  0.5594461409202154  0.6460076998303421  1.0000
  C   C5        1.0  0.7723770658117246  0.9729132662483905  0.12442746684428126  1.0000
  C   C6        1.0  0.22762425217878504  0.027088678886634892  0.8755703825116541  1.0000
  C   C7        1.0  0.41731916035774924  0.7177434592785376  0.09760925755276162  1.0000
  C   C8        1.0  0.5826865456111108  0.2822548334437229  0.9023877099290942  1.0000
  C   C9        1.0  0.4385145004877772  0.9399606071548376  0.2768686708337142  1.0000
  C   C10       1.0  0.5614868956231973  0.060040139727433904  0.7231271218240921  1.0000
  C   C11       1.0  0.6031273646378141  0.8945515025022959  0.15122155343202334  1.0000
  C   C12       1.0  0.3968740706127464  0.1054479350258077  0.8487800347767731  1.0000
  C   C13       1.0  0.26021996942643  0.7729574015714177  0.2223309726684377  1.0000
  C   C14       1.0  0.7397829451896668  0.22704086610065843  0.7776669563327162  1.0000
  C   C15       1.0  0.6775766607463822  0.5323619399826638  0.38305858885669164  1.0000
  C   C16       1.0  0.32242063775200347  0.46763618235926435  0.6169479936822954  1.0000
  C   C17       1.0  0.5902737869811008  0.7797758793167234  0.05985787644256377  1.0000
  C   C18       1.0  0.40972892111710024  0.2202260624717596  0.9401406139036014  1.0000
  C   C19       1.0  0.2466326620147612  0.3129560017461018  0.43337208138183303  1.0000
  C   C20       1.0  0.753360555418425  0.6870409641259555  0.5666282779885918  1.0000
  N   N1        1.0  0.9289542331917887  0.9554954718772137  0.0013916172693198736  1.0000
  N   N2        1.0  0.07104859773515672  0.044503978175981694  0.9986094901798381  1.0000
  N   N3        1.0  0.27101707966218674  0.883061444858967  0.3100868371214887  1.0000
  N   N4        1.0  0.7289829821867713  0.11693804363056867  0.6899107448474595  1.0000
  O   O1        1.0  0.189302477701446  0.179785915557666  0.5335905557458034  1.0000
  O   O2        1.0  0.8106936483445538  0.8202085677576533  0.46641258095819177  1.0000
  O   O3        1.0  0.20817718588465792  0.3741521325824023  0.3095896848658057  1.0000
  O   O4        1.0  0.7918172876900728  0.6258472899351375  0.6904109418915994  1.0000
  O   O5        1.0  0.9641925396810366  0.19201915490692295  0.2850617090620771  1.0000
  O   O6        1.0  0.0358086499120347  0.8079852660917552  0.7149346449407403  1.0000
  F   F1        1.0  0.8502826691204036  0.5624697071715018  0.264780994738672  1.0000
  F   F2        1.0  0.14971490844764906  0.4375235269296383  0.7352240915070496  1.0000
  F   F3        1.0  0.6222099876851318  0.38181348272828325  0.20927701149643954  1.0000
  F   F4        1.0  0.377777635905126  0.6181834013001435  0.7907275144123176  1.0000
