data_image0
_chemical_formula_structural       U4H16C20N8O28
_chemical_formula_sum              "U4 H16 C20 N8 O28"
_cell_length_a       7.065236802741727
_cell_length_b       10.377590730854015
_cell_length_c       11.27098516100443
_cell_angle_alpha    89.99992837001808
_cell_angle_beta     89.99992730908274
_cell_angle_gamma    90.2554577627178

_space_group_name_H-M_alt    "P 1"
_space_group_IT_number       1

loop_
  _space_group_symop_operation_xyz
  'x, y, z'

loop_
  _atom_site_type_symbol
  _atom_site_label
  _atom_site_symmetry_multiplicity
  _atom_site_fract_x
  _atom_site_fract_y
  _atom_site_fract_z
  _atom_site_occupancy
  U   U1        1.0  0.747188012496636  0.6773764283387465  0.8551969562120831  1.0000
  U   U2        1.0  0.2528268170474988  0.8226484753170734  0.3552017346207137  1.0000
  U   U3        1.0  0.2528132313343576  0.3226249205451737  0.14480249308056162  1.0000
  U   U4        1.0  0.7471730113935706  0.17735287201966088  0.6447986019063876  1.0000
  H   H1        1.0  0.9759287500396283  0.770570816748247  0.07239478639016281  1.0000
  H   H2        1.0  0.024070977128950195  0.7294293982220239  0.5723949617719271  1.0000
  H   H3        1.0  0.024072493790470197  0.2294305321350691  0.9276055501363699  1.0000
  H   H4        1.0  0.9759288472731312  0.2705709854915667  0.4276053747557356  1.0000
  H   H5        1.0  0.9747317263300059  0.6173550975255039  0.0695708103163071  1.0000
  H   H6        1.0  0.025268006547008795  0.8826451212628682  0.5695734686085175  1.0000
  H   H7        1.0  0.025269517500994695  0.3826462513584091  0.9304286389763377  1.0000
  H   H8        1.0  0.9747304024660436  0.1173552609041408  0.4304268679197136  1.0000
  H   H9        1.0  0.35036346921665995  0.8490221118742766  0.6865746656233185  1.0000
  H   H10       1.0  0.6496402893717672  0.6509818077880992  0.1865713409485039  1.0000
  H   H11       1.0  0.6496377746125434  0.1509792370084426  0.3134265581371096  1.0000
  H   H12       1.0  0.3503609544601289  0.3490195410964175  0.8134272211102456  1.0000
  H   H13       1.0  0.1687033328122709  0.011061658123828998  0.0160961233686052  1.0000
  H   H14       1.0  0.8312988404510265  0.48894041612176414  0.5160944650133317  1.0000
  H   H15       1.0  0.8312993223669806  0.9889387286823422  0.9839051003918087  1.0000
  H   H16       1.0  0.1687009758730937  0.5110580403455601  0.4839058715154536  1.0000
  C   C1        1.0  0.46040181803379443  0.8024756755986145  0.0693881382793862  1.0000
  C   C2        1.0  0.5395965079071486  0.6975264691402643  0.5693852768791814  1.0000
  C   C3        1.0  0.5395951715485552  0.19752374139687126  0.9306148599516321  1.0000
  C   C4        1.0  0.46040189302973283  0.30247198578167206  0.43061328518239606  1.0000
  C   C5        1.0  0.3719676176384041  0.857808680148175  0.9636338401847128  1.0000
  C   C6        1.0  0.6280355564175296  0.6421890830181951  0.4636305429824006  1.0000
  C   C7        1.0  0.6280322027247036  0.1421907399422864  0.0363664963435113  1.0000
  C   C8        1.0  0.3719642518295245  0.3578074462034592  0.5363689063136121  1.0000
  C   C9        1.0  0.23778090959967807  0.9550694645922275  0.9477079890627707  1.0000
  C   C10       1.0  0.7622166472258056  0.5449312048001148  0.4477029230132814  1.0000
  C   C11       1.0  0.7622203301905373  0.04493092066735469  0.05229323469821169  1.0000
  C   C12       1.0  0.23778175371286642  0.45506725012302945  0.5522938645805127  1.0000
  C   C13       1.0  0.2137105032889082  0.9620333360272537  0.8251109030604908  1.0000
  C   C14       1.0  0.7862901322417458  0.5379675022849497  0.3251076003184465  1.0000
  C   C15       1.0  0.7862907405411904  0.0379680128560622  0.174889433466042  1.0000
  C   C16       1.0  0.2137082727332213  0.46203191625953377  0.6748918489764506  1.0000
  C   C17       1.0  0.07883103334870609  0.03932610918350579  0.756037672476012  1.0000
  C   C18       1.0  0.9211734894958568  0.46067660722716386  0.2560364329830875  1.0000
  C   C19       1.0  0.9211716258704215  0.9606752412463987  0.24396266404995257  1.0000
  C   C20       1.0  0.07882916164530941  0.5393228159564671  0.7439639035439994  1.0000
  N   N1        1.0  0.4281481764822175  0.809104286832408  0.858086728062311  1.0000
  N   N2        1.0  0.5718523923594246  0.6908965068746723  0.3580851937074883  1.0000
  N   N3        1.0  0.5718530592699195  0.1908951348046415  0.1419136084653445  1.0000
  N   N4        1.0  0.4281474239655907  0.3091019495932557  0.6419142555874018  1.0000
  N   N5        1.0  0.3307965997584787  0.8725332038633055  0.7758002231054134  1.0000
  N   N6        1.0  0.6692041395324819  0.6274686647709019  0.2757969100801319  1.0000
  N   N7        1.0  0.6692060594597534  0.12746814656599534  0.224201000654439  1.0000
  N   N8        1.0  0.3307956808333117  0.3725307553213639  0.7242007647464205  1.0000
  O   O1        1.0  0.646868495837701  0.5206903128695828  0.8821787570466385  1.0000
  O   O2        1.0  0.3531263748416578  0.9793133329319869  0.3821788372485955  1.0000
  O   O3        1.0  0.35313415126537956  0.47930814669151545  0.11782069224712188  1.0000
  O   O4        1.0  0.6468762803375937  0.0206870538741768  0.6178223865118184  1.0000
  O   O5        1.0  0.8311079914720452  0.8395854298775587  0.831072939084514  1.0000
  O   O6        1.0  0.16889828951295977  0.660414442929607  0.3310753111674956  1.0000
  O   O7        1.0  0.16889183696991944  0.16041591745977266  0.1689265102086992  1.0000
  O   O8        1.0  0.8310987121899202  0.33958786493769116  0.668924138126286  1.0000
  O   O9        1.0  0.9729826375591414  0.695424646706215  0.0174777151355201  1.0000
  O   O10       1.0  0.0270172006677853  0.8045756425457283  0.517478688175359  1.0000
  O   O11       1.0  0.0270171868429472  0.30457573700738294  0.9825226213921425  1.0000
  O   O12       1.0  0.9729797969952187  0.19542570169783596  0.482521648352872  1.0000
  O   O13       1.0  0.5987005024089311  0.7258745745230256  0.05133824121345041  1.0000
  O   O14       1.0  0.4013020779277383  0.7741208539077958  0.5513362886956656  1.0000
  O   O15       1.0  0.401292220810511  0.2741200197164346  0.9486656442559679  1.0000
  O   O16       1.0  0.5986963189692602  0.22587663739040656  0.44866316060036127  1.0000
  O   O17       1.0  0.4009782238486821  0.8328504266121115  0.1716924224702581  1.0000
  O   O18       1.0  0.599029811001941  0.6671535178192087  0.6716904360512785  1.0000
  O   O19       1.0  0.5990230280593778  0.16715284951747122  0.8283079140551521  1.0000
  O   O20       1.0  0.4009700093629505  0.3328459022724529  0.3283081260091691  1.0000
  O   O21       1.0  0.04584612871123279  0.0158019337381603  0.6475440776336896  1.0000
  O   O22       1.0  0.9541642750986129  0.4842009356112342  0.1475410099984629  1.0000
  O   O23       1.0  0.9541579499350162  0.9842003818608589  0.3524571461250403  1.0000
  O   O24       1.0  0.045841214900370596  0.5158004179130415  0.8524575520585955  1.0000
  O   O25       1.0  0.9891215568348669  0.1301695146005954  0.8084922979137446  1.0000
  O   O26       1.0  0.010882863969399598  0.3698340944818028  0.308491004310703  1.0000
  O   O27       1.0  0.0108796869943291  0.8698318342821166  0.19150892584668364  1.0000
  O   O28       1.0  0.9891197912125449  0.6301662923261658  0.6915075577480535  1.0000
