data_image0
_chemical_formula_structural       Fe2H28Pt2C40N20O4
_chemical_formula_sum              "Fe2 H28 Pt2 C40 N20 O4"
_cell_length_a       6.960995601273408
_cell_length_b       7.250062172507739
_cell_length_c       21.70641947627269
_cell_angle_alpha    99.5701333518363
_cell_angle_beta     89.99902037733844
_cell_angle_gamma    89.99983251193872

_space_group_name_H-M_alt    "P 1"
_space_group_IT_number       1

loop_
  _space_group_symop_operation_xyz
  'x, y, z'

loop_
  _atom_site_type_symbol
  _atom_site_label
  _atom_site_symmetry_multiplicity
  _atom_site_fract_x
  _atom_site_fract_y
  _atom_site_fract_z
  _atom_site_occupancy
  Fe  Fe1       1.0  0.9999733449896695  0.5000272196150346  0.5000006672018814  1.0000
  Fe  Fe2       1.0  0.5000154452216065  0.4999952762555749  0.9999996278434939  1.0000
  H   H1        1.0  0.019520182830838496  0.28678159995206437  0.6180460583978802  1.0000
  H   H2        1.0  0.5195098045763374  0.7132309710656843  0.8819498291253328  1.0000
  H   H3        1.0  0.9804531704351406  0.7132434038071764  0.3819462266821888  1.0000
  H   H4        1.0  0.48049802631503985  0.2867689620675691  0.11805122773934333  1.0000
  H   H5        1.0  0.03546343620012489  0.7357482269207196  0.7996556645524253  1.0000
  H   H6        1.0  0.5354642871536583  0.2642293477699909  0.7003442230821053  1.0000
  H   H7        1.0  0.9645544508280821  0.2642167372615845  0.2003434905425152  1.0000
  H   H8        1.0  0.4645306145317605  0.7357691963791382  0.2996576796711424  1.0000
  H   H9        1.0  0.9027938561498559  0.17360314287101625  0.7078861444820321  1.0000
  H   H10       1.0  0.40277159628281106  0.8263751358098331  0.7921113468651771  1.0000
  H   H11       1.0  0.09719673604548261  0.8263785431875446  0.29210793103663957  1.0000
  H   H12       1.0  0.5972592198390672  0.17363317519541244  0.20788878346986198  1.0000
  H   H13       1.0  0.9134605237545942  0.8257990015486243  0.7215423996692254  1.0000
  H   H14       1.0  0.41350416615944846  0.17417653561020066  0.778465941790657  1.0000
  H   H15       1.0  0.0865286313416291  0.17418987301873295  0.2784704946312574  1.0000
  H   H16       1.0  0.5865122842052486  0.825817802470965  0.22153481077094037  1.0000
  H   H17       1.0  0.9578320632192144  0.2969862839428287  0.9084260435066442  1.0000
  H   H18       1.0  0.45781965328674085  0.7029805111675672  0.5915723703173017  1.0000
  H   H19       1.0  0.0421657118311529  0.7029702634152598  0.09157035042387211  1.0000
  H   H20       1.0  0.5421953606230973  0.29700679418916553  0.40842431421425135  1.0000
  H   H21       1.0  0.025068607874764795  0.6282908134475774  0.9024212972320672  1.0000
  H   H22       1.0  0.5250704224480032  0.37169244945128094  0.5975821804770762  1.0000
  H   H23       1.0  0.9749492791074559  0.37167696285253266  0.09757939288437711  1.0000
  H   H24       1.0  0.47493597177930974  0.6283033263594149  0.4024223358686428  1.0000
  H   H25       1.0  0.8785335209602892  0.016683080781021403  0.8541751868921711  1.0000
  H   H26       1.0  0.37850439029848104  0.983299561347664  0.64582543631893  1.0000
  H   H27       1.0  0.12146425410722371  0.9832972113682246  0.14581927349718174  1.0000
  H   H28       1.0  0.6215149332938451  0.016698938919972803  0.35417231771828755  1.0000
  Pt  Pt1       1.0  0.4999723396416087  3.382583710730255e-05  0.5000067611734169  1.0000
  Pt  Pt2       1.0  1.2945377690700002e-05  0.9999943106669349  0.9999965275113712  1.0000
  C   C1        1.0  0.6948686588519382  0.8000336045829001  0.4960767416030338  1.0000
  C   C2        1.0  0.1948970023057583  0.19999437280390703  0.0039230965330503  1.0000
  C   C3        1.0  0.3050845818595249  0.20003350311252183  0.5039311934849664  1.0000
  C   C4        1.0  0.8051137018547933  0.7999915435441948  0.9960744338625748  1.0000
  C   C5        1.0  0.9936432061753919  0.43542550877558744  0.6305697458857156  1.0000
  C   C6        1.0  0.49364194155933916  0.56459279773415  0.8694275912835752  1.0000
  C   C7        1.0  0.0063330201298868  0.5646037301902143  0.36942645508103317  1.0000
  C   C8        1.0  0.5063644527894978  0.4354127109587366  0.13057192602082782  1.0000
  C   C9        1.0  0.9692253659881872  0.4624772868148098  0.7477130002614559  1.0000
  C   C10       1.0  0.46923343276130686  0.5374964761810687  0.7522894167905181  1.0000
  C   C11       1.0  0.030769535851625597  0.5374946517452912  0.25228469140407844  1.0000
  C   C12       1.0  0.5307988198820865  0.462500678840982  0.24771333170841817  1.0000
  C   C13       1.0  0.29670711625406915  0.8096034260715965  0.49949096436598256  1.0000
  C   C14       1.0  0.7967377426257087  0.19042680869075207  0.0005121348428573998  1.0000
  C   C15       1.0  0.7032288853895778  0.1904860958591925  0.5005214146105177  1.0000
  C   C16       1.0  0.20328732733765525  0.8095493114502402  0.9994844020636864  1.0000
  C   C17       1.0  0.0031636055659732  0.5906777455173752  0.8022332874429241  1.0000
  C   C18       1.0  0.5031555436462513  0.4093000323346202  0.6977686276191835  1.0000
  C   C19       1.0  0.9968456619554756  0.4092956209668088  0.19776724601585735  1.0000
  C   C20       1.0  0.4968508506688778  0.5906915179973635  0.3022328947531748  1.0000
  C   C21       1.0  0.9324621668610575  0.2741549001563754  0.7499659573791393  1.0000
  C   C22       1.0  0.43244106189708725  0.7258176245290995  0.7500319830032468  1.0000
  C   C23       1.0  0.06752842534669408  0.7258183982288242  0.25002812268238733  1.0000
  C   C24       1.0  0.5675825714277423  0.2741794769693868  0.24996569495207416  1.0000
  C   C25       1.0  0.9282514905395305  0.2171187535672487  0.8085084783573041  1.0000
  C   C26       1.0  0.42822765588952905  0.782842619617682  0.6914902602870685  1.0000
  C   C27       1.0  0.0717491576842235  0.7828517570115849  0.1914863714578346  1.0000
  C   C28       1.0  0.5717931042493589  0.217140523528073  0.3085094227443791  1.0000
  C   C29       1.0  0.9424116262363356  0.7142178011067415  0.6828264351360718  1.0000
  C   C30       1.0  0.4424355883763624  0.2857771443462269  0.8171818849047698  1.0000
  C   C31       1.0  0.05757896549919649  0.2857961975325622  0.3171827578458562  1.0000
  C   C32       1.0  0.5575765522223365  0.714217208351215  0.18282025055129486  1.0000
  C   C33       1.0  0.9615280947171174  0.34373986487567987  0.8633271742472249  1.0000
  C   C34       1.0  0.46152198873581085  0.6562380992555036  0.6366718271115064  1.0000
  C   C35       1.0  0.0384711169053489  0.6562264640405714  0.13666883024526305  1.0000
  C   C36       1.0  0.5385073909686541  0.3437505902132613  0.363323550566662  1.0000
  C   C37       1.0  0.9985729029313646  0.5299034578535424  0.8597170801470572  1.0000
  C   C38       1.0  0.49856141061019343  0.4700715176062857  0.6402834024057145  1.0000
  C   C39       1.0  0.0014406744229518002  0.47006427951477286  0.14027992229573272  1.0000
  C   C40       1.0  0.5014435471581608  0.5299228156395513  0.35971688922780504  1.0000
  N   N1        1.0  0.18405816366887962  0.689944962839881  0.5000633063486931  1.0000
  N   N2        1.0  0.6840583696585867  0.3100849294084398  0.9999395493948033  1.0000
  N   N3        1.0  0.815887894203776  0.3101165401123751  0.49994340255965863  1.0000
  N   N4        1.0  0.31595233442676834  0.6899093989530556  6.028126164640249e-05  1.0000
  N   N5        1.0  0.9687728797285472  0.5306418818536612  0.6899010078938377  1.0000
  N   N6        1.0  0.46878231273001353  0.46934582260015384  0.8100975628148248  1.0000
  N   N7        1.0  0.0312234586375766  0.469355224590437  0.3100971310997808  1.0000
  N   N8        1.0  0.5312312645202013  0.5306526922878447  0.18990157412093114  1.0000
  N   N9        1.0  0.8067163742451766  0.6790462635238087  0.4950425540573848  1.0000
  N   N10       1.0  0.30676010197495174  0.3209922873557928  0.0049591008067366976  1.0000
  N   N11       1.0  0.19322537399118292  0.32101380660776613  0.5049608520684004  1.0000
  N   N12       1.0  0.6932606581474303  0.6790048336228905  0.9950404209997006  1.0000
  N   N13       1.0  0.9838409093606515  0.5557106727839097  0.5909537380089491  1.0000
  N   N14       1.0  0.4838637058076927  0.444307747811493  0.9090491863270744  1.0000
  N   N15       1.0  0.016128133825731104  0.44433123290245646  0.4090505229768271  1.0000
  N   N16       1.0  0.5161498713714182  0.5556935889303176  0.09095240755166152  1.0000
  N   N17       1.0  0.9519348338600295  0.7325541602983421  0.6237331878779744  1.0000
  N   N18       1.0  0.45197718232751066  0.2674589001869093  0.8762746840136163  1.0000
  N   N19       1.0  0.0480313359521602  0.2674780514580561  0.376279759843179  1.0000
  N   N20       1.0  0.5480392680331648  0.7325452194565043  0.12372567911403821  1.0000
  O   O1        1.0  0.8877330861630314  0.0325877958457141  0.8103802502960779  1.0000
  O   O2        1.0  0.3877073652158741  0.967372394380206  0.6896172596670882  1.0000
  O   O3        1.0  0.1122589426751475  0.9673798929038072  0.18961214260056647  1.0000
  O   O4        1.0  0.6123177047644078  0.0326148963439152  0.3103780419536762  1.0000
