data_image0
_chemical_formula_structural       Zn8H24C80O34F16
_chemical_formula_sum              "Zn8 H24 C80 O34 F16"
_cell_length_a       23.888775501102664
_cell_length_b       23.890134563434422
_cell_length_c       23.888548531934276
_cell_angle_alpha    66.34412668501488
_cell_angle_beta     72.58479320929179
_cell_angle_gamma    107.42352698614593

_space_group_name_H-M_alt    "P 1"
_space_group_IT_number       1

loop_
  _space_group_symop_operation_xyz
  'x, y, z'

loop_
  _atom_site_type_symbol
  _atom_site_label
  _atom_site_symmetry_multiplicity
  _atom_site_fract_x
  _atom_site_fract_y
  _atom_site_fract_z
  _atom_site_occupancy
  Zn  Zn1       1.0  0.05700272220956768  0.9573763410845472  0.48563271214847936  1.0000
  Zn  Zn2       1.0  0.05700126816036292  0.09962649287900402  0.4573780240290402  1.0000
  Zn  Zn3       1.0  0.9429928282771415  0.9856292165144678  0.4573676384751548  1.0000
  Zn  Zn4       1.0  0.943008436712681  0.9573732786358492  0.5996307529185925  1.0000
  Zn  Zn5       1.0  0.9429986204034722  0.5426251651074808  0.014368460716610729  1.0000
  Zn  Zn6       1.0  0.05700822972100643  0.5143735746864734  0.04263143364722305  1.0000
  Zn  Zn7       1.0  0.9429978953731464  0.40037227270401143  0.04262722200935083  1.0000
  Zn  Zn8       1.0  0.056989428542387165  0.5426224337365894  0.9003713674454797  1.0000
  H   H1        1.0  0.9229776090623929  0.7145752441313035  0.17460228619997045  1.0000
  H   H2        1.0  0.07700956799738637  0.6745892978504954  0.2146205255416901  1.0000
  H   H3        1.0  0.9229813882853933  0.8253986502394284  0.28539419517997516  1.0000
  H   H4        1.0  0.07696702516819437  0.7853526416079787  0.325469966268102  1.0000
  H   H5        1.0  0.07702831007951985  0.4023919506383892  0.7084124369965605  1.0000
  H   H6        1.0  0.9229889378774344  0.20837330567778897  0.9024320779567954  1.0000
  H   H7        1.0  0.07697005159636214  0.291616792224481  0.5975821104614453  1.0000
  H   H8        1.0  0.922982205192838  0.09758088896700194  0.7916136424269523  1.0000
  H   H9        1.0  0.6108052222398117  0.4024118231503451  0.17457055726168852  1.0000
  H   H10       1.0  0.610803166036476  0.2083787577165098  0.21461833288282858  1.0000
  H   H11       1.0  0.3892006646425727  0.2916231711983386  0.2853700165986551  1.0000
  H   H12       1.0  0.3891896943359328  0.0976006875465671  0.32535221002198245  1.0000
  H   H13       1.0  0.38920317957956735  0.6745511404052066  0.902412289386987  1.0000
  H   H14       1.0  0.3891829585243089  0.714605578583857  0.7083738250032067  1.0000
  H   H15       1.0  0.6108160453840484  0.7853850273095873  0.7916270568131334  1.0000
  H   H16       1.0  0.6107974373016135  0.8253712471046555  0.5976018867293289  1.0000
  H   H17       1.0  0.9196403305986112  0.8371562394540109  0.7432023703675339  1.0000
  H   H18       1.0  0.08036327519691637  0.6628441800986522  0.7567974043006199  1.0000
  H   H19       1.0  0.919636269639426  0.6628401518219746  0.9175192241927446  1.0000
  H   H20       1.0  0.08036685425985746  0.8371608305706887  0.5824796339668408  1.0000
  H   H21       1.0  0.9196342386797908  0.08248689440245015  0.33714326666779465  1.0000
  H   H22       1.0  0.0803694606704327  0.417517988378755  0.1628565040103567  1.0000
  H   H23       1.0  0.9196417179222394  0.2568084772700702  0.16282821913470258  1.0000
  H   H24       1.0  0.08036226605128864  0.2431951219612074  0.33717323308970026  1.0000
  C   C1        1.0  0.18100749410310607  0.0905182336027082  0.40948896501144805  1.0000
  C   C2        1.0  0.9999957696327826  0.13988693512585124  0.3601106366356247  1.0000
  C   C3        1.0  0.9999824550488016  0.9094916928530594  0.4095047252524394  1.0000
  C   C4        1.0  0.8189943955664565  0.9094907213632555  0.5905123849100559  1.0000
  C   C5        1.0  6.557066655318608e-06  0.8601120466873128  0.6398891127224072  1.0000
  C   C6        1.0  0.9999934818054753  0.09050532281908358  0.5905051707951542  1.0000
  C   C7        1.0  7.230254425592224e-06  0.5904939366961202  0.09051171991497842  1.0000
  C   C8        1.0  7.491462689386609e-06  0.3601175025294765  0.13989111761178205  1.0000
  C   C9        1.0  0.8189913202058037  0.40948857965840096  0.09049769156548859  1.0000
  C   C10       1.0  0.9999918287958782  0.40948034716595344  0.9095105718169304  1.0000
  C   C11       1.0  0.9999970487372919  0.6398883743243358  0.8601102427492789  1.0000
  C   C12       1.0  0.1810055497391048  0.5904940602592247  0.909487185003321  1.0000
  C   C13       1.0  4.084093440592126e-06  0.804131306049655  0.6958690187490217  1.0000
  C   C14       1.0  0.9999990078793674  0.6958691397069927  0.8041303102665507  1.0000
  C   C15       1.0  0.9562807848186028  0.7768501768892903  0.7668690907074235  1.0000
  C   C16       1.0  0.0437230619503169  0.7231499656203296  0.7331298846256258  1.0000
  C   C17       1.0  0.9562790611718271  0.7231486951557428  0.8205715396106255  1.0000
  C   C18       1.0  0.04372498284475065  0.7768521636868541  0.6794279282741085  1.0000
  C   C19       1.0  0.9999999517644795  0.19587042629927254  0.30413079536215554  1.0000
  C   C20       1.0  3.94480812825211e-06  0.3041351684379521  0.19587072545706252  1.0000
  C   C21       1.0  0.9562783331794621  0.17943380430951814  0.27684299250244476  1.0000
  C   C22       1.0  0.043725804358111076  0.320571511925678  0.2231581481781362  1.0000
  C   C23       1.0  0.9562815687033606  0.23313731440990892  0.22314179258653152  1.0000
  C   C24       1.0  0.04372280977391092  0.2668677189463082  0.2768602255447873  1.0000
  C   C25       1.0  0.9999982638221141  0.6278652723224737  0.12788956038835428  1.0000
  C   C26       1.0  0.9576967249223785  0.6579399795435705  0.13612225871867167  1.0000
  C   C27       1.0  0.9569231267163405  0.6928077557703602  0.17049266902958474  1.0000
  C   C28       1.0  0.9999926718378377  0.6994154725663297  0.19944850785452656  1.0000
  C   C29       1.0  0.0430651504669229  0.6704732382952017  0.19284399343473518  1.0000
  C   C30       1.0  0.042297575759164464  0.636102260016834  0.15797604482392552  1.0000
  C   C31       1.0  0.9999839875613434  0.734730836357258  0.2347740011586693  1.0000
  C   C32       1.0  0.9999785809312628  0.7652223391487211  0.2652745823652367  1.0000
  C   C33       1.0  0.9999773901299845  0.8005441760335116  0.3005939876610455  1.0000
  C   C34       1.0  0.9569171287114603  0.8295039139002542  0.3071809863249653  1.0000
  C   C35       1.0  0.9576866972684004  0.8638763708363298  0.3420473276634795  1.0000
  C   C36       1.0  0.999976017446329  0.872101246225405  0.3721445722908569  1.0000
  C   C37       1.0  0.04226013590675866  0.8420012230336269  0.36393598855728715  1.0000
  C   C38       1.0  0.04303423853910752  0.8071376059015591  0.32956293253165797  1.0000
  C   C39       1.0  1.1453922823618504e-05  0.3721045633429227  0.8721390803040803  1.0000
  C   C40       1.0  0.04231661115002095  0.4061647598419853  0.7997635541725355  1.0000
  C   C41       1.0  0.04308370024311613  0.3725629755767201  0.7641255657023577  1.0000
  C   C42       1.0  2.9461632636596643e-06  0.30054855327388447  0.8005872773094392  1.0000
  C   C43       1.0  0.9569359970424005  0.26408834230421985  0.8726034483565567  1.0000
  C   C44       1.0  0.9577094187921492  0.2997251624030354  0.9062060231950467  1.0000
  C   C45       1.0  0.9999943547035955  0.2652320417066533  0.7652613286827403  1.0000
  C   C46       1.0  0.9999846235132354  0.2347467545914058  0.7347603123277223  1.0000
  C   C47       1.0  0.9999807106698172  0.19943181944358904  0.6994329947752717  1.0000
  C   C48       1.0  0.043036399796598374  0.2358984871890044  0.6274138704780085  1.0000
  C   C49       1.0  0.04226177330623675  0.2002630741901754  0.5938090043681254  1.0000
  C   C50       1.0  0.9999782281414157  0.12787924467673417  0.6278771740592786  1.0000
  C   C51       1.0  0.9576872448579365  0.0938139435915915  0.7002554942867504  1.0000
  C   C52       1.0  0.9569168909361137  0.127411930658404  0.7358968144749695  1.0000
  C   C53       1.0  0.7442436646467601  0.37211580838716435  0.12787705827047796  1.0000
  C   C54       1.0  0.7059305948809964  0.40618171322547164  0.13609809866014178  1.0000
  C   C55       1.0  0.6366896670100176  0.37258049774268903  0.1704684017877438  1.0000
  C   C56       1.0  0.6011342585883028  0.30056194724539154  0.19942503590888083  1.0000
  C   C57       1.0  0.6366892573425246  0.2640957856732555  0.19283639722100793  1.0000
  C   C58       1.0  0.7059302140112608  0.2997350176224247  0.15797112540202804  1.0000
  C   C59       1.0  0.5304920613593397  0.26524423581814477  0.2347351771627613  1.0000
  C   C60       1.0  0.46950600829960365  0.23475882524088118  0.26521761597899735  1.0000
  C   C61       1.0  0.3988640744308896  0.19944553390257616  0.30053052201432706  1.0000
  C   C62       1.0  0.3633131278331235  0.23590786385922508  0.30713998041266416  1.0000
  C   C63       1.0  0.2940709226390794  0.20027102217317605  0.3420071872222435  1.0000
  C   C64       1.0  0.2557553036558247  0.1278927962860692  0.37208790774313627  1.0000
  C   C65       1.0  0.2940665998134336  0.09383093130188064  0.3638423491488323  1.0000
  C   C66       1.0  0.36330868883406714  0.12743175640444793  0.32946892203605666  1.0000
  C   C67       1.0  0.2557551328915439  0.6278645816294671  0.8721110651361099  1.0000
  C   C68       1.0  0.29407351513508956  0.63607830166211  0.9061823792132908  1.0000
  C   C69       1.0  0.3633149346584192  0.6704538508380081  0.8725780490092416  1.0000
  C   C70       1.0  0.3988633554724645  0.699414146232357  0.8005597129911093  1.0000
  C   C71       1.0  0.3633038010544355  0.6928239487644205  0.7640910236732095  1.0000
  C   C72       1.0  0.294063423270494  0.6579570258227251  0.7997305837501255  1.0000
  C   C73       1.0  0.4695054429641916  0.734729164787467  0.7652435610367333  1.0000
  C   C74       1.0  0.530492876765976  0.7652195911545687  0.7347641508858656  1.0000
  C   C75       1.0  0.6011357320442559  0.8005431888933501  0.6994481179982156  1.0000
  C   C76       1.0  0.6366948507752215  0.807153798218529  0.7359121561233549  1.0000
  C   C77       1.0  0.7059348565012301  0.8420239943801634  0.7002726598808448  1.0000
  C   C78       1.0  0.7442453579562458  0.8721025014336733  0.6278932979200744  1.0000
  C   C79       1.0  0.705927914525376  0.8638620972289889  0.5938281450948676  1.0000
  C   C80       1.0  0.636684654742176  0.8294867907762581  0.6274325134380087  1.0000
  O   O1        1.0  0.9999988631402417  2.8760163679029234e-07  0.5000014976972763  1.0000
  O   O2        1.0  0.15203406462871527  0.02496637009075191  0.43597605263622075  1.0000
  O   O3        1.0  0.04002374491478385  0.15610304658187604  0.38392187176149395  1.0000
  O   O4        1.0  0.9609032027776865  0.9359508626436932  0.41200962184404205  1.0000
  O   O5        1.0  0.15203829737696853  0.1270876017052629  0.4120013200830426  1.0000
  O   O6        1.0  0.03908223770963592  0.912017434212423  0.43595850591168506  1.0000
  O   O7        1.0  0.9599684476137893  0.076058407223222  0.3839125058834297  1.0000
  O   O8        1.0  0.8479607198867573  0.9359663326114641  0.5249729846093486  1.0000
  O   O9        1.0  0.9599831275198836  0.8839198040601203  0.6561081049552157  1.0000
  O   O10       1.0  0.8479711123458314  0.9119931857351489  0.6270950024215621  1.0000
  O   O11       1.0  0.04003084525281519  0.88391873850491  0.5760570075138388  1.0000
  O   O12       1.0  0.03907250045608631  0.1270714205162378  0.5249658837007372  1.0000
  O   O13       1.0  0.9609242993756978  0.024952950465994415  0.6270852213121073  1.0000
  O   O14       1.0  2.567602024235153e-07  0.499999487406228  4.2906683724461494e-07  1.0000
  O   O15       1.0  0.9609256345777127  0.5879916692944748  0.0640351651244159  1.0000
  O   O16       1.0  0.04003641282712085  0.4239460749648742  0.11608707518476534  1.0000
  O   O17       1.0  0.8479617216641204  0.37291780299688065  0.08798804696175463  1.0000
  O   O18       1.0  0.03908472964975128  0.5640330112047421  0.0880076312605594  1.0000
  O   O19       1.0  0.8479652087515391  0.47503510733119475  0.0640297545486845  1.0000
  O   O20       1.0  0.9599772813749609  0.3439001923767576  0.11608145070037071  1.0000
  O   O21       1.0  0.9609211467343357  0.3729106155891842  0.975052814323632  1.0000
  O   O22       1.0  0.04002047825878939  0.6160806125745709  0.8438925081058597  1.0000
  O   O23       1.0  0.0390517780335672  0.4750334023348017  0.8729295060655314  1.0000
  O   O24       1.0  0.9599707230436111  0.6160812088969295  0.9239418935452404  1.0000
  O   O25       1.0  0.15203769476206494  0.5640429666763184  0.9750239767545064  1.0000
  O   O26       1.0  0.15202898524835748  0.587982885858672  0.8729071541325335  1.0000
  O   O27       1.0  0.9133702875786941  0.7998098342587455  0.786816155870646  1.0000
  O   O28       1.0  0.08663355919022568  0.7001903082508746  0.7131828194624035  1.0000
  O   O29       1.0  0.9133685376646244  0.7001853094638834  0.8864418888168398  1.0000
  O   O30       1.0  0.08663570362489295  0.7998162700886412  0.613556814030211  1.0000
  O   O31       1.0  0.9133680012053275  0.11356622669374851  0.2997957411462053  1.0000
  O   O32       1.0  0.08663565442758876  0.38643965092245475  0.20020490222226778  1.0000
  O   O33       1.0  0.9133725776428391  0.21319409480728502  0.20017117522999683  1.0000
  O   O34       1.0  0.08663204180783184  0.28681066150588214  0.2998300435662172  1.0000
  F   F1        1.0  0.9147615273986105  0.65355400961365  0.11000137487674529  1.0000
  F   F2        1.0  0.08523193492941078  0.6099878579623593  0.15360217726284717  1.0000
  F   F3        1.0  0.9147653537631657  0.890006968191493  0.34640538747105853  1.0000
  F   F4        1.0  0.08517037580713088  0.846356400192981  0.39008752849817085  1.0000
  F   F5        1.0  0.08525805213739811  0.47521140965296393  0.7612138966594555  1.0000
  F   F6        1.0  0.914782354599609  0.26117261853152485  0.9752547172246222  1.0000
  F   F7        1.0  0.08517282335417066  0.23882097558382043  0.5247546200064759  1.0000
  F   F8        1.0  0.9147619715960644  0.024763656180368684  0.7388096921951471  1.0000
  F   F9        1.0  0.7364280090546629  0.47523326399961247  0.10996592079981592  1.0000
  F   F10       1.0  0.7364248569580881  0.26117803241542253  0.15361331879889661  1.0000
  F   F11       1.0  0.26357912711652187  0.23882558432366346  0.34638310306797127  1.0000
  F   F12       1.0  0.26356717106665434  0.024783698883894128  0.3899503889431626  1.0000
  F   F13       1.0  0.26358193448261613  0.6099343474753881  0.9752369430403856  1.0000
  F   F14       1.0  0.26356266081950275  0.6535972563698209  0.7611714129893908  1.0000
  F   F15       1.0  0.7364368262773625  0.8464032166341651  0.7388266487580349  1.0000
  F   F16       1.0  0.7364175849454426  0.8899713034492578  0.5247817185165926  1.0000
