data_image0
_chemical_formula_structural       Ba5H20C32N2O24
_chemical_formula_sum              "Ba5 H20 C32 N2 O24"
_cell_length_a       7.343248056168674
_cell_length_b       10.739628192481272
_cell_length_c       12.938594137643667
_cell_angle_alpha    90.30947052313941
_cell_angle_beta     90.7638875090826
_cell_angle_gamma    103.49361575352756

_space_group_name_H-M_alt    "P 1"
_space_group_IT_number       1

loop_
  _space_group_symop_operation_xyz
  'x, y, z'

loop_
  _atom_site_type_symbol
  _atom_site_label
  _atom_site_symmetry_multiplicity
  _atom_site_fract_x
  _atom_site_fract_y
  _atom_site_fract_z
  _atom_site_occupancy
  Ba  Ba1       1.0  0.9999980905244856  1.2863215199961323e-07  0.9999995673171611  1.0000
  Ba  Ba2       1.0  0.879964113224915  0.6273198918901598  0.8765822068109658  1.0000
  Ba  Ba3       1.0  0.1200349562848473  0.37268032380002575  0.12341732727789183  1.0000
  Ba  Ba4       1.0  0.5653035545432984  0.2078502157708114  0.9369747447131332  1.0000
  Ba  Ba5       1.0  0.43469621793895635  0.7921480737075156  0.0630263232501633  1.0000
  H   H1        1.0  0.553253891278878  0.37078165949668557  0.2986824786304254  1.0000
  H   H2        1.0  0.44674414924788397  0.6292194976192034  0.7013201482771408  1.0000
  H   H3        1.0  0.6417648014936929  0.47199599849301405  0.4705029638394578  1.0000
  H   H4        1.0  0.35823389792390253  0.5280070783310363  0.5294989111006245  1.0000
  H   H5        1.0  0.8583179830368762  0.6878623398106851  0.4834179869411841  1.0000
  H   H6        1.0  0.14168653142807125  0.3121378679971157  0.5165815833504652  1.0000
  H   H7        1.0  0.982741263249878  0.8022547210127228  0.32129259519403064  1.0000
  H   H8        1.0  0.01726292020833137  0.19774453827375985  0.6787054189407228  1.0000
  H   H9        1.0  0.7744975905290516  0.8434312246431259  0.6360502500300669  1.0000
  H   H10       1.0  0.2255031706017121  0.15656994213089342  0.3639500764101271  1.0000
  H   H11       1.0  0.5825409324658041  0.8187026469541082  0.47117866115375767  1.0000
  H   H12       1.0  0.41745541456636187  0.18129757267728044  0.5288208548336968  1.0000
  H   H13       1.0  0.25752560024398713  0.8420321183817874  0.4748489390151321  1.0000
  H   H14       1.0  0.7424717801428785  0.15796712809216015  0.5251528941474035  1.0000
  H   H15       1.0  0.11752845302054019  0.8904766004771216  0.6417364365895253  1.0000
  H   H16       1.0  0.8824692564994834  0.10952360811744907  0.358264634161138  1.0000
  H   H17       1.0  0.06877916235775665  0.6337672016844775  0.6386109321650295  1.0000
  H   H18       1.0  0.9312209380085862  0.3662320589806994  0.3613878276738803  1.0000
  H   H19       1.0  0.8727405466872895  0.5352658526574031  0.6441011095105722  1.0000
  H   H20       1.0  0.1272605857846968  0.46473244391653856  0.3558984217909043  1.0000
  C   C1        1.0  0.6704902287615584  0.4550828314247326  0.112425665517037  1.0000
  C   C2        1.0  0.3295095430961652  0.5449154625867078  0.8875746295900058  1.0000
  C   C3        1.0  0.7174105296745594  0.5278591307035114  0.21308345879254634  1.0000
  C   C4        1.0  0.2825895725653709  0.4721401163623467  0.7869176196151388  1.0000
  C   C5        1.0  0.6463873722042236  0.46587608199072134  0.3041262749338927  1.0000
  C   C6        1.0  0.3536116985545874  0.5341241246332585  0.6958748048674722  1.0000
  C   C7        1.0  0.6965058521333135  0.5229094680487022  0.4007744063836968  1.0000
  C   C8        1.0  0.30349523813060125  0.47709266084594737  0.599225157644625  1.0000
  C   C9        1.0  0.8185458852465857  0.6439027349095381  0.4077560651642855  1.0000
  C   C10       1.0  0.1814572686040847  0.35609747033575434  0.5922442689329159  1.0000
  C   C11       1.0  0.8894394866835854  0.7070067110181454  0.317899153825195  1.0000
  C   C12       1.0  0.1105619749215592  0.2929925476764268  0.6820996150644163  1.0000
  C   C13       1.0  0.8396079863675608  0.6505354950107785  0.2205699029325245  1.0000
  C   C14       1.0  0.16039314547989386  0.3494628060962696  0.7794288555127054  1.0000
  C   C15       1.0  0.9075859191604182  0.7293946577432207  0.1276604160117358  1.0000
  C   C16       1.0  0.09241183069408977  0.2706017321299682  0.8723383034433284  1.0000
  C   C17       1.0  0.6739890858191089  0.898965183730169  0.8250805737075951  1.0000
  C   C18       1.0  0.3260116746871304  0.10103598757694947  0.1749189798763382  1.0000
  C   C19       1.0  0.5545076158976983  0.8821543462895178  0.7294104721300344  1.0000
  C   C20       1.0  0.44549178274521495  0.11784683152131231  0.2705882995469437  1.0000
  C   C21       1.0  0.6305918272400605  0.8542501611552495  0.6353409533921024  1.0000
  C   C22       1.0  0.36940621078858266  0.14575101409306504  0.364658582090442  1.0000
  C   C23       1.0  0.5241474029517549  0.8395468649497174  0.5444340632423348  1.0000
  C   C24       1.0  0.47585302779679495  0.16045334876987735  0.45556547989721713  1.0000
  C   C25       1.0  0.33925956214458347  0.8527626915966023  0.5465964417174831  1.0000
  C   C26       1.0  0.6607364557544245  0.14723656591414877  0.4534038366818436  1.0000
  C   C27       1.0  0.2615782411117492  0.8798161342870683  0.6394051851228539  1.0000
  C   C28       1.0  0.7384184375516868  0.12018502933252506  0.360596659877757  1.0000
  C   C29       1.0  0.36769043031272025  0.8936059054985179  0.7312843385370655  1.0000
  C   C30       1.0  0.6323106612002577  0.10639621432991928  0.2687167712037635  1.0000
  C   C31       1.0  0.276268639580131  0.9203456784006788  0.8294168172760125  1.0000
  C   C32       1.0  0.7237324513083154  0.07965644596086456  0.1705835196085701  1.0000
  N   N1        1.0  0.6662054806508166  0.33515037099669337  0.7071287236391726  1.0000
  N   N2        1.0  0.33379767319986087  0.6648498342485992  0.2928716104580289  1.0000
  O   O1        1.0  0.8041296522641234  0.45805321831740264  0.0482609413469959  1.0000
  O   O2        1.0  0.19586875835479836  0.5419450776646285  0.9517393447093525  1.0000
  O   O3        1.0  0.942854358121629  0.6229123746996734  0.6656137769307335  1.0000
  O   O4        1.0  0.057144050623712354  0.37708593488167697  0.33438419055683966  1.0000
  O   O5        1.0  0.5057524803663968  0.38808083315165476  0.09745824503406911  1.0000
  O   O6        1.0  0.4942476212490022  0.6119184184473095  0.9025420605173551  1.0000
  O   O7        1.0  0.788009148934762  0.7344184362065956  0.0553474730099595  1.0000
  O   O8        1.0  0.2119912824383192  0.2655817729798925  0.9446528429858461  1.0000
  O   O9        1.0  0.07666043747557436  0.7922141708083642  0.12485214566461879  1.0000
  O   O10       1.0  0.9233448177982312  0.20778031019861484  0.8751435157808347  1.0000
  O   O11       1.0  0.8253604723074089  0.8606669080785775  0.8241073758705256  1.0000
  O   O12       1.0  0.1746402863252428  0.13933427682786703  0.17588985914463962  1.0000
  O   O13       1.0  0.6219929504590522  0.9521289484043716  0.9055418754073373  1.0000
  O   O14       1.0  0.3780071505318148  0.04787030772769187  0.0944576572878262  1.0000
  O   O15       1.0  0.26580967124697  0.03449141241399899  0.8467905935313098  1.0000
  O   O16       1.0  0.7341903887848885  0.9655116669725597  0.1532105176032132  1.0000
  O   O17       1.0  0.20583391285008898  0.8260870278296293  0.8883973218308086  1.0000
  O   O18       1.0  0.7941634247041806  0.17391605549812533  0.1116037712023115  1.0000
  O   O19       1.0  0.6939189482862747  0.40163199049364107  0.7916294703180924  1.0000
  O   O20       1.0  0.3060882899053254  0.5983682043067516  0.20837166378746025  1.0000
  O   O21       1.0  0.7296741085607082  0.3861669451964501  0.6236035721036117  1.0000
  O   O22       1.0  0.2703263234369047  0.6138332594569391  0.3763975167484547  1.0000
  O   O23       1.0  0.5764750984295405  0.22071478455860924  0.7107878795429556  1.0000
  O   O24       1.0  0.42352533356807237  0.7792854200947728  0.2892132093091107  1.0000
