data_image0
_chemical_formula_structural       Zn4H26C34SO19
_chemical_formula_sum              "Zn4 H26 C34 S1 O19"
_cell_length_a       10.843750301431589
_cell_length_b       10.764216784794662
_cell_length_c       17.987791642519607
_cell_angle_alpha    80.45804212107461
_cell_angle_beta     71.84686192645394
_cell_angle_gamma    81.11984757273216

_space_group_name_H-M_alt    "P 1"
_space_group_IT_number       1

loop_
  _space_group_symop_operation_xyz
  'x, y, z'

loop_
  _atom_site_type_symbol
  _atom_site_label
  _atom_site_symmetry_multiplicity
  _atom_site_fract_x
  _atom_site_fract_y
  _atom_site_fract_z
  _atom_site_occupancy
  Zn  Zn1       1.0  0.40498970507661614  0.4446540687113441  0.43763296156001996  1.0000
  Zn  Zn2       1.0  0.5746258439564046  0.3843659943811204  0.5580888707026759  1.0000
  Zn  Zn3       1.0  0.3479493401805769  0.6131316468271919  0.5785451848659591  1.0000
  Zn  Zn4       1.0  0.609919821768237  0.6256939355403404  0.4264248716040626  1.0000
  H   H1        1.0  0.8103750538133456  0.638774739108463  0.9179474444849517  1.0000
  H   H2        1.0  0.670257320803387  0.5779133324925069  0.8493319893860374  1.0000
  H   H3        1.0  0.718724035848837  0.47446006881951763  0.6564915353968316  1.0000
  H   H4        1.0  0.068802116279933  0.47426871215012056  0.0669484214415448  1.0000
  H   H5        1.0  0.10885049012124175  0.45456120333502525  0.15722926389958047  1.0000
  H   H6        1.0  0.9903971431921761  0.2584254385579213  0.20290434619360548  1.0000
  H   H7        1.0  0.8841049736574221  0.3931826260494801  0.17950852570231754  1.0000
  H   H8        1.0  0.9503150872990318  0.2788860082030808  0.1124804194961015  1.0000
  H   H9        1.0  0.30150077342620574  0.7223029621439776  0.16851705795426847  1.0000
  H   H10       1.0  0.3645391514112858  0.7002329948371937  0.2507978181061646  1.0000
  H   H11       1.0  0.1938839822324638  0.5587978091066643  0.327330886365985  1.0000
  H   H12       1.0  0.1467767282301153  0.3695659885481745  0.9591731647600527  1.0000
  H   H13       1.0  0.1207453266642418  0.7102538646556978  0.2956737108421592  1.0000
  H   H14       1.0  0.12851086962893282  0.5785144697604494  0.245822720470116  1.0000
  H   H15       1.0  0.3399006307532346  0.2654345024565643  0.2650784173148963  1.0000
  H   H16       1.0  0.22096024297844247  0.31058879442955595  0.2136379833105977  1.0000
  H   H17       1.0  0.29776030724655567  0.11376195401829392  0.1453188120224311  1.0000
  H   H18       1.0  0.41991297262306665  0.0708426720810351  0.1955883068686717  1.0000
  H   H19       1.0  0.25134137991206984  0.0737195762794016  0.2496575551680991  1.0000
  H   H20       1.0  0.937695723112931  0.510249710947754  0.6167212050214488  1.0000
  H   H21       1.0  0.018947128632639497  0.5085106291006554  0.4357988652910265  1.0000
  H   H22       1.0  0.3431702735054145  0.036476691940713096  0.5063778919259933  1.0000
  H   H23       1.0  0.6443017351135083  0.004288236530889795  0.46729936834641717  1.0000
  H   H24       1.0  0.19404340440361517  0.4264499783552865  0.8141551294828844  1.0000
  H   H25       1.0  0.8561046908439067  0.6582679428608175  0.04043995822959085  1.0000
  H   H26       1.0  0.7787432134477897  0.6492871005229048  0.18746001066192255  1.0000
  C   C1        1.0  0.814103421431831  0.5044132283383077  0.49943238832212705  1.0000
  C   C2        1.0  0.40499590617377385  0.3805161122160499  0.08010914377167208  1.0000
  C   C3        1.0  0.31188217536137586  0.3694465185246685  0.0439969116405621  1.0000
  C   C4        1.0  0.14018081330506504  0.5191008801326545  0.5388037791065443  1.0000
  C   C5        1.0  0.33828113795266285  0.40230356732109823  0.9603644792854737  1.0000
  C   C6        1.0  0.4652244255094474  0.4349767311961229  0.9135010628588843  1.0000
  C   C7        1.0  0.24278425837925965  0.39484138547547326  0.9233525564569475  1.0000
  C   C8        1.0  0.27031669612004816  0.42143740369039745  0.8425782849668622  1.0000
  C   C9        1.0  0.49924165498277506  0.4274780154880132  0.8307350233890746  1.0000
  C   C10       1.0  0.9985505581543705  0.5083429517101051  0.5557702381852464  1.0000
  C   C11       1.0  0.9520303842246707  0.5042731753914537  0.4954514510309878  1.0000
  C   C12       1.0  0.7211662383933727  0.6185128133818196  0.1552758208245066  1.0000
  C   C13       1.0  0.44252391772212  0.9889298005791787  0.49237469489847285  1.0000
  C   C14       1.0  0.5459385968198801  0.053395402768586585  0.4765455666305769  1.0000
  C   C15       1.0  0.5305829401339537  0.19190803739691376  0.47906912360241455  1.0000
  C   C16       1.0  0.45732749860453487  0.8488033074728845  0.49753377353417255  1.0000
  C   C17       1.0  0.417701075461693  0.4544886554652264  0.7080902683141588  1.0000
  C   C18       1.0  0.5580978612889851  0.5734762228144844  0.2859399530289792  1.0000
  C   C19       1.0  0.5964194815241085  0.5809932122673304  0.19891553440252346  1.0000
  C   C20       1.0  0.39995288895087105  0.43202107299403986  0.7953136923914457  1.0000
  C   C21       1.0  0.7648214365456737  0.6201428878662938  0.0747697459811149  1.0000
  C   C22       1.0  0.0866378736193312  0.4032466507619858  0.1153752578326532  1.0000
  C   C23       1.0  0.5175753718102668  0.5447489473535683  0.15867826846372424  1.0000
  C   C24       1.0  0.9711544241658813  0.3287906110920673  0.15499591876453422  1.0000
  C   C25       1.0  0.3120701898353317  0.6560168059524186  0.2205802675686428  1.0000
  C   C26       1.0  0.18105703203906387  0.6234004075301626  0.2756244554068559  1.0000
  C   C27       1.0  0.3171480435756067  0.2582383775806889  0.21061240348254268  1.0000
  C   C28       1.0  0.3223828669801634  0.12092417032453537  0.19903234735121342  1.0000
  C   C29       1.0  0.5719943992547414  0.5206933947920405  0.07840181660417761  1.0000
  C   C30       1.0  0.6912116128344082  0.5730709073273913  0.03486517554555488  1.0000
  C   C31       1.0  0.5063808415214054  0.46108134368754616  0.03737281170366909  1.0000
  C   C32       1.0  0.543220101560287  0.47945137526583187  0.9538211366181101  1.0000
  C   C33       1.0  0.6494416840167574  0.5518901285735182  0.9126221632655387  1.0000
  C   C34       1.0  0.7256884440617668  0.5889618477144722  0.9510480938762668  1.0000
  S   S1        1.0  0.6648627720132155  0.3772589048419164  0.7752686667435212  1.0000
  O   O1        1.0  0.4839322320954267  0.5195040208779743  0.500826505052089  1.0000
  O   O2        1.0  0.4631339473625573  0.36329727564812936  0.6670299685265846  1.0000
  O   O3        1.0  0.6249505041117089  0.6295923579620392  0.3154518989648025  1.0000
  O   O4        1.0  0.37725249234807023  0.5667963246609844  0.6831437881819438  1.0000
  O   O5        1.0  0.4652776458648376  0.507370727896422  0.3262602084906164  1.0000
  O   O6        1.0  0.7487809753956397  0.3587239863149065  0.8249630048259391  1.0000
  O   O7        1.0  0.6604631525298359  0.27461326566869093  0.7343026443858633  1.0000
  O   O8        1.0  0.7048265089608423  0.4980472060048128  0.7105880665552958  1.0000
  O   O9        1.0  0.19847345057062427  0.31421607331279233  0.0841185413125416  1.0000
  O   O10       1.0  0.38654414103189794  0.540275460675744  0.19250388067496263  1.0000
  O   O11       1.0  0.4175548435958376  0.3223068383358125  0.15015045198136787  1.0000
  O   O12       1.0  0.4388557566708613  0.25838808307977246  0.4555531424805892  1.0000
  O   O13       1.0  0.5679069789065849  0.7953263480741695  0.46026377373144817  1.0000
  O   O14       1.0  0.7338829615216939  0.45368952618450453  0.562473443226068  1.0000
  O   O15       1.0  0.17359298203040646  0.5637636042695532  0.5902246608709304  1.0000
  O   O16       1.0  0.7851630142472672  0.5540002361029152  0.4369843265626089  1.0000
  O   O17       1.0  0.21505149714820965  0.4843098668364334  0.4737073578623736  1.0000
  O   O18       1.0  0.611784970165111  0.23157276831729226  0.5060561898983239  1.0000
  O   O19       1.0  0.35675681417592386  0.7946244116841967  0.5394173866988367  1.0000
