data_image0
_chemical_formula_structural       Gd2H18C9O24
_chemical_formula_sum              "Gd2 H18 C9 O24"
_cell_length_a       8.808885989483395
_cell_length_b       8.808918327552172
_cell_length_c       8.80890281236512
_cell_angle_alpha    66.24645952929461
_cell_angle_beta     66.24622826683927
_cell_angle_gamma    66.24617757587943

_space_group_name_H-M_alt    "P 1"
_space_group_IT_number       1

loop_
  _space_group_symop_operation_xyz
  'x, y, z'

loop_
  _atom_site_type_symbol
  _atom_site_label
  _atom_site_symmetry_multiplicity
  _atom_site_fract_x
  _atom_site_fract_y
  _atom_site_fract_z
  _atom_site_occupancy
  Gd  Gd1       1.0  0.7317574054156708  0.7317541453028583  0.7317549264875681  1.0000
  Gd  Gd2       1.0  0.26824461326382487  0.2682463659815468  0.2682445152788162  1.0000
  H   H1        1.0  0.6893474024333912  0.8247793873592644  0.050285144933859285  1.0000
  H   H2        1.0  0.05028539737158868  0.6893485287458887  0.8247794230204378  1.0000
  H   H3        1.0  0.8247789517233882  0.050283187637283816  0.6893458551202087  1.0000
  H   H4        1.0  0.9497136843101543  0.1752191138633563  0.31065125873759314  1.0000
  H   H5        1.0  0.17521981214746063  0.3106531180252858  0.9497167162826017  1.0000
  H   H6        1.0  0.31065125653178416  0.9497168939664745  0.17522090621961448  1.0000
  H   H7        1.0  0.723891309170753  0.7837040155293169  0.3615635397362312  1.0000
  H   H8        1.0  0.3615641442545651  0.7238927035155529  0.783703644572661  1.0000
  H   H9        1.0  0.7837025433824889  0.36156491694134035  0.7238930338521357  1.0000
  H   H10       1.0  0.6384361522655624  0.2162966514632672  0.2761079930621548  1.0000
  H   H11       1.0  0.2162949211088758  0.2761091313519231  0.638437241376856  1.0000
  H   H12       1.0  0.27610793282940443  0.6384354046273729  0.2162960083712377  1.0000
  H   H13       1.0  0.5407345827088434  0.8745515190711187  0.4751998723959687  1.0000
  H   H14       1.0  0.475197455731994  0.5407375796318447  0.8745506678621383  1.0000
  H   H15       1.0  0.8745501097621045  0.47519811518247224  0.5407353555984713  1.0000
  H   H16       1.0  0.5248008197061083  0.12545137591769873  0.45926449799886626  1.0000
  H   H17       1.0  0.12545275030966238  0.4592641855144068  0.524800867475129  1.0000
  H   H18       1.0  0.4592650061635766  0.5248000515092103  0.12544983041697572  1.0000
  C   C1        1.0  0.4999981758476296  0.03626933688895661  0.9637317718276464  1.0000
  C   C2        1.0  0.9637305400703582  0.500001391608464  0.03627067551522603  1.0000
  C   C3        1.0  0.03627121076691954  0.9637300354050427  0.499996833945751  1.0000
  C   C4        1.0  0.4176247119778367  0.08557578319743445  0.8163807358283179  1.0000
  C   C5        1.0  0.8163793251991791  0.41762720277665727  0.08557372175244632  1.0000
  C   C6        1.0  0.08558179665594415  0.8163748484755119  0.4176259883849909  1.0000
  C   C7        1.0  0.1836194959193094  0.9144246791741678  0.5823715437717424  1.0000
  C   C8        1.0  0.9144239655424183  0.5823748974459378  0.18362075627059948  1.0000
  C   C9        1.0  0.5823716733252695  0.1836202299972314  0.9144246655405155  1.0000
  O   O1        1.0  0.6212192926687689  0.873510250653631  0.9621255370984656  1.0000
  O   O2        1.0  0.9621253453064256  0.6212198194464379  0.8735116442055996  1.0000
  O   O3        1.0  0.873510893332366  0.9621228414124375  0.6212176463027602  1.0000
  O   O4        1.0  0.0378752465922858  0.1264900313718087  0.3787776376734797  1.0000
  O   O5        1.0  0.1264915732205623  0.3787817115787178  0.03787519752893324  1.0000
  O   O6        1.0  0.37878035721885084  0.03787558233772611  0.12649253851130032  1.0000
  O   O7        1.0  0.6638699465906085  0.8194401613832981  0.47033945047528647  1.0000
  O   O8        1.0  0.4703390950397121  0.6638706778778741  0.8194425395806989  1.0000
  O   O9        1.0  0.8194397008526695  0.4703391460250971  0.6638696224292245  1.0000
  O   O10       1.0  0.5296609389821753  0.18055974192333932  0.33613064714943874  1.0000
  O   O11       1.0  0.18055857031855993  0.3361296343095929  0.5296618661560615  1.0000
  O   O12       1.0  0.3361298710893194  0.5296595797912433  0.18056072128922546  1.0000
  O   O13       1.0  0.5058024619112942  0.010383553099195798  0.6990138597783542  1.0000
  O   O14       1.0  0.6990133280049449  0.5058061566262566  0.010383366456821395  1.0000
  O   O15       1.0  0.010387780639575782  0.6990125986825432  0.5058027735354217  1.0000
  O   O16       1.0  0.30098497730338636  0.9896149693738397  0.49419604697509806  1.0000
  O   O17       1.0  0.9896124767312313  0.4941947817613723  0.3009899098589202  1.0000
  O   O18       1.0  0.4941958535987326  0.3009868763998823  0.9896148545073659  1.0000
  O   O19       1.0  0.2741908935482443  0.20203249195694895  0.8188445753850644  1.0000
  O   O20       1.0  0.8188441346666195  0.2741929643600047  0.2020318792190495  1.0000
  O   O21       1.0  0.2020354021535552  0.8188448854995017  0.27418667845952166  1.0000
  O   O22       1.0  0.18115768257418802  0.797964545045325  0.7258066377776374  1.0000
  O   O23       1.0  0.7979650415590527  0.7258094924730756  0.1811555137919498  1.0000
  O   O24       1.0  0.7258083022368139  0.18115584516905872  0.797964075013411  1.0000
