data_image0
_chemical_formula_structural       Ni2H32C36N24O4
_chemical_formula_sum              "Ni2 H32 C36 N24 O4"
_cell_length_a       8.61155355396433
_cell_length_b       8.821280172594724
_cell_length_c       13.711554385033436
_cell_angle_alpha    89.99766663664266
_cell_angle_beta     90.0091278747938
_cell_angle_gamma    91.30882607767018

_space_group_name_H-M_alt    "P 1"
_space_group_IT_number       1

loop_
  _space_group_symop_operation_xyz
  'x, y, z'

loop_
  _atom_site_type_symbol
  _atom_site_label
  _atom_site_symmetry_multiplicity
  _atom_site_fract_x
  _atom_site_fract_y
  _atom_site_fract_z
  _atom_site_occupancy
  Ni  Ni1       1.0  0.9999992512174884  9.093529698103477e-06  2.187735567800004e-06  1.0000
  Ni  Ni2       1.0  0.50000131642647  1.8171549882995212e-06  0.5000010889580865  1.0000
  H   H1        1.0  0.06510764392297119  0.3119577879217985  0.8639654260688449  1.0000
  H   H2        1.0  0.4348804564037394  0.6880268465058421  0.36396453292152847  1.0000
  H   H3        1.0  0.9348902978179936  0.6880499257465333  0.1360357488410031  1.0000
  H   H4        1.0  0.5651142921341332  0.3119616434168436  0.6360475818868212  1.0000
  H   H5        1.0  0.5808540999586427  0.3059312446620552  0.8091957654268356  1.0000
  H   H6        1.0  0.9190967032841897  0.6941100959201023  0.30922320659826863  1.0000
  H   H7        1.0  0.4191464189966254  0.694082088758698  0.1908010336173049  1.0000
  H   H8        1.0  0.08089608275666649  0.3058863783777212  0.6907779682999193  1.0000
  H   H9        1.0  0.6511676605754744  0.07406632288088132  0.937385456397145  1.0000
  H   H10       1.0  0.8488354733054989  0.9259707668133146  0.4373903040577006  1.0000
  H   H11       1.0  0.3488228270702081  0.9259562984154929  0.0626179058549994  1.0000
  H   H12       1.0  0.1511586273663212  0.0740290841559812  0.5626108708340071  1.0000
  H   H13       1.0  0.1331852624996088  0.7219502686785191  0.8788058832599931  1.0000
  H   H14       1.0  0.36682447749392827  0.2780573765152853  0.37882019894821894  1.0000
  H   H15       1.0  0.8667936509505908  0.27804763081827827  0.1212003962042019  1.0000
  H   H16       1.0  0.6331637703190438  0.7219414622485162  0.6211846222724519  1.0000
  H   H17       1.0  0.4979905970683803  0.9992253620435605  0.7655082070107682  1.0000
  H   H18       1.0  0.0019888252391737997  0.0007664165590029  0.2654995108908906  1.0000
  H   H19       1.0  0.5019989942859339  0.0007518886653486043  0.23449369741898352  1.0000
  H   H20       1.0  0.9980027494182906  0.9992289483379722  0.734504581223888  1.0000
  H   H21       1.0  0.29592665092349074  0.1767348139785838  0.8729052699184906  1.0000
  H   H22       1.0  0.20411688450293042  0.8232620560406048  0.37292273501380185  1.0000
  H   H23       1.0  0.7040717311287706  0.823257004213815  0.1270937173685311  1.0000
  H   H24       1.0  0.7958793830418571  0.17673434531872803  0.6270806279698249  1.0000
  H   H25       1.0  0.8420708729762225  0.4215340567316447  0.76039920172763  1.0000
  H   H26       1.0  0.657887416981147  0.5784742860729964  0.2604283553972451  1.0000
  H   H27       1.0  0.15793266414038953  0.5784690008984372  0.23959540969951126  1.0000
  H   H28       1.0  0.34210637638501146  0.42151876282693485  0.7395808420383574  1.0000
  H   H29       1.0  0.38648766438821974  0.7307252957801892  0.7833218689058017  1.0000
  H   H30       1.0  0.11347287423813408  0.26927324824552573  0.2833127353138991  1.0000
  H   H31       1.0  0.6134870481097394  0.26925680541364017  0.21668441067177477  1.0000
  H   H32       1.0  0.8865152708570675  0.7307233231916683  0.7166928152562806  1.0000
  C   C1        1.0  0.7571480403525045  0.7513690536936154  0.925119162707347  1.0000
  C   C2        1.0  0.7428564895193048  0.24862405379160188  0.4251444250201359  1.0000
  C   C3        1.0  0.24287488440816668  0.24865175376790927  0.07486669747430602  1.0000
  C   C4        1.0  0.2571629850848752  0.7513718616245628  0.5748531044658876  1.0000
  C   C5        1.0  0.5633358334199201  0.57556877656706  0.9569602928792521  1.0000
  C   C6        1.0  0.9366894467312648  0.4244208434187584  0.4569642039027286  1.0000
  C   C7        1.0  0.4366937963356392  0.42444621682970773  0.0430233797599087  1.0000
  C   C8        1.0  0.06333768729780329  0.5755646990337697  0.5430289502300738  1.0000
  C   C9        1.0  0.4224391768632714  0.4818255709027639  0.9421859997392448  1.0000
  C   C10       1.0  0.0775769139215186  0.5181701685942954  0.4422054341773745  1.0000
  C   C11       1.0  0.5775906587516885  0.5181939571024331  0.0577991314486042  1.0000
  C   C12       1.0  0.9224479506227539  0.48181655613041163  0.5577869905249386  1.0000
  C   C13       1.0  0.9439661943418188  0.2752228639932568  0.8657327487494086  1.0000
  C   C14       1.0  0.5560156853283403  0.7247812577206858  0.3657354072435838  1.0000
  C   C15       1.0  0.05602968366778781  0.724790566566874  0.1342684259667166  1.0000
  C   C16       1.0  0.4439803770987751  0.275210608951852  0.6342716023748239  1.0000
  C   C17       1.0  0.6905342763522739  0.271642325088088  0.8392808137659103  1.0000
  C   C18       1.0  0.8094349397059091  0.7283808684915273  0.3392976409618242  1.0000
  C   C19       1.0  0.3094626588051099  0.7283688138997704  0.1607174437899914  1.0000
  C   C20       1.0  0.19055900694221606  0.2716155814822727  0.6607049926101001  1.0000
  C   C21       1.0  0.7269829192833156  0.15738321828879262  0.9026048006257029  1.0000
  C   C22       1.0  0.7730049526368603  0.842643699755847  0.40261064714768224  1.0000
  C   C23       1.0  0.27300968329367253  0.8426348197958761  0.09739710317752072  1.0000
  C   C24       1.0  0.22699015440662154  0.1573527259163114  0.5973919864741289  1.0000
  C   C25       1.0  0.2011001700626736  0.8233714127944652  0.861975839424801  1.0000
  C   C26       1.0  0.2989139619763179  0.1766365547301447  0.36198520477913837  1.0000
  C   C27       1.0  0.798880961460455  0.17662417077245615  0.13803116948867003  1.0000
  C   C28       1.0  0.7010777668108049  0.8233622111511423  0.6380181579673518  1.0000
  C   C29       1.0  0.39335763202598883  0.9702688229186692  0.8057666787420603  1.0000
  C   C30       1.0  0.1066294129654679  0.0297342871602311  0.30576218032619107  1.0000
  C   C31       1.0  0.606632010740192  0.02970956144794462  0.1942352256688977  1.0000
  C   C32       1.0  0.8933633733932638  0.9702621871040121  0.6942411825077742  1.0000
  C   C33       1.0  0.29111125230947715  0.0559503163792101  0.8582094769141477  1.0000
  C   C34       1.0  0.20891586371787702  0.9440608761841461  0.3582148584113797  1.0000
  C   C35       1.0  0.7088800135588899  0.9440382466051175  0.1417924273776023  1.0000
  C   C36       1.0  0.7910804551328212  0.05593665884408952  0.6417877752415322  1.0000
  N   N1        1.0  0.8659466536056969  0.8316377348109469  0.9403474282909486  1.0000
  N   N2        1.0  0.6340674296442259  0.16839110910449762  0.4403868111620071  1.0000
  N   N3        1.0  0.1340660348336726  0.16838782582820502  0.0596493710454027  1.0000
  N   N4        1.0  0.36594766117961086  0.8316105717283763  0.5596158232139743  1.0000
  N   N5        1.0  0.636967731048081  0.6707533688505974  0.8970924530652058  1.0000
  N   N6        1.0  0.8630430702456025  0.32922554571640467  0.39710746934746066  1.0000
  N   N7        1.0  0.363061744048025  0.32925822361783474  0.10288830238263101  1.0000
  N   N8        1.0  0.1369760956754362  0.6707635677759144  0.6028886016274485  1.0000
  N   N9        1.0  0.8852581072490723  0.16036158054044594  0.9179627755018772  1.0000
  N   N10       1.0  0.6147437439469883  0.8396442416346659  0.4179581636752517  1.0000
  N   N11       1.0  0.11473787422004018  0.8396541172679265  0.08204277504821532  1.0000
  N   N12       1.0  0.38525378702882307  0.1603544027160524  0.5820466579445309  1.0000
  N   N13       1.0  0.828589884939113  0.3456296186066155  0.8170099525381289  1.0000
  N   N14       1.0  0.6713852641788378  0.6543860557516014  0.3170265064347292  1.0000
  N   N15       1.0  0.17141042847462987  0.6543791801721214  0.18298757589309395  1.0000
  N   N16       1.0  0.3286073684740884  0.3456070174835447  0.682980503015216  1.0000
  N   N17       1.0  0.1715411539562268  0.9630336211679805  0.8926738392841929  1.0000
  N   N18       1.0  0.3284707036604289  0.036982716427822  0.3926704716505044  1.0000
  N   N19       1.0  0.8284515807787116  0.0369617194609404  0.10732806494470991  1.0000
  N   N20       1.0  0.6715233458114369  0.9630160008613873  0.6073321618838392  1.0000
  N   N21       1.0  0.33380062180743403  0.8243217153154063  0.8090895873121441  1.0000
  N   N22       1.0  0.1661718411637452  0.17567140572640483  0.3090869494622411  1.0000
  N   N23       1.0  0.666183630700786  0.17566585977625243  0.19091523394675394  1.0000
  N   N24       1.0  0.8338209450890232  0.8243250685490295  0.690915684059796  1.0000
  O   O1        1.0  0.3296770120979389  0.46040038303009834  0.8726082749048204  1.0000
  O   O2        1.0  0.170322190255014  0.5395940183330908  0.3726428424563154  1.0000
  O   O3        1.0  0.6703449583386956  0.5396249833191006  0.1273805023994754  1.0000
  O   O4        1.0  0.8297014109641979  0.46039046338903244  0.6273488529217631  1.0000
