data_image0
_chemical_formula_structural       ZnSiH16C24N8O8F6
_chemical_formula_sum              "Zn1 Si1 H16 C24 N8 O8 F6"
_cell_length_a       7.644585693879445
_cell_length_b       13.732753333235207
_cell_length_c       13.732767148530904
_cell_angle_alpha    89.01168049664362
_cell_angle_beta     82.19791556797391
_cell_angle_gamma    82.19239522804727

_space_group_name_H-M_alt    "P 1"
_space_group_IT_number       1

loop_
  _space_group_symop_operation_xyz
  'x, y, z'

loop_
  _atom_site_type_symbol
  _atom_site_label
  _atom_site_symmetry_multiplicity
  _atom_site_fract_x
  _atom_site_fract_y
  _atom_site_fract_z
  _atom_site_occupancy
  Zn  Zn1       1.0  0.4999830613300275  0.4988794841000868  0.5011297993810118  1.0000
  Si  Si1       1.0  0.9999898356006366  0.499417385060873  0.5005787221309177  1.0000
  H   H1        1.0  0.27100809456268127  0.5704053973246133  0.3459103022612453  1.0000
  H   H2        1.0  0.28095265592209967  0.5791879707493733  0.167583280258917  1.0000
  H   H3        1.0  0.8241404346631285  0.4288845136923383  0.14307590268189327  1.0000
  H   H4        1.0  0.7950505611399591  0.4341186354163965  0.3250611004776189  1.0000
  H   H5        1.0  0.20678063868889748  0.430873110229676  0.8578284724808682  1.0000
  H   H6        1.0  0.6809429053034465  0.5773773622894538  0.8343778837632383  1.0000
  H   H7        1.0  0.6965591015036524  0.568342506747797  0.6557661875219265  1.0000
  H   H8        1.0  0.23415033644222652  0.4359921275521046  0.6756919640599292  1.0000
  H   H9        1.0  0.30344068648064126  0.34424935558936187  0.43164736876497045  1.0000
  H   H10       1.0  0.3190933443646671  0.16564343935843334  0.4225900829085133  1.0000
  H   H11       1.0  0.793199205250829  0.1421667701768783  0.5691658329363063  1.0000
  H   H12       1.0  0.765824662517275  0.32430408174906217  0.5640528686959669  1.0000
  H   H13       1.0  0.17578629939176696  0.8569695888752731  0.571020537768227  1.0000
  H   H14       1.0  0.7190711465313412  0.8324103073234639  0.4208397730620348  1.0000
  H   H15       1.0  0.7289801432799409  0.6540812643824765  0.4296340456955007  1.0000
  H   H16       1.0  0.20488156252316267  0.67498123695848  0.565803228098396  1.0000
  C   C1        1.0  0.39213292394442323  0.5403547048523193  0.2986258843692012  1.0000
  C   C2        1.0  0.39716113326441865  0.5425997449533851  0.19724980499996994  1.0000
  C   C3        1.0  0.5515729418171204  0.5002986925131195  0.1374759432025883  1.0000
  C   C4        1.0  0.6982913792614197  0.4610632770633813  0.1844200792488451  1.0000
  C   C5        1.0  0.683017652070717  0.46282921446275077  0.2865042135700477  1.0000
  C   C6        1.0  0.5635570635439535  0.4976713825851888  0.029941100259428293  1.0000
  C   C7        1.0  0.4344942238291694  0.4991125184709304  0.9713499450461853  1.0000
  C   C8        1.0  0.3178871219556498  0.46227683929078733  0.8166052985348173  1.0000
  C   C9        1.0  0.4462778130376961  0.5006338946026786  0.8637331948801972  1.0000
  C   C10       1.0  0.5818884651748063  0.5416149563826308  0.8042591635256072  1.0000
  C   C11       1.0  0.58876755101155  0.5391707738778848  0.7028177882687386  1.0000
  C   C12       1.0  0.33287020023988134  0.4638910749808217  0.7144890544500129  1.0000
  C   C13       1.0  0.4112377442507054  0.2971903563106792  0.4608198983172897  1.0000
  C   C14       1.0  0.41812471451206074  0.19574925596719334  0.4583742451383159  1.0000
  C   C15       1.0  0.5537172693699048  0.13626812822882783  0.4993867917300107  1.0000
  C   C16       1.0  0.6821046778008081  0.18338994529399594  0.5377440422546228  1.0000
  C   C17       1.0  0.6671148823482652  0.285515625854039  0.536133384887151  1.0000
  C   C18       1.0  0.5654754359269559  0.02864661405494219  0.5009148002753605  1.0000
  C   C19       1.0  0.4364205082426904  0.9700652698064756  0.5022872389475168  1.0000
  C   C20       1.0  0.30165757828218176  0.8156113026566559  0.5388727166570035  1.0000
  C   C21       1.0  0.4484078174130629  0.8625342867214912  0.4996700682052406  1.0000
  C   C22       1.0  0.6028313418941452  0.8027557408781051  0.45739443205485486  1.0000
  C   C23       1.0  0.607845788939535  0.7013765098126115  0.45965488167348667  1.0000
  C   C24       1.0  0.3169202378153599  0.7135271223010379  0.5371079295938799  1.0000
  N   N1        1.0  0.5316112935425608  0.500563197381446  0.342786987797261  1.0000
  N   N2        1.0  0.46748167345744923  0.5005216866494279  0.6585107109083809  1.0000
  N   N3        1.0  0.5324960943502787  0.34149830939156095  0.4995043895553977  1.0000
  N   N4        1.0  0.46835419780927606  0.6572301798106823  0.4994212134610548  1.0000
  N   N5        1.0  0.7502139416458248  0.4931212560326656  0.979879936545977  1.0000
  N   N6        1.0  0.24821273131855295  0.5006688863533099  0.021020066186757384  1.0000
  N   N7        1.0  0.7517303423505196  0.9789615261849961  0.49946801912131616  1.0000
  N   N8        1.0  0.24977407219941478  0.020133475448460593  0.5067124957590393  1.0000
  O   O1        1.0  0.8128273739956454  0.5716306640650187  0.9745778631509765  1.0000
  O   O2        1.0  0.8276689775433538  0.4123431465715867  0.9498255332136907  1.0000
  O   O3        1.0  0.15579734205648071  0.5819005915221709  0.026559997462932493  1.0000
  O   O4        1.0  0.2005820086762711  0.4217590608754093  0.05058928105796669  1.0000
  O   O5        1.0  0.8443118662720437  0.9733797807637429  0.4182897311808986  1.0000
  O   O6        1.0  0.7991771390302629  0.949426933102295  0.5784303872978285  1.0000
  O   O7        1.0  0.18733133159636137  0.025448130428223702  0.4281495003209556  1.0000
  O   O8        1.0  0.17217152899996074  0.0501918151049097  0.5874548203142425  1.0000
  F   F1        1.0  0.22603171948657058  0.5040306787721677  0.5051999786313957  1.0000
  F   F2        1.0  0.7739535867058364  0.4947734874726066  0.4959806496073326  1.0000
  F   F3        1.0  0.9999589797637252  0.5882431980092094  0.4117448306471516  1.0000
  F   F4        1.0  2.7204478740778854e-05  0.41112739530856857  0.5888668473667665  1.0000
  F   F5        1.0  0.05233996395601541  0.41171061714928203  0.4111218736942917  1.0000
  F   F6        1.0  0.9476407533494179  0.5888730233856451  0.5882786383792648  1.0000
