data_image0
_chemical_formula_structural       Cd2H24C30N8O8
_chemical_formula_sum              "Cd2 H24 C30 N8 O8"
_cell_length_a       7.915683046463624
_cell_length_b       9.556315750343616
_cell_length_c       10.913823309041788
_cell_angle_alpha    101.53243554673404
_cell_angle_beta     104.6348768755581
_cell_angle_gamma    104.32688640789972

_space_group_name_H-M_alt    "P 1"
_space_group_IT_number       1

loop_
  _space_group_symop_operation_xyz
  'x, y, z'

loop_
  _atom_site_type_symbol
  _atom_site_label
  _atom_site_symmetry_multiplicity
  _atom_site_fract_x
  _atom_site_fract_y
  _atom_site_fract_z
  _atom_site_occupancy
  Cd  Cd1       1.0  0.22149172341732992  0.3417423313634345  0.3512084090582944  1.0000
  Cd  Cd2       1.0  0.7785058785404289  0.6582587807453849  0.6487911493830367  1.0000
  H   H1        1.0  0.16468590126320493  0.5083368674095683  0.6253567526413732  1.0000
  H   H2        1.0  0.8353125435167711  0.4916631064098242  0.374643684036485  1.0000
  H   H3        1.0  0.19421574861387814  0.0652892073338265  0.5361971728199605  1.0000
  H   H4        1.0  0.8057862123083196  0.9347129899587331  0.46380247918111184  1.0000
  H   H5        1.0  0.09819745415499166  0.11932185266108056  0.764239148319511  1.0000
  H   H6        1.0  0.901803153819138  0.8806769697729069  0.23576058074146286  1.0000
  H   H7        1.0  0.06854335835047462  0.5273163562489529  0.8124719897979559  1.0000
  H   H8        1.0  0.9314554915525407  0.47268135444845444  0.18752813160141812  1.0000
  H   H9        1.0  0.9221025418953345  0.3555117767991334  0.8177865267409813  1.0000
  H   H10       1.0  0.07790193753088909  0.6444870055349129  0.18221667437092745  1.0000
  H   H11       1.0  0.38727981839076614  0.6485183339703157  0.9987687856724462  1.0000
  H   H12       1.0  0.6127256061722406  0.35148269866041904  0.0012304016608055523  1.0000
  H   H13       1.0  0.49442042411825343  0.6032642161681638  0.24792718345119621  1.0000
  H   H14       1.0  0.5055863135422953  0.39674019096023033  0.7520755844271177  1.0000
  H   H15       1.0  0.026368177965807097  0.2410525939013155  0.003746791462468496  1.0000
  H   H16       1.0  0.9736355011769644  0.7589507147669182  0.9962561258051748  1.0000
  H   H17       1.0  0.7659711633748568  0.9170717421265734  0.9741584755933204  1.0000
  H   H18       1.0  0.23402815411523645  0.0829270936740656  0.025840096117349293  1.0000
  H   H19       1.0  0.5487020685974427  0.22014962008334044  0.18653361060886195  1.0000
  H   H20       1.0  0.4512963535690274  0.779846965871741  0.8134644028742456  1.0000
  H   H21       1.0  0.2856358026341326  0.8010152456794656  0.3003406470892642  1.0000
  H   H22       1.0  0.7143609465387682  0.19898700462855604  0.6996589475167738  1.0000
  H   H23       1.0  0.6204117102711705  0.9326980483320071  0.706057058474144  1.0000
  H   H24       1.0  0.3795832907932564  0.06730309032965921  0.293942014069053  1.0000
  C   C1        1.0  0.16157339579455504  0.39522343318881076  0.6291790683093337  1.0000
  C   C2        1.0  0.8384272022169411  0.6047753891549518  0.3708215751528811  1.0000
  C   C3        1.0  0.17463447998472498  0.1659494458399493  0.5884651047769935  1.0000
  C   C4        1.0  0.8253648375053686  0.83404938996069  0.4115334669336689  1.0000
  C   C5        1.0  0.1287273828625786  0.1918397536835599  0.7022606374794336  1.0000
  C   C6        1.0  0.871273225111544  0.8081590687504274  0.29773909158154044  1.0000
  C   C7        1.0  0.0638372986380347  0.4168924822623268  0.828286810165835  1.0000
  C   C8        1.0  0.9361619989267993  0.5831063533578558  0.17171359034731637  1.0000
  C   C9        1.0  0.33104495947007  0.558487136729333  0.03799880859145329  1.0000
  C   C10       1.0  0.6689608004775563  0.44151163214782935  0.9620064642720079  1.0000
  C   C11       1.0  0.3822297046378154  0.5339723425866582  0.15989745194629276  1.0000
  C   C12       1.0  0.6177710156135062  0.46602986852368394  0.8400964706982491  1.0000
  C   C13       1.0  0.1409387672002183  0.3447053849286732  0.03858181676238099  1.0000
  C   C14       1.0  0.8590657746900447  0.6552967856305897  0.9614201499393074  1.0000
  C   C15       1.0  0.8665302700946426  0.15879840170102003  0.18590273422546494  1.0000
  C   C16       1.0  0.1334677469487815  0.8412004473760463  0.8140955945361341  1.0000
  C   C17       1.0  0.6767704529105741  0.07609868460721002  0.09061017154999013  1.0000
  C   C18       1.0  0.323223152667012  0.9238956911511238  0.9093883836608395  1.0000
  C   C19       1.0  0.6483117308029875  0.9517532399569717  0.985572479228196  1.0000
  C   C20       1.0  0.3516884095840637  0.04824445737378371  0.01442879952148959  1.0000
  C   C21       1.0  0.5269533591158505  0.12427826659416039  0.10419398415923094  1.0000
  C   C22       1.0  0.473046333609389  0.8757183058138196  0.8958070154766772  1.0000
  C   C23       1.0  0.387045871247352  0.6879137369161797  0.5055688541341183  1.0000
  C   C24       1.0  0.6129512830485949  0.3120862502698643  0.49443042519343544  1.0000
  C   C25       1.0  0.4439383107124683  0.849562609504396  0.5036039300569825  1.0000
  C   C26       1.0  0.5560592812826569  0.15043850251419852  0.4963965427855896  1.0000
  C   C27       1.0  0.3779792200749911  0.8892525203973207  0.3880474396334178  1.0000
  C   C28       1.0  0.6220166337742866  0.11074748006514308  0.6119515967450653  1.0000
  C   C29       1.0  0.5674702286546632  0.9622391800242909  0.6159482084391356  1.0000
  C   C30       1.0  0.4325256152319809  0.0377608203479483  0.3840517423405955  1.0000
  N   N1        1.0  0.19445714426913696  0.293347068671487  0.543965849896658  1.0000
  N   N2        1.0  0.8055413005108389  0.7066529051478979  0.4560345867812074  1.0000
  N   N3        1.0  0.12227837657803059  0.3382324339780567  0.7268965452994323  1.0000
  N   N4        1.0  0.8777213786112483  0.6617675266551332  0.2731032199262557  1.0000
  N   N5        1.0  0.1772648241560049  0.43711900984123986  0.9618225962595871  1.0000
  N   N6        1.0  0.8227410281435467  0.5628831475318208  0.038178698989931065  1.0000
  N   N7        1.0  0.26253424356330163  0.40040146079930855  0.1587805377663543  1.0000
  N   N8        1.0  0.7374689879176587  0.5996007229461499  0.8412221003875117  1.0000
  O   O1        1.0  0.993584815136181  0.09817340076349271  0.18923140274200992  1.0000
  O   O2        1.0  0.006416270387653544  0.9018265468639514  0.8107658622290185  1.0000
  O   O3        1.0  0.8942902933330501  0.29071511518394993  0.2583541346207667  1.0000
  O   O4        1.0  0.10570642326371883  0.7092837471695361  0.7416439511917615  1.0000
  O   O5        1.0  0.24939530128351345  0.596561541271491  0.4105113541973679  1.0000
  O   O6        1.0  0.7506031634217294  0.4034384327283503  0.5894872536780085  1.0000
  O   O7        1.0  0.4777839205380161  0.650764840857903  0.6010885310834198  1.0000
  O   O8        1.0  0.5222136714571092  0.34923627116069156  0.39891194175915246  1.0000
