data_image0
_chemical_formula_structural       In4H40C64N8O32
_chemical_formula_sum              "In4 H40 C64 N8 O32"
_cell_length_a       15.405219571406718
_cell_length_b       15.203293174617176
_cell_length_c       18.019340323485665
_cell_angle_alpha    77.49006631035694
_cell_angle_beta     64.69688942732292
_cell_angle_gamma    59.55316293657758

_space_group_name_H-M_alt    "P 1"
_space_group_IT_number       1

loop_
  _space_group_symop_operation_xyz
  'x, y, z'

loop_
  _atom_site_type_symbol
  _atom_site_label
  _atom_site_symmetry_multiplicity
  _atom_site_fract_x
  _atom_site_fract_y
  _atom_site_fract_z
  _atom_site_occupancy
  In  In1       1.0  0.43587893154925444  0.7499248856181565  0.12846689513816056  1.0000
  In  In2       1.0  0.8141975402975208  0.7500179777055674  0.3714649991317741  1.0000
  In  In3       1.0  0.5641317142218443  0.2500619389377761  0.8715051391971187  1.0000
  In  In4       1.0  0.1858108986271034  0.2500558201647393  0.6285424691958141  1.0000
  H   H1        1.0  0.2308489896138258  0.8880543124349527  0.9584239828518973  1.0000
  H   H2        1.0  0.8109103147873284  0.6120035196477999  0.9585771158240846  1.0000
  H   H3        1.0  0.881172594063429  0.888003071492477  0.5415658836035817  1.0000
  H   H4        1.0  0.5771652398333629  0.6119828069389398  0.5413820062776581  1.0000
  H   H5        1.0  0.7691500234126211  0.11198515579523159  0.04154709974822172  1.0000
  H   H6        1.0  0.18909444222907013  0.38801305729754176  0.041442940493027394  1.0000
  H   H7        1.0  0.11885844751000733  0.11202418506664459  0.45845006388306325  1.0000
  H   H8        1.0  0.4229185043706424  0.3879948582404182  0.45857520427853865  1.0000
  H   H9        1.0  0.479334017544929  0.07479877001340178  0.8901298160734185  1.0000
  H   H10       1.0  0.6308996944420358  0.4252334835909009  0.8899234205682945  1.0000
  H   H11       1.0  0.4458380201725872  0.07471962258136237  0.6099181322819263  1.0000
  H   H12       1.0  0.9439546028178472  0.42512718036275027  0.6100165998160918  1.0000
  H   H13       1.0  0.5205492425136172  0.9252757948688028  0.10995638656394394  1.0000
  H   H14       1.0  0.3690845884518125  0.5748143766475237  0.11007153396776205  1.0000
  H   H15       1.0  0.5541865879838569  0.9251733580916903  0.39007852210389166  1.0000
  H   H16       1.0  0.056128094513923255  0.5747673264643395  0.3899043687895088  1.0000
  H   H17       1.0  0.47538117052024376  0.9760234516026995  0.9660708849254575  1.0000
  H   H18       1.0  0.5588920396463877  0.5238860406800397  0.9660038131590839  1.0000
  H   H19       1.0  0.5486415990329407  0.9759081315781726  0.53398102720476  1.0000
  H   H20       1.0  0.9173365465113932  0.5237477101137316  0.5339470500478214  1.0000
  H   H21       1.0  0.524479622157088  0.0240953657469163  0.0340071209016273  1.0000
  H   H22       1.0  0.44113900248450477  0.476180890490461  0.03398052604099172  1.0000
  H   H23       1.0  0.45143929160142465  0.02397187525089349  0.4660170959192555  1.0000
  H   H24       1.0  0.08275283936472284  0.476113227546385  0.4659625300881913  1.0000
  H   H25       1.0  0.1768076074370413  0.9929434218837656  0.8419059392969857  1.0000
  H   H26       1.0  0.9815677759917636  0.5070713777009387  0.8420946974867505  1.0000
  H   H27       1.0  0.8302304696782913  0.9929759816281489  0.6580959988228586  1.0000
  H   H28       1.0  0.5113428563052196  0.5070918484869508  0.657865529604628  1.0000
  H   H29       1.0  0.8232161438318855  0.007026616862347598  0.1580706994444867  1.0000
  H   H30       1.0  0.018412589278497694  0.4928948468419277  0.1579258020187169  1.0000
  H   H31       1.0  0.16969180413693147  0.0070947683808384  0.3419458696197921  1.0000
  H   H32       1.0  0.4886368965228413  0.4929491457160893  0.3421273096327653  1.0000
  H   H33       1.0  0.37797096338292147  0.12864472192541848  0.8072994243290238  1.0000
  H   H34       1.0  0.8151461303007395  0.3715383590428373  0.8070961069061938  1.0000
  H   H35       1.0  0.49329548476615076  0.12859980630481968  0.6927341721372783  1.0000
  H   H36       1.0  0.8134369134824411  0.37141280250046543  0.6928338289239518  1.0000
  H   H37       1.0  0.6219184396802506  0.871401615266698  0.19275979211633404  1.0000
  H   H38       1.0  0.1848336411515561  0.6285156052124704  0.19289530755176545  1.0000
  H   H39       1.0  0.5066391033089703  0.8713076765726483  0.3072572082381768  1.0000
  H   H40       1.0  0.18662115556092845  0.6285114594336888  0.3071088178759355  1.0000
  C   C1        1.0  0.3675770001899254  0.880762379204398  0.014744498394883069  1.0000
  C   C2        1.0  0.6180161780178183  0.6191937776277713  0.014710076913964129  1.0000
  C   C3        1.0  0.7517479898221924  0.8806807537269489  0.4852992203085762  1.0000
  C   C4        1.0  0.76286044463302  0.6192114243856323  0.4851892590435796  1.0000
  C   C5        1.0  0.632358130347619  0.11931294682941025  0.9853109002826558  1.0000
  C   C6        1.0  0.3820810456834708  0.38079457090687896  0.9851909368755116  1.0000
  C   C7        1.0  0.24830420888098814  0.11930377433755267  0.5147610058109109  1.0000
  C   C8        1.0  0.23722108054177943  0.3807296209609703  0.5147476369934907  1.0000
  C   C9        1.0  0.33595104209813853  0.9463860407217123  0.9472352458248139  1.0000
  C   C10       1.0  0.717098118927439  0.5536364220634694  0.9471788874791683  1.0000
  C   C11       1.0  0.7176747038908786  0.9463218822933895  0.552818574912564  1.0000
  C   C12       1.0  0.7293102482489858  0.5536101049852887  0.5527298149094265  1.0000
  C   C13       1.0  0.6639466324454091  0.05368165823442441  0.05282380114073243  1.0000
  C   C14       1.0  0.28295168206931726  0.4463404833050361  0.05276305085546073  1.0000
  C   C15       1.0  0.2823450529071749  0.053661123176944193  0.44722172272244615  1.0000
  C   C16       1.0  0.2707430573027807  0.44631492138557144  0.44719155280311185  1.0000
  C   C17       1.0  0.37915821826429397  0.015547233830076801  0.9037425786472398  1.0000
  C   C18       1.0  0.7173871171705886  0.48455996151466246  0.9036340087217595  1.0000
  C   C19       1.0  0.6053017878577835  0.015475768194505694  0.5963004705419052  1.0000
  C   C20       1.0  0.798141572184022  0.4844738606066271  0.5963088112280133  1.0000
  C   C21       1.0  0.6207549300897598  0.9845242791391796  0.0963100269534537  1.0000
  C   C22       1.0  0.28263740669302  0.5154672973686515  0.09634783317221016  1.0000
  C   C23       1.0  0.39470923887039805  0.9844706187846766  0.40370317208914486  1.0000
  C   C24       1.0  0.2019380572139087  0.5154366668181324  0.4036364376587898  1.0000
  C   C25       1.0  0.2634124655534222  0.9401818666240799  0.9242116721185453  1.0000
  C   C26       1.0  0.8126362666773875  0.5598797348030756  0.9242655807881447  1.0000
  C   C27       1.0  0.796441547183882  0.9401362608633616  0.5758185000502751  1.0000
  C   C28       1.0  0.6275373783931928  0.5598374594239601  0.5756738451478255  1.0000
  C   C29       1.0  0.7365475124939777  0.05985989048010507  0.07580593817870353  1.0000
  C   C30       1.0  0.18737880405283408  0.4401253984278026  0.07573502964913813  1.0000
  C   C31       1.0  0.20356972347130406  0.059868870687324695  0.4242171280286868  1.0000
  C   C32       1.0  0.37250928506043823  0.4401241875227697  0.42426518309417105  1.0000
  C   C33       1.0  0.23361130091342383  0.9979267265752013  0.859485725466051  1.0000
  C   C34       1.0  0.9072204089585726  0.5021269873838604  0.8595922182339564  1.0000
  C   C35       1.0  0.7684574493478711  0.9979188554054657  0.6405410161634747  1.0000
  C   C36       1.0  0.5907113371652815  0.5020917444899382  0.6403758955005401  1.0000
  C   C37       1.0  0.7663935612096395  0.0020784077305790994  0.14050787004772042  1.0000
  C   C38       1.0  0.09278742579628844  0.4978773820760054  0.14043223821549597  1.0000
  C   C39       1.0  0.23149814670235005  0.0020984867065151997  0.3594986073708952  1.0000
  C   C40       1.0  0.40931828511917007  0.4979080482623884  0.3596052038978499  1.0000
  C   C41       1.0  0.3471468286917062  0.07463962213553539  0.8385083108915267  1.0000
  C   C42       1.0  0.8146553769542424  0.4255207463711058  0.8384316235785008  1.0000
  C   C43       1.0  0.5781799325096346  0.07460028801775559  0.6615222841517578  1.0000
  C   C44       1.0  0.7598776446550203  0.4254281637606424  0.6615436156267547  1.0000
  C   C45       1.0  0.6527949854530988  0.9253945063451994  0.16151742172658598  1.0000
  C   C46       1.0  0.18530686542436578  0.5745187220190288  0.16158133047422754  1.0000
  C   C47       1.0  0.4217684655911783  0.9253506809511618  0.3384788907284886  1.0000
  C   C48       1.0  0.2401546391334507  0.5745113566539998  0.3384360899645174  1.0000
  C   C49       1.0  0.27758080912590094  0.06425432285010399  0.8157671698044026  1.0000
  C   C50       1.0  0.9069462106584254  0.43586887580296  0.8158331286982587  1.0000
  C   C51       1.0  0.6581506134312533  0.0642405582722674  0.6842371583592737  1.0000
  C   C52       1.0  0.6572123571212602  0.4358036974836707  0.6841960809693433  1.0000
  C   C53       1.0  0.722407714933432  0.9357614945668189  0.18421094507635175  1.0000
  C   C54       1.0  0.09298655596619915  0.5641782206461768  0.18423990931147216  1.0000
  C   C55       1.0  0.34179351554299603  0.9357294848415162  0.3157574098047177  1.0000
  C   C56       1.0  0.34280334836830667  0.5641831248454778  0.3158100719757115  1.0000
  C   C57       1.0  0.2496949758539486  0.12440190175627919  0.7446963475762161  1.0000
  C   C58       1.0  0.005926274972274806  0.37570851213217776  0.7447923118465525  1.0000
  C   C59       1.0  0.6258655858738748  0.12442711466850649  0.7553010521570582  1.0000
  C   C60       1.0  0.6183841675052404  0.3756804437062371  0.755292591838291  1.0000
  C   C61       1.0  0.7503178870056358  0.8755948410210763  0.2552728894617998  1.0000
  C   C62       1.0  0.9940052442019296  0.6243485009717556  0.2553104837194837  1.0000
  C   C63       1.0  0.37403158635213907  0.8755574282863561  0.2446785649737962  1.0000
  C   C64       1.0  0.3816280784721614  0.6243498655659391  0.24472897600103488  1.0000
  N   N1        1.0  0.4492966615675516  0.025356695897634996  0.9224903111807234  1.0000
  N   N2        1.0  0.6285707771840662  0.47464897782428034  0.9223409315998978  1.0000
  N   N3        1.0  0.5253505013075569  0.025281383060949694  0.577553361431363  1.0000
  N   N4        1.0  0.8968694863288392  0.4745622402580663  0.5776168911218988  1.0000
  N   N5        1.0  0.5506130353973973  0.9747048990233222  0.0775634628755882  1.0000
  N   N6        1.0  0.3714600950288657  0.5253828580324152  0.07764520608726135  1.0000
  N   N7        1.0  0.47469248964423366  0.9746344852451826  0.4224310007172675  1.0000
  N   N8        1.0  0.10320341414081477  0.5253521021343345  0.4223316804876447  1.0000
  O   O1        1.0  0.32581225931219404  0.8222181025646264  0.05358714444361119  1.0000
  O   O2        1.0  0.6209161470861135  0.6777340866866195  0.0535470231755682  1.0000
  O   O3        1.0  0.8520525691405184  0.8221609644657517  0.44646151303913223  1.0000
  O   O4        1.0  0.7014018528257749  0.6777893506400473  0.44635768500747014  1.0000
  O   O5        1.0  0.6741401486271102  0.17783433411846516  0.9464682024416079  1.0000
  O   O6        1.0  0.37919711131508665  0.32223900302172837  0.9463350573540835  1.0000
  O   O7        1.0  0.1480083550937011  0.17784492453161244  0.5536130249909164  1.0000
  O   O8        1.0  0.2986720452631389  0.32218221176874806  0.553598000917404  1.0000
  O   O9        1.0  0.43968769631045035  0.8813195606811062  0.0330981496266106  1.0000
  O   O10       1.0  0.5275817721921713  0.6185587429944731  0.033066322244621915  1.0000
  O   O11       1.0  0.6790747329913883  0.8812458954263533  0.4669269825215282  1.0000
  O   O12       1.0  0.8539252861770803  0.618562387509506  0.46686155750807495  1.0000
  O   O13       1.0  0.5602583713026449  0.11875271431302535  0.9669309272795701  1.0000
  O   O14       1.0  0.47252204343772036  0.3814357087850197  0.9668315989553167  1.0000
  O   O15       1.0  0.3209986555713017  0.11873100315332147  0.53310903726328  1.0000
  O   O16       1.0  0.14614436204679043  0.3813786569685149  0.5331055086970053  1.0000
  O   O17       1.0  0.1667694524540054  0.13678974769438668  0.7353543524730384  1.0000
  O   O18       1.0  0.09816119807548067  0.363347011964585  0.7354605111969121  1.0000
  O   O19       1.0  0.6964260063491495  0.13679520624285146  0.7646226729581257  1.0000
  O   O20       1.0  0.5385205285154061  0.36329134775148464  0.7646225495643151  1.0000
  O   O21       1.0  0.8332378540021214  0.8632459062946789  0.26459836137160414  1.0000
  O   O22       1.0  0.9017375934477844  0.6367496749153289  0.26466563033670815  1.0000
  O   O23       1.0  0.30348751629391296  0.8631839954635506  0.2353491694149169  1.0000
  O   O24       1.0  0.4615076680689683  0.6367023403531531  0.23538072801773774  1.0000
  O   O25       1.0  0.3097203895774213  0.16381946048380766  0.6941647024124507  1.0000
  O   O26       1.0  0.9964156011224359  0.33623956710822966  0.6943096035838536  1.0000
  O   O27       1.0  0.5264211319263269  0.1638666050369508  0.8058092207886317  1.0000
  O   O28       1.0  0.6673249081344398  0.3362402926998769  0.805817596577093  1.0000
  O   O29       1.0  0.6903376730749644  0.8361505770729778  0.30579167834409293  1.0000
  O   O30       1.0  0.0035351261197788734  0.6638075257686892  0.3058061837837158  1.0000
  O   O31       1.0  0.4734772180207544  0.8361301460558862  0.194149012980148  1.0000
  O   O32       1.0  0.3326574177935272  0.6638144313782062  0.1942270871610177  1.0000
