data_image0
_chemical_formula_structural       Zn4H8C8I4N12
_chemical_formula_sum              "Zn4 H8 C8 I4 N12"
_cell_length_a       6.741490366823378
_cell_length_b       9.394322162879405
_cell_length_c       9.758064566159465
_cell_angle_alpha    89.99955316978964
_cell_angle_beta     90.00055165267905
_cell_angle_gamma    108.55549269837195

_space_group_name_H-M_alt    "P 1"
_space_group_IT_number       1

loop_
  _space_group_symop_operation_xyz
  'x, y, z'

loop_
  _atom_site_type_symbol
  _atom_site_label
  _atom_site_symmetry_multiplicity
  _atom_site_fract_x
  _atom_site_fract_y
  _atom_site_fract_z
  _atom_site_occupancy
  Zn  Zn1       1.0  0.46213230454343807  0.676062149936314  0.4310188787026092  1.0000
  Zn  Zn2       1.0  0.037864347558468174  0.8239367401231448  0.931020888153121  1.0000
  Zn  Zn3       1.0  0.5378649721596602  0.3239356557796924  0.5689811529630121  1.0000
  Zn  Zn4       1.0  0.9621314565634194  0.1760644342696409  0.0689791434956888  1.0000
  H   H1        1.0  0.6506314705647468  0.006351200575899399  0.3035130056643638  1.0000
  H   H2        1.0  0.8493718177983139  0.4936464693089206  0.8035167429726118  1.0000
  H   H3        1.0  0.34936531886977223  0.9936488508941964  0.6964890755783557  1.0000
  H   H4        1.0  0.1506348568221796  0.5063524588097437  0.19648123913137283  1.0000
  H   H5        1.0  0.7739050030741482  0.6125906021329897  0.1822945257701747  1.0000
  H   H6        1.0  0.7260931392971132  0.8874033717503167  0.6822900704471095  1.0000
  H   H7        1.0  0.2260967343283937  0.3874105719597977  0.8177065306904581  1.0000
  H   H8        1.0  0.273895714044798  0.112588820046355  0.3177109860061123  1.0000
  C   C1        1.0  0.7739699669006442  0.7282021597977462  0.1886980398074201  1.0000
  C   C2        1.0  0.7260282656023522  0.7717951472709714  0.6886944241011721  1.0000
  C   C3        1.0  0.22602683327124137  0.2718012602748344  0.8113040414230924  1.0000
  C   C4        1.0  0.2739660444635915  0.2282026585936164  0.3113056075552336  1.0000
  C   C5        1.0  0.7095074922686353  0.9275962038073049  0.24874795774242392  1.0000
  C   C6        1.0  0.7904974180230583  0.5724007708433803  0.7487492659048842  1.0000
  C   C7        1.0  0.2904927618153295  0.0724049703597771  0.7512530987136046  1.0000
  C   C8        1.0  0.20950925659743552  0.42759815727528416  0.25124871619910044  1.0000
  I   I1        1.0  0.1867013381920586  0.8071201574092016  0.452350670446272  1.0000
  I   I2        1.0  0.31331142904590353  0.6928875968343746  0.9523481705894884  1.0000
  I   I3        1.0  0.8133013845294741  0.192879893758068  0.547653460401655  1.0000
  I   I4        1.0  0.6867007238051245  0.3071236825430148  0.04765391066018761  1.0000
  N   N1        1.0  0.8786583217198969  0.8359183419684231  0.10267784203254851  1.0000
  N   N2        1.0  0.6213447776140271  0.6640794405334915  0.6026764078926519  1.0000
  N   N3        1.0  0.12134144507643903  0.16408507796124644  0.897322189620418  1.0000
  N   N4        1.0  0.3786544696889323  0.33591611934847526  0.3973236237872514  1.0000
  N   N5        1.0  0.8378534968005626  0.9643707250744811  0.1417925871959795  1.0000
  N   N6        1.0  0.6621500874691933  0.5356268411021219  0.6417913152242605  1.0000
  N   N7        1.0  0.16214379065260695  0.0356304492383472  0.8582094940442033  1.0000
  N   N8        1.0  0.3378546058077276  0.4643709642509393  0.3582056420842648  1.0000
  N   N9        1.0  0.6662736839984618  0.781251565020085  0.2818317598398323  1.0000
  N   N10       1.0  0.8337276845095831  0.7187463497306155  0.781831248578861  1.0000
  N   N11       1.0  0.3337260720668598  0.21874848630426413  0.7181692966187186  1.0000
  N   N12       1.0  0.16627057748073787  0.2812503330740412  0.2181667335071397  1.0000
