data_image0
_chemical_formula_structural       Nd4H24C24N4O24
_chemical_formula_sum              "Nd4 H24 C24 N4 O24"
_cell_length_a       6.6345538680002445
_cell_length_b       7.029756203002156
_cell_length_c       17.439862989005988
_cell_angle_alpha    89.99991039195392
_cell_angle_beta     90.00002996048565
_cell_angle_gamma    90.00000945368477

_space_group_name_H-M_alt    "P 1"
_space_group_IT_number       1

loop_
  _space_group_symop_operation_xyz
  'x, y, z'

loop_
  _atom_site_type_symbol
  _atom_site_label
  _atom_site_symmetry_multiplicity
  _atom_site_fract_x
  _atom_site_fract_y
  _atom_site_fract_z
  _atom_site_occupancy
  Nd  Nd1       1.0  0.5507670959943028  0.22082685639896482  0.8293625780800086  1.0000
  Nd  Nd2       1.0  0.9492321693209578  0.7791701269005175  0.3293636741710131  1.0000
  Nd  Nd3       1.0  0.44923344797545894  0.7208274272431086  0.670636393478354  1.0000
  Nd  Nd4       1.0  0.050766178569951116  0.2791686705855767  0.17063600552356206  1.0000
  H   H1        1.0  0.9744625532202635  0.8235988618739399  0.8291141484241464  1.0000
  H   H2        1.0  0.5255367117488491  0.1764023899644158  0.3291161136904321  1.0000
  H   H3        1.0  0.025536500745772607  0.3235988230279859  0.670885331970247  1.0000
  H   H4        1.0  0.47446312614758324  0.6764001188806716  0.1708847773628719  1.0000
  H   H5        1.0  0.11205044493598143  0.9328741273047003  0.9046926051440423  1.0000
  H   H6        1.0  0.3879495086406949  0.06712532680981552  0.4046929897660831  1.0000
  H   H7        1.0  0.8879486273787266  0.43287452232875995  0.5953073800007544  1.0000
  H   H8        1.0  0.6120503109070656  0.567126217303745  0.0953073965368176  1.0000
  H   H9        1.0  0.5757530947091852  0.8015024919885011  0.9654970685391645  1.0000
  H   H10       1.0  0.9242448535574044  0.19849680632630404  0.465498524530652  1.0000
  H   H11       1.0  0.42424595554661704  0.30150162616247667  0.5345024257367825  1.0000
  H   H12       1.0  0.07575498804873601  0.6984978467464131  0.0345017792425537  1.0000
  H   H13       1.0  0.7831596204115744  0.6656870538912828  0.9316235855570911  1.0000
  H   H14       1.0  0.716841295045505  0.33431379883648316  0.4316231954521754  1.0000
  H   H15       1.0  0.21684091430122274  0.1656860226015269  0.568377714237478  1.0000
  H   H16       1.0  0.28315856936571754  0.8343133184144946  0.0683775963981077  1.0000
  H   H17       1.0  0.971066139597966  0.9981114825024449  0.0122126067801389  1.0000
  H   H18       1.0  0.5289311753265197  0.0018924257004187003  0.5122145109525391  1.0000
  H   H19       1.0  0.028932245054917902  0.4981087878415949  0.4877869353723768  1.0000
  H   H20       1.0  0.47106933188313616  0.5018931878014288  0.9877857449418599  1.0000
  H   H21       1.0  0.7077341176186139  0.0147771910392507  0.025745679695312197  1.0000
  H   H22       1.0  0.7922647234745313  0.9852252419500688  0.5257470176413079  1.0000
  H   H23       1.0  0.2922656931393348  0.5147765543531548  0.4742547394940003  1.0000
  H   H24       1.0  0.20773435763074843  0.48522547397674043  0.9742535080147406  1.0000
  C   C1        1.0  0.9817185411213175  0.9500569452206947  0.8662571764427653  1.0000
  C   C2        1.0  0.5182807757444011  0.04994416200524651  0.3662580729344995  1.0000
  C   C3        1.0  0.018282041338856903  0.4500570498137791  0.6337427979077503  1.0000
  C   C4        1.0  0.481719040917966  0.5499434592329708  0.13374175076338451  1.0000
  C   C5        1.0  0.022600437557699103  0.11381175918644712  0.8105768619863483  1.0000
  C   C6        1.0  0.47740089177667505  0.8861909064162534  0.3105750293628163  1.0000
  C   C7        1.0  0.9773985811836641  0.613810919863788  0.6894233235988949  1.0000
  C   C8        1.0  0.5225914450426289  0.3861908758543465  0.18942458309856391  1.0000
  C   C9        1.0  0.6846013740496988  0.7873740802212623  0.918160129170424  1.0000
  C   C10       1.0  0.8153980153363494  0.21262682492325516  0.4181609815913703  1.0000
  C   C11       1.0  0.3153991810945557  0.28737301246953  0.5818399473804305  1.0000
  C   C12       1.0  0.18460182864220803  0.7126262761331005  0.08183931330562899  1.0000
  C   C13       1.0  0.5600036438628707  0.7376256819710462  0.8480317146975906  1.0000
  C   C14       1.0  0.9399971547956415  0.26237122864728957  0.3480296932489608  1.0000
  C   C15       1.0  0.43999841018802516  0.2376229388249058  0.6519678197076715  1.0000
  C   C16       1.0  0.06000119027500261  0.7623746542083724  0.1519699969974155  1.0000
  C   C17       1.0  0.8308704263974109  0.052260272293246104  0.9864407273172944  1.0000
  C   C18       1.0  0.6691260438726161  0.9477417895260204  0.4864428095077571  1.0000
  C   C19       1.0  0.16912858200858952  0.5522599868432894  0.5135589235364008  1.0000
  C   C20       1.0  0.3308738395838091  0.44774241265889714  0.0135573376859099  1.0000
  C   C21       1.0  0.8412072356129132  0.26813120294328036  0.9858632477285667  1.0000
  C   C22       1.0  0.6588027991850895  0.7318708611486571  0.48585342213257826  1.0000
  C   C23       1.0  0.15879783808623676  0.7681309135578192  0.5141437216991633  1.0000
  C   C24       1.0  0.3411925262476317  0.23187006112170397  0.0141525946646439  1.0000
  N   N1        1.0  0.7917751313365928  0.9697246666590618  0.910476535775075  1.0000
  N   N2        1.0  0.7082227400539909  0.030273423349711906  0.4104786285824318  1.0000
  N   N3        1.0  0.2082239471655002  0.4697235516421118  0.5895234262201043  1.0000
  N   N4        1.0  0.2917770733057879  0.5302714394739285  0.0895217808723316  1.0000
  O   O1        1.0  0.8721209909773083  0.1836251292540396  0.7749241201300805  1.0000
  O   O2        1.0  0.6278766910152458  0.8163763335710642  0.27492570337692973  1.0000
  O   O3        1.0  0.12787954674703175  0.68362401359515  0.72507659499653  1.0000
  O   O4        1.0  0.37212467764358353  0.31637471732700834  0.2250739529444559  1.0000
  O   O5        1.0  0.20202922800492476  0.16640679231186797  0.7990119785846161  1.0000
  O   O6        1.0  0.2979735924320367  0.8335987633648901  0.2990112906952334  1.0000
  O   O7        1.0  0.7979728140884037  0.6664073014401454  0.7009881739594661  1.0000
  O   O8        1.0  0.7020277791178348  0.333593026730462  0.2009877814090402  1.0000
  O   O9        1.0  0.5120923384926287  0.8729192213762786  0.8023524095690392  1.0000
  O   O10       1.0  0.9879023673020485  0.12707786708586613  0.3023533494818622  1.0000
  O   O11       1.0  0.48791426005686844  0.37291915318441243  0.6976476132412728  1.0000
  O   O12       1.0  0.0120944477911422  0.6270739944297576  0.1976469991591046  1.0000
  O   O13       1.0  0.5027503373531063  0.568410727004178  0.8368327063775283  1.0000
  O   O14       1.0  0.9972519529207847  0.431584804684981  0.3368346036201899  1.0000
  O   O15       1.0  0.4972516882856582  0.0684136396211699  0.6631669343294888  1.0000
  O   O16       1.0  0.0027464205627155003  0.9315796422401804  0.1631667005232202  1.0000
  O   O17       1.0  0.7884515814077492  0.3559593970780314  0.9257583849905303  1.0000
  O   O18       1.0  0.7115478186001312  0.6440500136168624  0.4257658268575852  1.0000
  O   O19       1.0  0.21154295620791436  0.855953192140298  0.5742376346819498  1.0000
  O   O20       1.0  0.28845653564278007  0.14405323869516454  0.0742310707257161  1.0000
  O   O21       1.0  0.898046881937518  0.3489622955743955  0.0474286765311334  1.0000
  O   O22       1.0  0.6019369168514787  0.6510343628839196  0.5474353477753766  1.0000
  O   O23       1.0  0.10194846314875862  0.8489631350349146  0.4525669455248718  1.0000
  O   O24       1.0  0.3980666299179775  0.15103186512389752  0.9525608006340036  1.0000
