data_image0
_chemical_formula_structural       Zn2H25C36S2N7O10
_chemical_formula_sum              "Zn2 H25 C36 S2 N7 O10"
_cell_length_a       12.863181277243832
_cell_length_b       16.37622939394919
_cell_length_c       17.616443240434506
_cell_angle_alpha    96.06567788214805
_cell_angle_beta     90.16091690526223
_cell_angle_gamma    92.95209730838536

_space_group_name_H-M_alt    "P 1"
_space_group_IT_number       1

loop_
  _space_group_symop_operation_xyz
  'x, y, z'

loop_
  _atom_site_type_symbol
  _atom_site_label
  _atom_site_symmetry_multiplicity
  _atom_site_fract_x
  _atom_site_fract_y
  _atom_site_fract_z
  _atom_site_occupancy
  Zn  Zn1       1.0  0.4982062950993297  0.4106064160539803  0.4978060750332675  1.0000
  Zn  Zn2       1.0  0.5027240153190533  0.5882614192100563  0.5000638452884163  1.0000
  H   H1        1.0  0.39938547005211694  0.7116931841617743  0.4283606852651901  1.0000
  H   H2        1.0  0.394292393994192  0.8632958449858563  0.4315080319694929  1.0000
  H   H3        1.0  0.6480460292341449  0.883185700330799  0.595627135315013  1.0000
  H   H4        1.0  0.34595191192938307  0.11557358441034891  0.40937394655666287  1.0000
  H   H5        1.0  0.6060276334216257  0.1366376373524147  0.5682061160697034  1.0000
  H   H6        1.0  0.6051317099651146  0.28784223284130667  0.5664467379355288  1.0000
  H   H7        1.0  0.5854143989500288  0.005964222120439901  0.56255782490841  1.0000
  H   H8        1.0  0.40911575844715037  0.9933467977267019  0.4426250510134155  1.0000
  H   H9        1.0  0.5041446151808842  0.6129105961501439  0.26523472660082353  1.0000
  H   H10       1.0  0.5025854976839952  0.6103961204099522  0.12455140333066343  1.0000
  H   H11       1.0  0.4998445837876204  0.34521363479116474  0.10579683626157532  1.0000
  H   H12       1.0  0.5094760537775969  0.6546945444860485  0.8919681314096979  1.0000
  H   H13       1.0  0.4926216634834831  0.389318064681504  0.8739896998775978  1.0000
  H   H14       1.0  0.4902051729950472  0.3863293833224902  0.7332797438441931  1.0000
  H   H15       1.0  0.49805957106969606  0.40558766631043863  0.9941689326285685  1.0000
  H   H16       1.0  0.5048742863910222  0.5944651848400755  0.004017030389825023  1.0000
  H   H17       1.0  0.8637827274490989  0.6269260199692185  0.502479740592854  1.0000
  H   H18       1.0  0.6712096880345014  0.6600554938570866  0.575507849352782  1.0000
  H   H19       1.0  0.7139179852175701  0.7543620510675668  0.6248335106112537  1.0000
  H   H20       1.0  0.3330407539541511  0.33800470146055533  0.41977619162184965  1.0000
  H   H21       1.0  0.2762600957652667  0.24415798856854565  0.3852923414640089  1.0000
  H   H22       1.0  0.5051103660250931  0.3343415548597265  0.3099498078187963  1.0000
  H   H23       1.0  0.5049351987399363  0.2788752718734742  0.21821142656116882  1.0000
  H   H24       1.0  0.5025081237040467  0.664400441407878  0.6882206453985447  1.0000
  H   H25       1.0  0.49740173345757915  0.7195780549612963  0.779044446672849  1.0000
  C   C1        1.0  0.5044821537802662  0.49028006234170374  0.3507825156573717  1.0000
  C   C2        1.0  0.29383876099575457  0.5057893147325672  0.49542561011153924  1.0000
  C   C3        1.0  0.4962077803962472  0.5087883584905698  0.647285148815911  1.0000
  C   C4        1.0  0.707154517500598  0.49483607883042424  0.5047569753078494  1.0000
  C   C5        1.0  0.45332045488843414  0.7525661656737485  0.4642802439134784  1.0000
  C   C6        1.0  0.45064483677705175  0.8368080293247292  0.4666303023082677  1.0000
  C   C7        1.0  0.521646392804989  0.8866310673462934  0.5154151869636153  1.0000
  C   C8        1.0  0.5913312969520206  0.8472193172757798  0.5579235022387935  1.0000
  C   C9        1.0  0.5916609285991258  0.7604737384908022  0.5512794281453852  1.0000
  C   C10       1.0  0.5269694016171371  0.9761806238295421  0.5221663230861965  1.0000
  C   C11       1.0  0.46782279598735943  0.023186992346452908  0.48278435242582424  1.0000
  C   C12       1.0  0.4047457186467797  0.15162286491000293  0.4451448437262756  1.0000
  C   C13       1.0  0.4745911690006964  0.11266663757179882  0.4878124284123261  1.0000
  C   C14       1.0  0.5489168074897962  0.16274894331984066  0.5334318722065277  1.0000
  C   C15       1.0  0.5489162971386249  0.24681655731161814  0.5327619893044471  1.0000
  C   C16       1.0  0.4082655236511457  0.23826199730513764  0.44767214699700736  1.0000
  C   C17       1.0  0.5032109350198298  0.4824630100869386  0.266483993126407  1.0000
  C   C18       1.0  0.5031971076606326  0.5545601202890539  0.22914834907565054  1.0000
  C   C19       1.0  0.5023936867154789  0.552972312106448  0.15062085932834895  1.0000
  C   C20       1.0  0.5012749052482589  0.47646195393040364  0.10463615078958813  1.0000
  C   C21       1.0  0.5009957478369104  0.4045233246962568  0.14078730633303854  1.0000
  C   C22       1.0  0.5020521969593263  0.40486829846196304  0.22100055413920935  1.0000
  C   C23       1.0  0.5003190005832822  0.4688369807481792  0.021489347487929026  1.0000
  C   C24       1.0  0.5021544435346145  0.5311715716804032  0.9767694720919878  1.0000
  C   C25       1.0  0.5052644287082729  0.5952118447977813  0.8571780076195952  1.0000
  C   C26       1.0  0.5011454327910982  0.5233380708797385  0.8936206203093209  1.0000
  C   C27       1.0  0.49623430426393617  0.446704036479737  0.8477553293400748  1.0000
  C   C28       1.0  0.49516784981486245  0.44482580438971553  0.769192958345002  1.0000
  C   C29       1.0  0.499414356195416  0.5169100662427157  0.731703663027979  1.0000
  C   C30       1.0  0.5052589338493192  0.5945643607933845  0.7770414257291237  1.0000
  C   C31       1.0  0.1086301553010927  0.4350177337668981  0.5000861817786133  1.0000
  C   C32       1.0  0.8903123747125861  0.5649423008604161  0.5024956049206112  1.0000
  C   C33       1.0  0.17868439292480076  0.5021672466702756  0.4998803423925225  1.0000
  C   C34       1.0  0.8222786542558184  0.49697186080704386  0.5032323400811551  1.0000
  C   C35       1.0  0.9947544275320509  0.5418495719591476  0.5007657687052147  1.0000
  C   C36       1.0  0.003529538605477006  0.456227793846594  0.4996951862915609  1.0000
  S   S1        1.0  0.11528335367103183  0.5931360821856801  0.5001097642356386  1.0000
  S   S2        1.0  0.8837851034399619  0.404571860684662  0.5008225984295153  1.0000
  N   N1        1.0  0.5210929025089683  0.7141019519085817  0.5055450469271605  1.0000
  N   N2        1.0  0.4811852409333283  0.28485080520835737  0.4910335209305004  1.0000
  N   N3        1.0  0.6608661785322952  0.7212179322188064  0.5903967047123544  1.0000
  N   N4        1.0  0.3416529662388825  0.2765688661477342  0.4052065501854757  1.0000
  N   N5        1.0  0.5005632470320407  0.33220726264315914  0.25213073738546404  1.0000
  N   N6        1.0  0.5134514548043398  0.6676850036947571  0.7457791578984401  1.0000
  N   N7        1.0  0.1369987389287601  0.3495797643978946  0.500650551894154  1.0000
  O   O1        1.0  0.5097925209857053  0.4245086038854353  0.3844464538351958  1.0000
  O   O2        1.0  0.5003623404895663  0.5622408045852226  0.3864600338016119  1.0000
  O   O3        1.0  0.3384786518935314  0.577203537798795  0.5021225354153105  1.0000
  O   O4        1.0  0.3374400091562891  0.4374622445327106  0.484884962185838  1.0000
  O   O5        1.0  0.4999139596737551  0.5750476535296801  0.6136499679485399  1.0000
  O   O6        1.0  0.4897634248302722  0.4366023747205789  0.6116809798319383  1.0000
  O   O7        1.0  0.6606710130255069  0.4244678350639504  0.5047610721734659  1.0000
  O   O8        1.0  0.6648230697938119  0.563807991186998  0.5056970156893287  1.0000
  O   O9        1.0  0.10754666655244452  0.3014396052857721  0.44428224394985716  1.0000
  O   O10       1.0  0.18457642327063437  0.3306183151245818  0.556448414652053  1.0000
