data_image0
_chemical_formula_structural       Mg2H48C24O4
_chemical_formula_sum              "Mg2 H48 C24 O4"
_cell_length_a       7.591654509626619
_cell_length_b       7.717795643888903
_cell_length_c       11.546427945870423
_cell_angle_alpha    85.6874364282132
_cell_angle_beta     81.50494860391254
_cell_angle_gamma    69.99722154117407

_space_group_name_H-M_alt    "P 1"
_space_group_IT_number       1

loop_
  _space_group_symop_operation_xyz
  'x, y, z'

loop_
  _atom_site_type_symbol
  _atom_site_label
  _atom_site_symmetry_multiplicity
  _atom_site_fract_x
  _atom_site_fract_y
  _atom_site_fract_z
  _atom_site_occupancy
  Mg  Mg1       1.0  0.27665709312093845  0.844262080907349  0.2696383570203978  1.0000
  Mg  Mg2       1.0  0.7233438645621104  0.15573840332287153  0.7303605890053791  1.0000
  H   H1        1.0  0.09833801258941567  0.6786334173690706  0.4444787221217228  1.0000
  H   H2        1.0  0.9016616127336827  0.32136706841755114  0.5555203481812044  1.0000
  H   H3        1.0  0.312384336498667  0.6695398364891216  0.4878457976304917  1.0000
  H   H4        1.0  0.6876151944820419  0.330464786114959  0.5121539445430658  1.0000
  H   H5        1.0  0.025260053791732927  0.8850509872150029  0.6140143390844133  1.0000
  H   H6        1.0  0.9747381684055225  0.11495363616902671  0.385982926953517  1.0000
  H   H7        1.0  0.17980486132496035  0.996715914295379  0.5455176266367945  1.0000
  H   H8        1.0  0.8201929036421304  0.0032900879427017996  0.45447788224046093  1.0000
  H   H9        1.0  0.3220995396013746  0.865923791941164  0.03392461458327029  1.0000
  H   H10       1.0  0.6778997071162748  0.13407393639968754  0.9660737602968728  1.0000
  H   H11       1.0  0.1992554892595918  0.711551501317615  0.07280712165790962  1.0000
  H   H12       1.0  0.8007369069735119  0.2884545084401609  0.9271932183492101  1.0000
  H   H13       1.0  0.8957262693358172  0.9829646082787492  0.12198990924084543  1.0000
  H   H14       1.0  0.10427412891583998  0.0170413918817829  0.8780088182991438  1.0000
  H   H15       1.0  0.02102285817387178  0.1348818749754344  0.08232340211741022  1.0000
  H   H16       1.0  0.9789775243601185  0.865124125702735  0.9176770590310854  1.0000
  H   H17       1.0  0.23151958150077684  0.2437182714808301  0.11871081035669563  1.0000
  H   H18       1.0  0.7684804224277639  0.7562849717515691  0.8812889553690227  1.0000
  H   H19       1.0  0.47072351377587285  0.09139536302720332  0.10487122862149793  1.0000
  H   H20       1.0  0.5292761115472256  0.9086051227594254  0.8951278416814293  1.0000
  H   H21       1.0  0.310373209318655  0.4800351240931137  0.1980697381152652  1.0000
  H   H22       1.0  0.6896290807243443  0.5199653585807056  0.8019290836333756  1.0000
  H   H23       1.0  0.5413205228018823  0.3633261804453483  0.12741138793651882  1.0000
  H   H24       1.0  0.45868316250812285  0.6366701648898783  0.8725901048813757  1.0000
  H   H25       1.0  0.4826230041982454  0.4031570391138574  0.3649967392197483  1.0000
  H   H26       1.0  0.5173730812751598  0.5968420724879309  0.6350044610752976  1.0000
  H   H27       1.0  0.6373125052626064  0.189721826031608  0.3055739352316778  1.0000
  H   H28       1.0  0.36268622921303245  0.8102772829750082  0.694428750117581  1.0000
  H   H29       1.0  0.4091473969564418  0.0813348799522231  0.4334518681534549  1.0000
  H   H30       1.0  0.5908518419023705  0.9186628486474433  0.566547373530945  1.0000
  H   H31       1.0  0.21822732251838053  0.2871658529386707  0.4070174513921503  1.0000
  H   H32       1.0  0.7817701031738123  0.712833256847894  0.5929827578214883  1.0000
  H   H33       1.0  0.7073360411015837  0.8184282610686681  0.10483465652829695  1.0000
  H   H34       1.0  0.2926618496796036  0.1815694696050372  0.8951664430417597  1.0000
  H   H35       1.0  0.6129129451223745  0.6481166276147831  0.06979902909688457  1.0000
  H   H36       1.0  0.38708807546773005  0.351879720833253  0.9302027122753034  1.0000
  H   H37       1.0  0.8828665335928104  0.4021625742066348  0.126049680305961  1.0000
  H   H38       1.0  0.11713487346156612  0.5978365314283566  0.8739518896847545  1.0000
  H   H39       1.0  0.9958718709210926  0.5713422793781503  0.10105933946834254  1.0000
  H   H40       1.0  0.00412955185095848  0.4286568257392105  0.8989404969138592  1.0000
  H   H41       1.0  0.004660343128890076  0.5717810978936201  0.3059095702503357  1.0000
  H   H42       1.0  0.9953410010184455  0.42822214352356275  0.6940892043939756  1.0000
  H   H43       1.0  0.8890380811414003  0.4047893140445781  0.32766185778726253  1.0000
  H   H44       1.0  0.1109699877127425  0.5952097838083927  0.6723390908177225  1.0000
  H   H45       1.0  0.6287406292495202  0.6533839496433772  0.41525275846687054  1.0000
  H   H46       1.0  0.37126134509509257  0.3466096398024803  0.5847481632053829  1.0000
  H   H47       1.0  0.7180658756373859  0.8222731790472791  0.33636460494098946  1.0000
  H   H48       1.0  0.28193199156730486  0.17772455240287846  0.6636390950418374  1.0000
  C   C1        1.0  0.19009605407926944  0.7629584323246944  0.4468513638943962  1.0000
  C   C2        1.0  0.8099013008470379  0.23704481350287673  0.5531469167770952  1.0000
  C   C3        1.0  0.08245040588978007  0.9271363123746783  0.5261581081363078  1.0000
  C   C4        1.0  0.9175469647542015  0.07286693293526271  0.4738384389266772  1.0000
  C   C5        1.0  0.2018666749517876  0.8479152160989614  0.09515265209298462  1.0000
  C   C6        1.0  0.7981306721156827  0.15208802998742502  0.9048464953827633  1.0000
  C   C7        1.0  0.020334940288549222  0.996545341896315  0.06379758874364681  1.0000
  C   C8        1.0  0.9796645906921523  0.0034592807077587005  0.9362021534299033  1.0000
  C   C9        1.0  0.3606848348916072  0.19383868863550902  0.16101459059337495  1.0000
  C   C10       1.0  0.6393161227914417  0.8061617955947114  0.8389843554324018  1.0000
  C   C11       1.0  0.42698770666611796  0.34760646679114154  0.19283082436249543  1.0000
  C   C12       1.0  0.5730137161059329  0.6523926383262124  0.8071690120197065  1.0000
  C   C13       1.0  0.4912118225454804  0.28615588098107736  0.3135931302266216  1.0000
  C   C14       1.0  0.5087882678666131  0.7138432256926849  0.6864068304327235  1.0000
  C   C15       1.0  0.35386577676420206  0.18947454597212504  0.36800433429051793  1.0000
  C   C16       1.0  0.6461343136478985  0.8105245607016371  0.6319956263688272  1.0000
  C   C17       1.0  0.6893341794575744  0.6847203391179095  0.13209326355873693  1.0000
  C   C18       1.0  0.3106650515424078  0.31527738974057934  0.8679068449299197  1.0000
  C   C19       1.0  0.8778109414064587  0.5375930672779391  0.1523991915057934  1.0000
  C   C20       1.0  0.12219047350675531  0.46240603809823705  0.847601511680665  1.0000
  C   C21       1.0  0.8831298386129727  0.5387133759470829  0.2858828585816441  1.0000
  C   C22       1.0  0.11687197062335733  0.4612884863572263  0.7141168064190851  1.0000
  C   C23       1.0  0.6982319822084618  0.6880064322862226  0.33108020695831913  1.0000
  C   C24       1.0  0.30177264899721473  0.3119871543056476  0.6689213329638976  1.0000
  O   O1        1.0  0.31965119262852676  0.10012729621588788  0.2712177024003425  1.0000
  O   O2        1.0  0.6803475732824535  0.8998718117554603  0.7287815157318891  1.0000
  O   O3        1.0  0.5725256480735296  0.7036397121845257  0.24476967737970773  1.0000
  O   O4        1.0  0.42747405587428483  0.29635663730228146  0.7552304546611099  1.0000
