data_image0
_chemical_formula_structural       Zn8H30C30N6O26
_chemical_formula_sum              "Zn8 H30 C30 N6 O26"
_cell_length_a       12.821631655912473
_cell_length_b       13.494125824385838
_cell_length_c       14.7263427949542
_cell_angle_alpha    112.38624129669103
_cell_angle_beta     97.25695202050039
_cell_angle_gamma    109.934309993166

_space_group_name_H-M_alt    "P 1"
_space_group_IT_number       1

loop_
  _space_group_symop_operation_xyz
  'x, y, z'

loop_
  _atom_site_type_symbol
  _atom_site_label
  _atom_site_symmetry_multiplicity
  _atom_site_fract_x
  _atom_site_fract_y
  _atom_site_fract_z
  _atom_site_occupancy
  Zn  Zn1       1.0  0.1309779798735278  0.06425766320739258  0.0329704556298296  1.0000
  Zn  Zn2       1.0  0.3273195276274663  0.999165199600007  0.11121724326162041  1.0000
  Zn  Zn3       1.0  0.14048898262090873  0.8195991295219189  0.8833804195339853  1.0000
  Zn  Zn4       1.0  0.06544270117792912  0.838533763110391  0.08293073292468028  1.0000
  Zn  Zn5       1.0  0.7294414216645819  0.8575392001524309  0.4262656190596275  1.0000
  Zn  Zn6       1.0  0.5014255191491516  0.8428927167879083  0.5107428671726523  1.0000
  Zn  Zn7       1.0  0.6428193670745942  0.0644266354846721  0.4731036957325756  1.0000
  Zn  Zn8       1.0  0.7530478731734647  0.03367651035885191  0.6565477083877055  1.0000
  H   H1        1.0  0.4379352896781654  0.290013444685755  0.3373110820295935  1.0000
  H   H2        1.0  0.3368459968478065  0.4211328896870867  0.4032836277778244  1.0000
  H   H3        1.0  0.3288354213718351  0.4433064805825709  0.2904201819938947  1.0000
  H   H4        1.0  0.5538412559773604  0.5263560434246344  0.4570646675625482  1.0000
  H   H5        1.0  0.5297670229847995  0.4374928143111845  0.2364267763517559  1.0000
  H   H6        1.0  0.2816416435972898  0.07146312938760964  0.7683855441799067  1.0000
  H   H7        1.0  0.22797144761426585  0.21710377963525934  0.737751537897978  1.0000
  H   H8        1.0  0.10280297221162023  0.1715640763023174  0.7798965754344706  1.0000
  H   H9        1.0  0.10907616138429432  0.06326471079329113  0.5580411050507905  1.0000
  H   H10       1.0  0.07047197481489326  0.8810393435260693  0.6209725497975498  1.0000
  H   H11       1.0  0.758020417662195  0.9412290382324928  0.0040546636106242005  1.0000
  H   H12       1.0  0.7518673076248845  0.10938832268661261  0.14851070304982272  1.0000
  H   H13       1.0  0.8553630060514408  0.1023684259135678  0.23667204517786186  1.0000
  H   H14       1.0  0.596088417670295  0.9350052165947391  0.1422234623645053  1.0000
  H   H15       1.0  0.76177999601137  0.8293984278298441  0.1390252952475778  1.0000
  H   H16       1.0  0.5281192260862471  0.805405930223664  0.9589541943503403  1.0000
  H   H17       1.0  0.6498565816615312  0.0028098246404156075  0.9663355903841546  1.0000
  H   H18       1.0  0.5267882369837198  0.9867140043145072  0.8797726768436149  1.0000
  H   H19       1.0  0.6521601817449041  0.8230243892894008  0.8256743440139969  1.0000
  H   H20       1.0  0.4007630782065803  0.7511274239092174  0.7519783842638218  1.0000
  H   H21       1.0  0.127613005457647  0.04083576387859721  0.35051201329137877  1.0000
  H   H22       1.0  0.2770452148633851  0.19554507755739087  0.5151898122632659  1.0000
  H   H23       1.0  0.38511424797065535  0.1750578480175236  0.452789426630396  1.0000
  H   H24       1.0  0.3004089991710472  0.05830856341623301  0.5844171724174243  1.0000
  H   H25       1.0  0.17545548777523834  0.8683433022738214  0.38813768311914026  1.0000
  H   H26       1.0  0.7622605272354975  0.5866988869590487  0.8536477315742558  1.0000
  H   H27       1.0  0.7343202955507452  0.42621697700076316  0.904592119408157  1.0000
  H   H28       1.0  0.8625643339622543  0.4168907935244165  0.8743422057947824  1.0000
  H   H29       1.0  0.6294412452008586  0.3297310763989643  0.7172825664291834  1.0000
  H   H30       1.0  0.8449552653916114  0.4644311612966732  0.6874350076208485  1.0000
  C   C1        1.0  0.34721363314997694  0.23082358013656554  0.1854271264470597  1.0000
  C   C2        1.0  0.4203681047446751  0.33249626821723416  0.2898348211829358  1.0000
  C   C3        1.0  0.38027938831707087  0.4283223679085923  0.3450524858562076  1.0000
  C   C4        1.0  0.5095184819988604  0.5132603581842545  0.3810548828232497  1.0000
  C   C5        1.0  0.544183372311153  0.636572168043145  0.3914574781911496  1.0000
  C   C6        1.0  0.14596050801314678  0.005499232380763904  0.8236601664590992  1.0000
  C   C7        1.0  0.18710967466849132  0.046935442288038615  0.7468765695445754  1.0000
  C   C8        1.0  0.1546035673007751  0.14096629621013787  0.7318545147173338  1.0000
  C   C9        1.0  0.08361472849637151  0.04483552467966231  0.6206639708872501  1.0000
  C   C10       1.0  0.9523140740154262  0.002604675156327107  0.5942421939530503  1.0000
  C   C11       1.0  0.9164223908496185  0.9616386561117309  0.08428870550882546  1.0000
  C   C12       1.0  0.794749968407409  0.9512271878470316  0.08024539895424718  1.0000
  C   C13       1.0  0.7795034979788229  0.04986046886579491  0.16815369432654137  1.0000
  C   C14       1.0  0.6841273314863515  0.9465324476962422  0.1745724849866832  1.0000
  C   C15       1.0  0.6917145966657117  0.9551199613249041  0.280617116720336  1.0000
  C   C16       1.0  0.38321763650918694  0.8475955699370986  0.9414475697750502  1.0000
  C   C17       1.0  0.48434550896220696  0.8307381963801181  0.9079645900736607  1.0000
  C   C18       1.0  0.5714955687319049  0.9391842281964884  0.9018743189924833  1.0000
  C   C19       1.0  0.5795113864871483  0.8443768477124253  0.8058923708580608  1.0000
  C   C20       1.0  0.5929099761674338  0.8756963907076529  0.7189897996491013  1.0000
  C   C21       1.0  0.2338631249333646  0.9748930641062472  0.2727654045698387  1.0000
  C   C22       1.0  0.20518055042554548  0.026733460365115008  0.3723800012302334  1.0000
  C   C23       1.0  0.30483553704279853  0.13059195984620692  0.4670916943925717  1.0000
  C   C24       1.0  0.3036436805467774  0.03810014822622072  0.5050154304023735  1.0000
  C   C25       1.0  0.4015584175096621  0.9992532542737109  0.4916580471434456  1.0000
  C   C26       1.0  0.9402535661898314  0.6356036163317854  0.8830877951531874  1.0000
  C   C27       1.0  0.8182652399051664  0.540566334589876  0.8307413443976657  1.0000
  C   C28       1.0  0.7864548312226348  0.43169997804518817  0.8517898652629867  1.0000
  C   C29       1.0  0.7247400580614853  0.3593975159314696  0.7353727286949691  1.0000
  C   C30       1.0  0.7403824646098657  0.2493623939659174  0.6760435017180483  1.0000
  N   N1        1.0  0.5358566528179978  0.42388485271531817  0.30046574641113466  1.0000
  N   N2        1.0  0.12959327968722792  0.9630356831534357  0.6366504158864927  1.0000
  N   N3        1.0  0.7153921344122695  0.8578984646513206  0.1010067344399913  1.0000
  N   N4        1.0  0.46848103363753796  0.7521617558879684  0.7983062772251229  1.0000
  N   N5        1.0  0.1886136773100021  0.95430343138446  0.4283590175983746  1.0000
  N   N6        1.0  0.7773354848187284  0.4651894067663279  0.717470769729445  1.0000
  O   O1        1.0  0.16499048084916274  0.9291802382129147  0.025860062329108823  1.0000
  O   O2        1.0  0.39430494103683605  0.167105828721354  0.13495474200477986  1.0000
  O   O3        1.0  0.24079482841592184  0.21113765855979952  0.1570361824926678  1.0000
  O   O4        1.0  0.47274615166012535  0.6811490944444786  0.41608640457694424  1.0000
  O   O5        1.0  0.641874147157971  0.6866074558910641  0.3794205046762542  1.0000
  O   O6        1.0  0.11588167065543346  0.8955850036481937  0.7967732636464219  1.0000
  O   O7        1.0  0.14989689489446087  0.08319601002728662  0.9088671077699857  1.0000
  O   O8        1.0  0.9128539435579626  0.05697329518594782  0.6625472218590003  1.0000
  O   O9        1.0  0.8930455439342782  0.9169280450990558  0.505124530006441  1.0000
  O   O10       1.0  0.9501852063447842  0.9018454627622815  0.12033897170307019  1.0000
  O   O11       1.0  0.9737364238843045  0.029109876197608707  0.04946947272318175  1.0000
  O   O12       1.0  0.661421053937957  0.032459532958327514  0.33772828558740997  1.0000
  O   O13       1.0  0.7267610677952732  0.8879172560114128  0.30385803100863024  1.0000
  O   O14       1.0  0.2871808708910493  0.8036638901003315  0.8731739172733198  1.0000
  O   O15       1.0  0.4075577770050176  0.9110265050566188  0.03858301069616498  1.0000
  O   O16       1.0  0.6965114431398904  0.9454145043676621  0.7324532282600275  1.0000
  O   O17       1.0  0.5038200484472668  0.8351806142017467  0.643991631236311  1.0000
  O   O18       1.0  0.165367099701804  0.8667252003943346  0.21060073035060606  1.0000
  O   O19       1.0  0.31859376488037583  0.039656452027792014  0.2545176867678691  1.0000
  O   O20       1.0  0.4946635557093586  0.07210515775733481  0.48995676142757816  1.0000
  O   O21       1.0  0.3819834114539094  0.8969781230982508  0.48507469274012754  1.0000
  O   O22       1.0  0.0002579074680186329  0.6696675737052332  0.8292199087027043  1.0000
  O   O23       1.0  0.971431484613973  0.6759178352722515  0.9806553357638137  1.0000
  O   O24       1.0  0.7401125147841155  0.18524864988182096  0.7212840646070404  1.0000
  O   O25       1.0  0.747594358109396  0.2256737218489064  0.5851366058521349  1.0000
  O   O26       1.0  0.6546274773727561  0.9447276612548733  0.512943502684898  1.0000
