data_image0
_chemical_formula_structural       Eu4H52C52O36
_chemical_formula_sum              "Eu4 H52 C52 O36"
_cell_length_a       11.916216977221199
_cell_length_b       12.362480399313055
_cell_length_c       12.67882153768968
_cell_angle_alpha    90.00036421429469
_cell_angle_beta     99.05479919165695
_cell_angle_gamma    90.00065830672608

_space_group_name_H-M_alt    "P 1"
_space_group_IT_number       1

loop_
  _space_group_symop_operation_xyz
  'x, y, z'

loop_
  _atom_site_type_symbol
  _atom_site_label
  _atom_site_symmetry_multiplicity
  _atom_site_fract_x
  _atom_site_fract_y
  _atom_site_fract_z
  _atom_site_occupancy
  Eu  Eu1       1.0  0.3747451445269617  0.4455934949977518  0.132162495357413  1.0000
  Eu  Eu2       1.0  0.625254474937485  0.9455931804017509  0.8678375636898394  1.0000
  Eu  Eu3       1.0  0.6383750704140779  0.2289525077028003  0.18330237121823956  1.0000
  Eu  Eu4       1.0  0.3616244447413806  0.7289529953805103  0.8166974989229203  1.0000
  H   H1        1.0  0.3181827632079788  0.40784376239426473  0.47322386135427746  1.0000
  H   H2        1.0  0.6818199754852331  0.9078435011063845  0.5267774884213736  1.0000
  H   H3        1.0  0.48167711812953945  0.3361659084818527  0.7949037819000964  1.0000
  H   H4        1.0  0.5183211753022192  0.8361658193042487  0.20509617154100107  1.0000
  H   H5        1.0  0.6607326324094842  0.2808721325336024  0.5314642258984534  1.0000
  H   H6        1.0  0.33926576351623783  0.7808709467057541  0.468535271943324  1.0000
  H   H7        1.0  0.3035671654443846  0.29824373307278057  0.7953691442559998  1.0000
  H   H8        1.0  0.6964304902573846  0.7982439917441866  0.20462969714093046  1.0000
  H   H9        1.0  0.10300735909905973  0.3404127777653727  0.7371835158105995  1.0000
  H   H10       1.0  0.896990858611808  0.8404148178866182  0.2628156740655854  1.0000
  H   H11       1.0  0.12615162172635053  0.4800079819697132  0.772323527815935  1.0000
  H   H12       1.0  0.8738501352309385  0.9800095406945745  0.2276768183012905  1.0000
  H   H13       1.0  0.14283262241794858  0.37879893695441064  0.8737506196949097  1.0000
  H   H14       1.0  0.8571661068551392  0.8787980423015683  0.12624888738044857  1.0000
  H   H15       1.0  0.652251997235929  0.37744436996002423  0.8583302246946756  1.0000
  H   H16       1.0  0.3477496292382796  0.8774444149347362  0.1416716712038237  1.0000
  H   H17       1.0  0.8556467233816533  0.36970187562574364  0.8500001774741505  1.0000
  H   H18       1.0  0.1443555069834446  0.8697013437664437  0.15000085710767047  1.0000
  H   H19       1.0  0.859444627734078  0.2276908224406924  0.8721516652403947  1.0000
  H   H20       1.0  0.1405520876852151  0.7276901063462091  0.127846593125156  1.0000
  H   H21       1.0  0.830448171741253  0.3175726311689999  0.9749536617013062  1.0000
  H   H22       1.0  0.16955239213732648  0.8175723844838387  0.025046142097480094  1.0000
  H   H23       1.0  0.007187125153997364  0.5339929142953395  0.9183608284905984  1.0000
  H   H24       1.0  0.992812442305329  0.033993264797096905  0.08163823324036197  1.0000
  H   H25       1.0  0.701820393631408  0.6066565585726521  0.0470003303565889  1.0000
  H   H26       1.0  0.2981812463143854  0.10665644347468367  0.9530009305150954  1.0000
  H   H27       1.0  0.019537145053590204  0.5639840401203884  0.2597087022677798  1.0000
  H   H28       1.0  0.9804621150242951  0.063984438323601  0.7402914046334529  1.0000
  H   H29       1.0  0.6334272290156375  0.624090859282937  0.19500311616098995  1.0000
  H   H30       1.0  0.36657380387583777  0.12409216771498421  0.8049982874524202  1.0000
  H   H31       1.0  0.6816256042770449  0.6629197277120158  0.39235497817311676  1.0000
  H   H32       1.0  0.3183752389926724  0.1629176185687129  0.6076475436286087  1.0000
  H   H33       1.0  0.7162404461065464  0.5232692142907637  0.4150385831861669  1.0000
  H   H34       1.0  0.2837591107496351  0.023266576901043806  0.584961188583641  1.0000
  H   H35       1.0  0.5739822796263566  0.5632844985352746  0.3617779914697365  1.0000
  H   H36       1.0  0.4260178105415022  0.06328458436792062  0.638222110985211  1.0000
  H   H37       1.0  0.6273000627478069  0.5484108000563452  0.8796403903032297  1.0000
  H   H38       1.0  0.3726988574463094  0.04841101625896731  0.12035878923630607  1.0000
  H   H39       1.0  0.6739190085277045  0.5037414367070382  0.6953416733116171  1.0000
  H   H40       1.0  0.32607918401173924  0.0037415119660338014  0.3046563384250689  1.0000
  H   H41       1.0  0.7024192200380456  0.6435888759656619  0.6771867548163967  1.0000
  H   H42       1.0  0.29758194036998026  0.1435895616961602  0.3228140112514736  1.0000
  H   H43       1.0  0.5625167684747439  0.6001130542382783  0.6914072477268575  1.0000
  H   H44       1.0  0.4374838125300258  0.10011519500174158  0.30859315907633084  1.0000
  H   H45       1.0  0.8221330952654567  0.11697646062654601  0.07641892120025767  1.0000
  H   H46       1.0  0.1778668710578586  0.6169772212537694  0.9235816236153838  1.0000
  H   H47       1.0  0.8934058041468872  0.20387875831006852  0.1540885150084108  1.0000
  H   H48       1.0  0.10659461324988942  0.7038774236142373  0.8459135452649065  1.0000
  H   H49       1.0  0.7362011258956757  0.06429245381263372  0.3503103237876957  1.0000
  H   H50       1.0  0.26379800593921493  0.5642899790898994  0.6496889869817791  1.0000
  H   H51       1.0  0.6932658376368082  0.16960862636757668  0.4020248251951202  1.0000
  H   H52       1.0  0.3067338583639271  0.6696071030928014  0.5979753545426405  1.0000
  C   C1        1.0  0.48877574562982323  0.3421330287389992  0.4905629001133178  1.0000
  C   C2        1.0  0.5112243061535722  0.8421323883522192  0.5094371053075406  1.0000
  C   C3        1.0  0.39158092221119023  0.37951346167741207  0.5286114016704885  1.0000
  C   C4        1.0  0.6084205995051235  0.8795136513125641  0.4713897126584143  1.0000
  C   C5        1.0  0.38976431209806617  0.37624908702104415  0.6383860832482284  1.0000
  C   C6        1.0  0.6102361943647879  0.8762494008470155  0.36161420410108036  1.0000
  C   C7        1.0  0.4836603719031272  0.33915776401894254  0.709731450231274  1.0000
  C   C8        1.0  0.5163388008203427  0.839158199751644  0.29026852927156443  1.0000
  C   C9        1.0  0.5815590714402176  0.30639938012778606  0.6702380805170731  1.0000
  C   C10       1.0  0.41843869294952196  0.8063989873354842  0.329760828272903  1.0000
  C   C11       1.0  0.5835239557329075  0.30577375968882586  0.5605075340498615  1.0000
  C   C12       1.0  0.4164756114823831  0.8057732407877295  0.43949217090978  1.0000
  C   C13       1.0  0.4923602731271188  0.34068474227225914  0.3731896929591869  1.0000
  C   C14       1.0  0.5076413058444588  0.8406831980366577  0.6268095044928258  1.0000
  C   C15       1.0  0.278995694711206  0.3833195200657755  0.7809525611086555  1.0000
  C   C16       1.0  0.7210032271530764  0.8833201428943055  0.2190477819981993  1.0000
  C   C17       1.0  0.3573407056804996  0.4524236625298317  0.862950598105307  1.0000
  C   C18       1.0  0.6426591371370023  0.9524220840753869  0.1370503160476204  1.0000
  C   C19       1.0  0.1544248672080997  0.39685660163976183  0.7914457331017032  1.0000
  C   C20       1.0  0.8455741027373732  0.8968577250749449  0.2085539232049314  1.0000
  C   C21       1.0  0.6907042836324777  0.2983180259573431  0.8456333287012823  1.0000
  C   C22       1.0  0.3092953165486492  0.798316918522481  0.15436711331258826  1.0000
  C   C23       1.0  0.628802022249765  0.21504979760310045  0.9058156560972888  1.0000
  C   C24       1.0  0.37119633586303996  0.7150489879752725  0.09418329914650059  1.0000
  C   C25       1.0  0.8172771498322933  0.3030193765355449  0.8886416962671078  1.0000
  C   C26       1.0  0.18272322009075026  0.8030190206714424  0.11135798726764527  1.0000
  C   C27       1.0  0.026674626739328695  0.5494152630406788  0.09065930837179788  1.0000
  C   C28       1.0  0.9733251462590572  0.0494158587907592  0.9093398808056816  1.0000
  C   C29       1.0  0.96596180359618  0.5513218182722497  0.9871854693532995  1.0000
  C   C30       1.0  0.03403799481160521  0.0513224541956987  0.012813735579527497  1.0000
  C   C31       1.0  0.8494026476843501  0.5718606910066626  0.9714373242509707  1.0000
  C   C32       1.0  0.1505975567772921  0.07186028966842171  0.02856284907295499  1.0000
  C   C33       1.0  0.7927307963278168  0.5905430181954259  0.058637937520643384  1.0000
  C   C34       1.0  0.20726965712328396  0.0905434413410475  0.9413623901916423  1.0000
  C   C35       1.0  0.8558705997541906  0.5884575485209425  0.1621594686014163  1.0000
  C   C36       1.0  0.14412982589965398  0.08845741805148319  0.8378408418749074  1.0000
  C   C37       1.0  0.9723686902992695  0.5680278802698382  0.17897745060831477  1.0000
  C   C38       1.0  0.027631463084837486  0.06802797197257603  0.82102269104449  1.0000
  C   C39       1.0  0.1504037625533172  0.5248553923883321  0.10646276202142248  1.0000
  C   C40       1.0  0.8495956831306303  0.0248561368992384  0.8935362242015256  1.0000
  C   C41       1.0  0.6921591988367765  0.5723266643143817  0.24897071796560502  1.0000
  C   C42       1.0  0.3078419835781503  0.0723253593008977  0.7510302592095782  1.0000
  C   C43       1.0  0.675987906501561  0.45578106565101006  0.20930266402348247  1.0000
  C   C44       1.0  0.32401087698742975  0.9557809706618912  0.7906966792072723  1.0000
  C   C45       1.0  0.6643632560599073  0.580519404137732  0.3619737898416701  1.0000
  C   C46       1.0  0.3356371961238764  0.08051768084185801  0.6380272536982332  1.0000
  C   C47       1.0  0.6829055366024761  0.5997865881610807  0.8386779719592566  1.0000
  C   C48       1.0  0.3170949077020708  0.09978645275668187  0.16132163346819076  1.0000
  C   C49       1.0  0.6635729770154697  0.7172840289093756  0.8671270889349783  1.0000
  C   C50       1.0  0.3364279291178391  0.21728311563840924  0.13287188877878006  1.0000
  C   C51       1.0  0.6534080126318501  0.5861407173065203  0.7178346695278464  1.0000
  C   C52       1.0  0.3465923821523234  0.0861416837811078  0.2821656218074367  1.0000
  O   O1        1.0  0.5686822940674575  0.2816135831669442  0.3414149053348652  1.0000
  O   O2        1.0  0.43131668647441757  0.7816105904309791  0.6585830026253132  1.0000
  O   O3        1.0  0.42035365878480485  0.3975651299186041  0.31263606653351417  1.0000
  O   O4        1.0  0.5796489429164993  0.8975639614507216  0.6873651982989627  1.0000
  O   O5        1.0  0.2909577201431333  0.4106155398661572  0.6724101748890375  1.0000
  O   O6        1.0  0.7090432443357031  0.9106167273582884  0.3275903964575803  1.0000
  O   O7        1.0  0.38967193845993364  0.5443826442185296  0.8352256727425953  1.0000
  O   O8        1.0  0.6103273250394918  0.04438091868262721  0.1647758695070607  1.0000
  O   O9        1.0  0.38561459521448427  0.41067763521864015  0.9542679444797952  1.0000
  O   O10       1.0  0.6143863700674927  0.9106751579805278  0.04573262736481348  1.0000
  O   O11       1.0  0.6800764987206805  0.27696752308069966  0.7335703233290187  1.0000
  O   O12       1.0  0.31992087341888714  0.7769664436677034  0.2664283422423921  1.0000
  O   O13       1.0  0.6243390294454302  0.23937613130765817  0.0019103583798028  1.0000
  O   O14       1.0  0.3756623034562665  0.7393763209161011  0.9980896005693081  1.0000
  O   O15       1.0  0.5865449554254383  0.1304482678069405  0.8587755799753367  1.0000
  O   O16       1.0  0.41345408636208  0.6304498450554306  0.1412234774976682  1.0000
  O   O17       1.0  0.2034060958335999  0.4994735317575234  0.19778918599214274  1.0000
  O   O18       1.0  0.7965922982040253  0.9994730718177395  0.8022097182937528  1.0000
  O   O19       1.0  0.2037918450311835  0.5288101336376061  0.024911801305876193  1.0000
  O   O20       1.0  0.7962086251072975  0.0288108116366601  0.9750880176018695  1.0000
  O   O21       1.0  0.799020571593637  0.5689609815941452  0.8666465650452437  1.0000
  O   O22       1.0  0.2009787547944768  0.0689585743064498  0.1333535829723047  1.0000
  O   O23       1.0  0.7444637571859544  0.7836458055698544  0.8831701528716421  1.0000
  O   O24       1.0  0.2555367515274725  0.2836430863242184  0.11683176656173799  1.0000
  O   O25       1.0  0.5600894944310115  0.746731434505648  0.8682504447186759  1.0000
  O   O26       1.0  0.4399105677505942  0.246732466708842  0.1317463790059676  1.0000
  O   O27       1.0  0.8078665737322837  0.6059572982447677  0.25268816360893  1.0000
  O   O28       1.0  0.1921350568884677  0.1059563082571344  0.7473130914806703  1.0000
  O   O29       1.0  0.7546858209035677  0.38688843818424357  0.23113928398630174  1.0000
  O   O30       1.0  0.24531345858604678  0.8868865242506916  0.7688578952642046  1.0000
  O   O31       1.0  0.5785393332849793  0.428951600848059  0.15701695885651648  1.0000
  O   O32       1.0  0.4214592249847088  0.9289529186411086  0.8429829613382296  1.0000
  O   O33       1.0  0.8217715049483444  0.165051968215316  0.14054749129415  1.0000
  O   O34       1.0  0.1782282626713467  0.6650523211190132  0.8594534494650716  1.0000
  O   O35       1.0  0.7406396513858552  0.1439261754494936  0.350803976097083  1.0000
  O   O36       1.0  0.2593597023318566  0.6439236485018897  0.6491959914047243  1.0000
