data_image0
_chemical_formula_structural       Tb2CoH28C16O18
_chemical_formula_sum              "Tb2 Co1 H28 C16 O18"
_cell_length_a       8.868252391958274
_cell_length_b       9.0156314136402
_cell_length_c       10.393518310594061
_cell_angle_alpha    82.24083809786494
_cell_angle_beta     69.65059453744449
_cell_angle_gamma    77.97284647351877

_space_group_name_H-M_alt    "P 1"
_space_group_IT_number       1

loop_
  _space_group_symop_operation_xyz
  'x, y, z'

loop_
  _atom_site_type_symbol
  _atom_site_label
  _atom_site_symmetry_multiplicity
  _atom_site_fract_x
  _atom_site_fract_y
  _atom_site_fract_z
  _atom_site_occupancy
  Tb  Tb1       1.0  0.9145271678226404  0.07532995139494861  0.6891854295897845  1.0000
  Tb  Tb2       1.0  0.08547319603967204  0.9246685937936763  0.3108147351215962  1.0000
  Co  Co1       1.0  2.5623854539846892e-06  0.999995395326721  0.9999984460064584  1.0000
  H   H1        1.0  0.8525709392314337  0.3435861727249475  0.08038861489463062  1.0000
  H   H2        1.0  0.147434812698691  0.6564053543355542  0.9196043630311055  1.0000
  H   H3        1.0  0.6639219711043153  0.4318832220576355  0.049921359621492925  1.0000
  H   H4        1.0  0.3360835507061779  0.5681074058871334  0.9500785450250149  1.0000
  H   H5        1.0  0.8502795454190278  0.49278824185777387  0.9498856237315539  1.0000
  H   H6        1.0  0.1497215688737085  0.507202135083425  0.05010966884452019  1.0000
  H   H7        1.0  0.7358177642406502  0.7393951441509757  0.09207411119410845  1.0000
  H   H8        1.0  0.26418042467005876  0.26060224096694645  0.9079267709383035  1.0000
  H   H9        1.0  0.5958260670303089  0.7218914371525216  0.0062364344510754495  1.0000
  H   H10       1.0  0.4041701603570473  0.27811041291811733  0.9937624227242882  1.0000
  H   H11       1.0  0.55650569530448  0.8818390714849402  0.09944231479025943  1.0000
  H   H12       1.0  0.4434907191608629  0.11816064172126063  0.900560637665322  1.0000
  H   H13       1.0  0.5026875764385464  0.8780534197725063  0.5814698169645781  1.0000
  H   H14       1.0  0.49732245363061606  0.12195767499594011  0.4185242329623549  1.0000
  H   H15       1.0  0.44904401094009194  0.7210469510434195  0.6997467815376127  1.0000
  H   H16       1.0  0.5509744741582664  0.27895374103235343  0.30023974821401833  1.0000
  H   H17       1.0  0.5185035842982443  0.8680988043250014  0.750405768638473  1.0000
  H   H18       1.0  0.48150696608171006  0.13190322308028615  0.24959033587392557  1.0000
  H   H19       1.0  0.18206427780310003  0.3228288479025211  0.2447714792213987  1.0000
  H   H20       1.0  0.8179298995206279  0.6771801916172678  0.7552375358843549  1.0000
  H   H21       1.0  0.2547170055612041  0.40673807014614743  0.3541323323872803  1.0000
  H   H22       1.0  0.7452800900273643  0.593261925922377  0.6458781158907599  1.0000
  H   H23       1.0  0.055635534617330444  0.47289349854423807  0.3518638002787213  1.0000
  H   H24       1.0  0.9443620166350328  0.5271167130022082  0.648144186699419  1.0000
  H   H25       1.0  0.6027980018266345  0.16633912061347908  0.6328122817119493  1.0000
  H   H26       1.0  0.3972066183999131  0.8336628131487772  0.3671844005172745  1.0000
  H   H27       1.0  0.7366730220841614  0.12350352673266234  0.48725048770919005  1.0000
  H   H28       1.0  0.26333100344096017  0.8764950204605032  0.5127477690662801  1.0000
  C   C1        1.0  0.27138123061160246  0.9223842494166661  0.7461271895142689  1.0000
  C   C2        1.0  0.7286211499316051  0.07761655813818183  0.2538711859521073  1.0000
  C   C3        1.0  0.7954560555965384  0.39296407274217426  0.002790478903875647  1.0000
  C   C4        1.0  0.20454475427066388  0.6070322001288205  0.9972098778231885  1.0000
  C   C5        1.0  0.6556434320411951  0.8008013471615387  0.035394391885667155  1.0000
  C   C6        1.0  0.3443540590549147  0.19920048100174634  0.9646031787669715  1.0000
  C   C7        1.0  0.8269047187361946  0.28238577960934924  0.8970382676889912  1.0000
  C   C8        1.0  0.17309090429082366  0.7176001960966473  0.10296481734820875  1.0000
  C   C9        1.0  0.748708198631192  0.8877021294786901  0.9101153846448188  1.0000
  C   C10       1.0  0.2512891630014663  0.1122997664111907  0.08988413764008381  1.0000
  C   C11       1.0  0.44694134155213294  0.8444881450601758  0.690606290153383  1.0000
  C   C12       1.0  0.5530599887105864  0.15551830942544606  0.30939062945765294  1.0000
  C   C13       1.0  0.14924007048895044  0.3699148244009863  0.34414248427416544  1.0000
  C   C14       1.0  0.8507545695310339  0.630087216893493  0.6558625385045788  1.0000
  C   C15       1.0  0.08411300590834964  0.2589702861766058  0.4609753124087918  1.0000
  C   C16       1.0  0.9158833989828136  0.7410361882118225  0.5390248016608724  1.0000
  O   O1        1.0  0.1896048577249018  0.9605164864632485  0.6628119891103953  1.0000
  O   O2        1.0  0.8104012587870172  0.03947752805061101  0.33718634098985234  1.0000
  O   O3        1.0  0.049965828130403574  0.2904787547403629  0.5839866532395207  1.0000
  O   O4        1.0  0.9500221479971099  0.709526635250825  0.4160196350486559  1.0000
  O   O5        1.0  0.9039737881754701  0.8818342980323663  0.8794775467237702  1.0000
  O   O6        1.0  0.09602775543078215  0.11815853249888875  0.12052212221068713  1.0000
  O   O7        1.0  0.9548477423929136  0.17363591704769024  0.8752857495661746  1.0000
  O   O8        1.0  0.04514593834385032  0.8263602502243332  0.12471549558430446  1.0000
  O   O9        1.0  0.6763020634553167  0.9690137446372733  0.8311523572754215  1.0000
  O   O10       1.0  0.32369323599780836  0.030991649362995605  0.16885011514094123  1.0000
  O   O11       1.0  0.739981215085123  0.2955172800639404  0.8213033089342477  1.0000
  O   O12       1.0  0.2600142041725489  0.7044755584141813  0.17869986516543432  1.0000
  O   O13       1.0  0.05659018121623653  0.13037389287557496  0.43880573687655317  1.0000
  O   O14       1.0  0.943404478036832  0.8696338750322141  0.5611994709725183  1.0000
  O   O15       1.0  0.714236595528419  0.17290136783577031  0.57478828527708  1.0000
  O   O16       1.0  0.28576486419775887  0.8271050189232556  0.42520668270169193  1.0000
  O   O17       1.0  0.21652799447906543  0.9406234178328959  0.8745557063012018  1.0000
  O   O18       1.0  0.7834793210098778  0.05937060863691101  0.12544231309245657  1.0000
