data_image0
_chemical_formula_structural       Zn2H58C76N14O8
_chemical_formula_sum              "Zn2 H58 C76 N14 O8"
_cell_length_a       14.683587932065025
_cell_length_b       15.382389063181547
_cell_length_c       16.560989740288463
_cell_angle_alpha    90.43736817257897
_cell_angle_beta     97.93050756160494
_cell_angle_gamma    99.73371914432876

_space_group_name_H-M_alt    "P 1"
_space_group_IT_number       1

loop_
  _space_group_symop_operation_xyz
  'x, y, z'

loop_
  _atom_site_type_symbol
  _atom_site_label
  _atom_site_symmetry_multiplicity
  _atom_site_fract_x
  _atom_site_fract_y
  _atom_site_fract_z
  _atom_site_occupancy
  Zn  Zn1       1.0  0.5957090526258781  0.4873902654610802  0.5238223675559297  1.0000
  Zn  Zn2       1.0  0.4116460724804015  0.5311099919790722  0.47316470305114683  1.0000
  H   H1        1.0  0.41950863891585033  0.5487148613073172  0.22039887078623374  1.0000
  H   H2        1.0  0.4150808930288505  0.5651763344430805  0.7657388633791911  1.0000
  H   H3        1.0  0.6466180042398051  0.17172876172826074  0.5197497918273726  1.0000
  H   H4        1.0  0.44330065806633456  0.866404020120804  0.3647020433275827  1.0000
  H   H5        1.0  0.9920986001462139  0.6423125459317587  0.3150590753047737  1.0000
  H   H6        1.0  0.9936179137717573  0.3110248450156091  0.6220423504820829  1.0000
  H   H7        1.0  0.7612307901401109  0.5167510730042152  0.4538465338292568  1.0000
  H   H8        1.0  0.23193127481339806  0.46484187975755725  0.5126067480840959  1.0000
  H   H9        1.0  0.1595226034818253  0.6864340274565777  0.3127702696377739  1.0000
  H   H10       1.0  0.8501709585314429  0.32779756726745296  0.6787605840329861  1.0000
  H   H11       1.0  0.3920718787037387  0.5101246281434725  0.9044770956305542  1.0000
  H   H12       1.0  0.3859228129603379  0.48719101315366226  0.07741648609698612  1.0000
  H   H13       1.0  0.5338130487171497  0.2283787060617826  0.5030245351261158  1.0000
  H   H14       1.0  0.49152731578988096  0.7927669220405064  0.45472373655573517  1.0000
  H   H15       1.0  0.705249986089079  0.35473958438527825  0.7259424973391403  1.0000
  H   H16       1.0  0.6309152828367246  0.4165676151361665  0.6712061463317839  1.0000
  H   H17       1.0  0.32342641313282183  0.7012403602152943  0.296777235112927  1.0000
  H   H18       1.0  0.39628191581258676  0.6345231516006818  0.34568870029071513  1.0000
  H   H19       1.0  0.8349089946091867  0.6893488549228051  0.3938598315562062  1.0000
  H   H20       1.0  0.6991981031193363  0.7101919408061618  0.29293420417268123  1.0000
  H   H21       1.0  0.6309332418224116  0.5934687295823975  0.18581354879803771  1.0000
  H   H22       1.0  0.6947294614117822  0.4538885937102534  0.18420498366580065  1.0000
  H   H23       1.0  0.8259744255620306  0.4305006283814521  0.28859443140708413  1.0000
  H   H24       1.0  0.16939384766988752  0.3551974244807141  0.663483694409166  1.0000
  H   H25       1.0  0.276655749358568  0.2466678369408584  0.6656268625097681  1.0000
  H   H26       1.0  0.2928803975354555  0.1689427300471209  0.5374610147735766  1.0000
  H   H27       1.0  0.2013716141166597  0.2012007745436151  0.4067804587752307  1.0000
  H   H28       1.0  0.0953323723845259  0.3115748274326647  0.4036672470005486  1.0000
  H   H29       1.0  0.4979997645660035  0.24778930833926444  0.7047023586124797  1.0000
  H   H30       1.0  0.47550287933522367  0.31518340139299283  0.6273667137731848  1.0000
  H   H31       1.0  0.571677011586999  0.2643822700760338  0.2997001618545739  1.0000
  H   H32       1.0  0.6031601378285671  0.3601695295945646  0.3574478663054634  1.0000
  H   H33       1.0  0.231375164117928  0.40230890904136635  0.8793268586926005  1.0000
  H   H34       1.0  0.0716170339600879  0.37593157319248865  0.9168648004767306  1.0000
  H   H35       1.0  0.03726697691813289  0.2863359773500988  0.0374721503933344  1.0000
  H   H36       1.0  0.16400547764258988  0.22177967894861442  0.11826876697769961  1.0000
  H   H37       1.0  0.3249739105314119  0.25064475648793655  0.0819212333789423  1.0000
  H   H38       1.0  0.5981362511982765  0.5072994526864035  0.04205584605941941  1.0000
  H   H39       1.0  0.7563215081000791  0.5317070246512401  0.0003782975710322343  1.0000
  H   H40       1.0  0.8096829395440182  0.4120309190947323  0.9264544023974111  1.0000
  H   H41       1.0  0.7017707784643932  0.26848279955439114  0.8926829142449222  1.0000
  H   H42       1.0  0.5423348699302153  0.24671055023419092  0.9302141908598927  1.0000
  H   H43       1.0  0.5522912639788515  0.2508710767019835  0.08731480366108003  1.0000
  H   H44       1.0  0.6117425388525674  0.25832469495981053  0.18241761179159252  1.0000
  H   H45       1.0  0.38365487233563295  0.18796504249770862  0.7727961039382835  1.0000
  H   H46       1.0  0.3708227540826882  0.20401546377659938  0.8711439665215579  1.0000
  H   H47       1.0  0.785169004190209  0.1592907179253658  0.5861678205721645  1.0000
  H   H48       1.0  0.8310551412415207  0.06797201071921678  0.5820691638871764  1.0000
  H   H49       1.0  0.3516023032633342  0.8946907611677943  0.2437279480090524  1.0000
  H   H50       1.0  0.31243700261044444  0.9934016272892521  0.22887544385793035  1.0000
  H   H51       1.0  0.31401248911156193  0.34394727062313984  0.331943514721651  1.0000
  H   H52       1.0  0.25207510916911957  0.260322672489444  0.2645731971609849  1.0000
  H   H53       1.0  0.7383747395554111  0.6895175828340286  0.6043632593784096  1.0000
  H   H54       1.0  0.8234757920012041  0.778425908157807  0.6292535047276431  1.0000
  H   H55       1.0  0.802809995193101  0.8863159786257241  0.6978593975150602  1.0000
  H   H56       1.0  0.7965943176836418  0.9916294122390638  0.6738611432869349  1.0000
  H   H57       1.0  0.22222796928675587  0.09602699449118998  0.2519277430933188  1.0000
  H   H58       1.0  0.29359468843279046  0.16041826831010297  0.1996124326710031  1.0000
  C   C1        1.0  0.5769628973515638  0.6725173281075669  0.5238231270025224  1.0000
  C   C2        1.0  0.43779079983337243  0.3466585658666688  0.4546258788595452  1.0000
  C   C3        1.0  0.61256527322859  0.769182643706607  0.5311093667530571  1.0000
  C   C4        1.0  0.4264508553119413  0.2580978111951566  0.4149689143333788  1.0000
  C   C5        1.0  0.719727502474349  0.8983864512636757  0.5924702022315105  1.0000
  C   C6        1.0  0.354014860765808  0.14007474217438431  0.31499324062367146  1.0000
  C   C7        1.0  0.6972817285395152  0.8059708292737041  0.5802747667879447  1.0000
  C   C8        1.0  0.3620850554753262  0.22820032520100844  0.3433747303889235  1.0000
  C   C9        1.0  0.5575844161472432  0.8240308314088695  0.4891503499244082  1.0000
  C   C10       1.0  0.4845763905351462  0.2022454774100666  0.4498248943567803  1.0000
  C   C11       1.0  0.5840181943541934  0.9159442256207271  0.4920171451026577  1.0000
  C   C12       1.0  0.48011387434384983  0.11546867919468438  0.4219682273135917  1.0000
  C   C13       1.0  0.6664927367933797  0.9549616922995907  0.5461522583717056  1.0000
  C   C14       1.0  0.4094194431485079  0.08106515731577699  0.3551877623683951  1.0000
  C   C15       1.0  0.526805988654587  0.9708687187422737  0.4448375759187613  1.0000
  C   C16       1.0  0.5442078503808715  0.0624166374140884  0.46198766365536414  1.0000
  C   C17       1.0  0.6270069692201188  0.1000201431245031  0.5138670244796444  1.0000
  C   C18       1.0  0.4549675119692438  0.9367825820013065  0.380732124801284  1.0000
  C   C19       1.0  0.6893340621826312  0.050038405121476594  0.5512414358573707  1.0000
  C   C20       1.0  0.4004467458243041  0.9882420798655146  0.33380899613526094  1.0000
  C   C21       1.0  0.1733058833769476  0.6356848665254231  0.3562064419183884  1.0000
  C   C22       1.0  0.8325400411400494  0.3702036228837499  0.6284987375404114  1.0000
  C   C23       1.0  0.5231441073218477  0.4946384663366389  0.34706013059295066  1.0000
  C   C24       1.0  0.4608468349046929  0.4760384930621768  0.6424848374914803  1.0000
  C   C25       1.0  0.2638961543803333  0.6193053835570766  0.3772930402957614  1.0000
  C   C26       1.0  0.7471234935591153  0.400017965613543  0.6194484592354073  1.0000
  C   C27       1.0  0.21038475403864965  0.5101257220704127  0.4665458045211679  1.0000
  C   C28       1.0  0.7858610605416486  0.47614746605052727  0.5028564390922058  1.0000
  C   C29       1.0  0.11586774477549257  0.5177539669575635  0.4449950862236848  1.0000
  C   C30       1.0  0.875770159057211  0.4541992602703217  0.5098985443640985  1.0000
  C   C31       1.0  0.09920681310555321  0.5857449642926582  0.3891042453257683  1.0000
  C   C32       1.0  0.8972249108388793  0.3967167981983763  0.5749396668361655  1.0000
  C   C33       1.0  0.0382745791483785  0.4671297992867167  0.4790509093884978  1.0000
  C   C34       1.0  0.9472953565552159  0.4896001113571912  0.46071007133149083  1.0000
  C   C35       1.0  0.9315049223559698  0.5498128725878713  0.39530494049585496  1.0000
  C   C36       1.0  0.04983786308238083  0.39438415469065563  0.5326493696584438  1.0000
  C   C37       1.0  0.0058557254195860725  0.5973078410896874  0.36412826040835  1.0000
  C   C38       1.0  0.9828669225819341  0.3646787466109842  0.5809738618548153  1.0000
  C   C39       1.0  0.502779645972211  0.4522640213650533  0.2645542877612996  1.0000
  C   C40       1.0  0.4349332173689148  0.43883453234457886  0.7209497053160236  1.0000
  C   C41       1.0  0.4460539824582169  0.490105999344081  0.20375992185336142  1.0000
  C   C42       1.0  0.4151222990231672  0.4960552460792228  0.7796065111798782  1.0000
  C   C43       1.0  0.4269982083627894  0.4557469269803817  0.1248460767730677  1.0000
  C   C44       1.0  0.4011053586237238  0.4650938089806332  0.8561481734310021  1.0000
  C   C45       1.0  0.4651745796121389  0.38197171881407144  0.10303072403630151  1.0000
  C   C46       1.0  0.3984194437843768  0.37540448157277234  0.8729106238225699  1.0000
  C   C47       1.0  0.5163206930563717  0.3396686654383174  0.1638130090317276  1.0000
  C   C48       1.0  0.4105412132400019  0.3164980419728707  0.8118765220266226  1.0000
  C   C49       1.0  0.5355574368874088  0.37421948222604584  0.24560026542422972  1.0000
  C   C50       1.0  0.43599518618461264  0.3494568398242278  0.736794073702882  1.0000
  C   C51       1.0  0.46437630374353495  0.362321847499949  0.015146650736014136  1.0000
  C   C52       1.0  0.3861788380083481  0.35013219838702975  0.9582256325285742  1.0000
  C   C53       1.0  0.8395318014918159  0.5586260384450625  0.34779082729212973  1.0000
  C   C54       1.0  0.8033131059549133  0.6372773444452092  0.34849551157851283  1.0000
  C   C55       1.0  0.7276153340279735  0.6492444129663255  0.29111517413376486  1.0000
  C   C56       1.0  0.6893186376801165  0.5839602756557483  0.2312299579980248  1.0000
  C   C57       1.0  0.7245908856766902  0.5051441218834967  0.23065976340966196  1.0000
  C   C58       1.0  0.7980651599090365  0.49184708623594997  0.2893632253759791  1.0000
  C   C59       1.0  0.1248480606050819  0.34047579299028297  0.533456527614895  1.0000
  C   C60       1.0  0.175966364900134  0.32106979875398883  0.6071242976433454  1.0000
  C   C61       1.0  0.23593659447298163  0.2597225034662499  0.6084384645094829  1.0000
  C   C62       1.0  0.2453008805197356  0.21632644066633586  0.5365276411848826  1.0000
  C   C63       1.0  0.19446909168290458  0.2351436499865187  0.4629931650295234  1.0000
  C   C64       1.0  0.13543438003119226  0.29734071042832966  0.46108292567524245  1.0000
  C   C65       1.0  0.29034036074385483  0.33036328508426754  0.9791020008386155  1.0000
  C   C66       1.0  0.21675067571454315  0.3631620960390761  0.9321058347741769  1.0000
  C   C67       1.0  0.1268264714877958  0.34808478828249884  0.9533045328758476  1.0000
  C   C68       1.0  0.1075528737762568  0.29812670096196564  0.020857021858127205  1.0000
  C   C69       1.0  0.17925182853188912  0.2626217017700654  0.06648966934021423  1.0000
  C   C70       1.0  0.26932235524284914  0.27835469871876467  0.04604869609910621  1.0000
  C   C71       1.0  0.5592880802344596  0.37535572424540914  0.9893706398687954  1.0000
  C   C72       1.0  0.621167013157539  0.4551582862049345  0.009169968522904512  1.0000
  C   C73       1.0  0.7100097427815298  0.4686770975242851  0.9857691700684655  1.0000
  C   C74       1.0  0.7396568996717149  0.40177230564795247  0.943760476428139  1.0000
  C   C75       1.0  0.67926009841468  0.32168039543029897  0.9246944277441145  1.0000
  C   C76       1.0  0.5897129167912069  0.30871106506440776  0.9469892343364991  1.0000
  N   N1        1.0  0.28085804499847467  0.5579113715148692  0.4344655178119795  1.0000
  N   N2        1.0  0.7241391791607799  0.45036868953164333  0.5541758987591622  1.0000
  N   N3        1.0  0.6834835460765162  0.3798476099162045  0.6717705711391417  1.0000
  N   N4        1.0  0.3383325391801435  0.6637264651071747  0.3450988707880853  1.0000
  N   N5        1.0  0.4554944244499665  0.289512995886973  0.6802275910371947  1.0000
  N   N6        1.0  0.5913456172186357  0.33115434543385197  0.3004359258282534  1.0000
  N   N7        1.0  0.5500016094788833  0.2628413423177989  0.14740934877935533  1.0000
  N   N8        1.0  0.40645043110081497  0.22593104807150158  0.8247029982142848  1.0000
  N   N9        1.0  0.7748810210896976  0.0932018088469064  0.5956597177439421  1.0000
  N   N10       1.0  0.3348363811497137  0.9489259980556425  0.2692810188221628  1.0000
  N   N11       1.0  0.3115406936416959  0.285302514503492  0.3017107082061372  1.0000
  N   N12       1.0  0.7540677718341015  0.7537744465588573  0.6250304437309853  1.0000
  N   N13       1.0  0.7968812262122141  0.9296413059709604  0.6518596354163293  1.0000
  N   N14       1.0  0.2900298130700135  0.11206876764205731  0.24156573325084452  1.0000
  O   O1        1.0  0.63665765176313  0.619807589374119  0.5288833662785991  1.0000
  O   O2        1.0  0.38395117416975927  0.4006342103266577  0.42747223609102053  1.0000
  O   O3        1.0  0.4888259139018557  0.6486419022495156  0.5126649733455935  1.0000
  O   O4        1.0  0.5034412620985477  0.3660987231907312  0.5146888377452683  1.0000
  O   O5        1.0  0.5860683154454592  0.4691164787184617  0.3989777418134396  1.0000
  O   O6        1.0  0.3956744053636854  0.491546716304029  0.5889619898707041  1.0000
  O   O7        1.0  0.476187467384861  0.5532764078494948  0.3647469895256493  1.0000
  O   O8        1.0  0.5480191652995926  0.48958029667085157  0.6362286795929748  1.0000
