data_image0
_chemical_formula_structural       K2Dy2H8C40O16F48
_chemical_formula_sum              "K2 Dy2 H8 C40 O16 F48"
_cell_length_a       11.872954217707179
_cell_length_b       12.17988260081914
_cell_length_c       13.33572215158258
_cell_angle_alpha    73.82740913960353
_cell_angle_beta     65.02882714886027
_cell_angle_gamma    63.84191975230481

_space_group_name_H-M_alt    "P 1"
_space_group_IT_number       1

loop_
  _space_group_symop_operation_xyz
  'x, y, z'

loop_
  _atom_site_type_symbol
  _atom_site_label
  _atom_site_symmetry_multiplicity
  _atom_site_fract_x
  _atom_site_fract_y
  _atom_site_fract_z
  _atom_site_occupancy
  K   K1        1.0  3.6482808524633413e-06  0.5000065945701451  0.4999957191677922  1.0000
  K   K2        1.0  0.9999991552016709  2.801717634799906e-06  0.9999990779931025  1.0000
  Dy  Dy1       1.0  0.9179269760208868  0.7247519767862797  0.23458625742247832  1.0000
  Dy  Dy2       1.0  0.08207404034611442  0.27524663133518595  0.7654112335662475  1.0000
  H   H1        1.0  0.47738274033508776  0.7017006614270045  0.4512577557847521  1.0000
  H   H2        1.0  0.5226191526255022  0.29829798710578365  0.548743899296504  1.0000
  H   H3        1.0  0.7506710444243083  0.6958286458557481  0.9729226735671759  1.0000
  H   H4        1.0  0.2493292276244218  0.3041718035532385  0.027074617978008992  1.0000
  H   H5        1.0  0.8427727027388983  0.0287210443419283  0.45253938320510656  1.0000
  H   H6        1.0  0.1572299867547572  0.9712757231720485  0.5474579628189318  1.0000
  H   H7        1.0  0.4064300262426101  0.524269499543493  0.12694795044772186  1.0000
  H   H8        1.0  0.5935696108346918  0.4757300881386398  0.8730565479785711  1.0000
  C   C1        1.0  0.6583973595783588  0.5173052835934941  0.5275970622875334  1.0000
  C   C2        1.0  0.3416037716590311  0.4826952194705853  0.4724058961837797  1.0000
  C   C3        1.0  0.6836531769231938  0.6254211048817311  0.43898336434007496  1.0000
  C   C4        1.0  0.3163474150698847  0.37457846361478175  0.5610185354276283  1.0000
  C   C5        1.0  0.5740068750162237  0.7108934732884435  0.4084300338779343  1.0000
  C   C6        1.0  0.42599687556112537  0.2891051766044157  0.591570932386901  1.0000
  C   C7        1.0  0.5860446986452812  0.8101489863422201  0.32630640472760325  1.0000
  C   C8        1.0  0.41395887614442717  0.18984781496119746  0.6736943539721807  1.0000
  C   C9        1.0  0.4594380605844179  0.9088707058273967  0.3032681349329849  1.0000
  C   C10       1.0  0.5405640374501317  0.09112516685031838  0.6967326608882017  1.0000
  C   C11       1.0  0.761511500248332  0.5020738373457121  0.12808346637231685  1.0000
  C   C12       1.0  0.23848281490960227  0.4979321398275829  0.8719153558919147  1.0000
  C   C13       1.0  0.8141092447231908  0.6032186390139884  0.11382140269059009  1.0000
  C   C14       1.0  0.1858880358264443  0.39678458420998197  0.8861777813393061  1.0000
  C   C15       1.0  0.7992131532298713  0.6965685824139812  0.025773694305129928  1.0000
  C   C16       1.0  0.20078879194550583  0.3034300263875238  0.9742234522753818  1.0000
  C   C17       1.0  0.8574983871015294  0.7838462433241415  0.9975236640245483  1.0000
  C   C18       1.0  0.142502432893977  0.21615513403052222  0.0024739348074476046  1.0000
  C   C19       1.0  0.8651991988474278  0.8584668224000752  0.8816893093329058  1.0000
  C   C20       1.0  0.1347997603524007  0.1415391581733942  0.1183077908902632  1.0000
  C   C21       1.0  0.9958079606248872  0.8109502146548097  0.5221506270510758  1.0000
  C   C22       1.0  0.004197910381506624  0.18905021896873103  0.47784234379446383  1.0000
  C   C23       1.0  0.9394305396368238  0.8370150579243398  0.4287915542698356  1.0000
  C   C24       1.0  0.06057626335687157  0.1629807718003704  0.5712022595927451  1.0000
  C   C25       1.0  0.8680730741683786  0.9608302714731423  0.40072881121158566  1.0000
  C   C26       1.0  0.13192887100700554  0.03916833732835558  0.5992683353689188  1.0000
  C   C27       1.0  0.8360296792075346  0.00018324482457639972  0.30391952911462283  1.0000
  C   C28       1.0  0.1639691192649622  0.9998116713798311  0.6960789869772198  1.0000
  C   C29       1.0  0.7525624004924435  0.1377061119377601  0.28247721887724714  1.0000
  C   C30       1.0  0.2474346813410833  0.8622906779835376  0.7175251992632283  1.0000
  C   C31       1.0  0.2916745940971949  0.3628185346772668  0.25300270320933294  1.0000
  C   C32       1.0  0.7083254412466431  0.6371801124954573  0.7469996406883511  1.0000
  C   C33       1.0  0.2191392927589958  0.5000226638922598  0.21698449034556697  1.0000
  C   C34       1.0  0.7808607251799132  0.4999759965242205  0.7830193563856935  1.0000
  C   C35       1.0  0.29861426538607827  0.5680455392146014  0.14862840223729276  1.0000
  C   C36       1.0  0.7013851784986542  0.4319522131218534  0.8513773914575326  1.0000
  C   C37       1.0  0.24269676536884077  0.6926517531936652  0.11074791678750275  1.0000
  C   C38       1.0  0.757301394953309  0.3073469058627509  0.8892566187601859  1.0000
  C   C39       1.0  0.3404358308031233  0.7615147303671679  0.04850524383132185  1.0000
  C   C40       1.0  0.6595606476899076  0.23848577591861891  0.9515001880978391  1.0000
  O   O1        1.0  0.8019400758145848  0.6237830672447728  0.401115516868046  1.0000
  O   O2        1.0  0.19806313551845284  0.3762146480805271  0.5988843906931862  1.0000
  O   O3        1.0  0.691647630411559  0.8313367759080067  0.2675639133264268  1.0000
  O   O4        1.0  0.3083538990923671  0.16866278664666368  0.7324368906162704  1.0000
  O   O5        1.0  0.8712796787233257  0.5889040752278943  0.18038001511887825  1.0000
  O   O6        1.0  0.1287196471120993  0.4110963867448234  0.8196191236681044  1.0000
  O   O7        1.0  0.9112011572316091  0.8035388097120728  0.05180962470962674  1.0000
  O   O8        1.0  0.08879875136045  0.1964625537187956  0.9481868156969995  1.0000
  O   O9        1.0  0.8665032859764209  0.935622876442345  0.2297745570469871  1.0000
  O   O10       1.0  0.13349513715802167  0.06437756498469578  0.7702226718978338  1.0000
  O   O11       1.0  0.9680747279413423  0.7447638220852256  0.383633013663733  1.0000
  O   O12       1.0  0.031930569010882016  0.25523570345828966  0.6163619041453713  1.0000
  O   O13       1.0  0.12063841337860734  0.7573419857759661  0.1253821511290809  1.0000
  O   O14       1.0  0.8793601539125361  0.24265572614916656  0.8746194784732069  1.0000
  O   O15       1.0  0.09226005418213389  0.5367249568320674  0.2545317612243848  1.0000
  O   O16       1.0  0.9077386540867921  0.46327463017002657  0.7454730816101146  1.0000
  F   F1        1.0  0.7509396475371446  0.46383297705146015  0.5795330197886129  1.0000
  F   F2        1.0  0.24906451000920526  0.5361647257101084  0.42046504053082145  1.0000
  F   F3        1.0  0.535908301678404  0.5521035549226311  0.6080789229355973  1.0000
  F   F4        1.0  0.46409575696190325  0.44789882525851243  0.3919262155432932  1.0000
  F   F5        1.0  0.6682191403514821  0.42796548610115087  0.47818377711215726  1.0000
  F   F6        1.0  0.33177325945136715  0.5720359314863828  0.5218221813112933  1.0000
  F   F7        1.0  0.3540316180412333  0.8713487652476883  0.34677453410839115  1.0000
  F   F8        1.0  0.6459734627899536  0.12864434023692442  0.6532251206448834  1.0000
  F   F9        1.0  0.4203477243192992  0.012872062833572798  0.3492580633843261  1.0000
  F   F10       1.0  0.5796512151309798  0.9871247284478032  0.6507436659397285  1.0000
  F   F11       1.0  0.484726525495489  0.9399328989938097  0.1923731575675803  1.0000
  F   F12       1.0  0.5152759446982031  0.0600620530401414  0.8076277379753735  1.0000
  F   F13       1.0  0.7445333236440062  0.4388549385897775  0.23015738620445364  1.0000
  F   F14       1.0  0.2554617619395997  0.5611491774303587  0.769839381252929  1.0000
  F   F15       1.0  0.8498628400040786  0.42015841656453295  0.05134926821643393  1.0000
  F   F16       1.0  0.15012556495430826  0.5798484506848  0.9486485151081324  1.0000
  F   F17       1.0  0.6420559679602318  0.5502992730944598  0.11122654032568863  1.0000
  F   F18       1.0  0.3579358688355256  0.4497104323270237  0.888777487377233  1.0000
  F   F19       1.0  0.8977219402038299  0.9578213425769488  0.867613048599658  1.0000
  F   F20       1.0  0.1022747370053168  0.04218559701150328  0.13238914921892328  1.0000
  F   F21       1.0  0.9623381302739489  0.7856924367879471  0.8010094326873868  1.0000
  F   F22       1.0  0.037661950926832305  0.21431537981122514  0.19898602785903557  1.0000
  F   F23       1.0  0.7482207812005226  0.9010381158216205  0.8637420695117438  1.0000
  F   F24       1.0  0.25177762135005816  0.09896694342805289  0.13625547484140552  1.0000
  F   F25       1.0  0.010781420380460812  0.6962736079047431  0.5778558610657641  1.0000
  F   F26       1.0  0.9892184708066691  0.3037277687698889  0.42214208217444604  1.0000
  F   F27       1.0  0.917048305140355  0.8933089440106411  0.5977944543360537  1.0000
  F   F28       1.0  0.08295850890042542  0.10669608162804418  0.40219548184243337  1.0000
  F   F29       1.0  0.11929651304248515  0.8187560986839275  0.47626591947556574  1.0000
  F   F30       1.0  0.8807102899512103  0.1812397310407761  0.5237278943870223  1.0000
  F   F31       1.0  0.6254529868460496  0.15102543350622707  0.30157751078458256  1.0000
  F   F32       1.0  0.3745431922864879  0.8489713358693936  0.698422997513731  1.0000
  F   F33       1.0  0.7458376704551524  0.20890245496984505  0.34845117293928496  1.0000
  F   F34       1.0  0.25415697100498147  0.7910934321332448  0.6515546323979676  1.0000
  F   F35       1.0  0.8037341597527144  0.1828945888418687  0.1741591078665579  1.0000
  F   F36       1.0  0.1962642111669339  0.8171058923164622  0.8258426295790073  1.0000
  F   F37       1.0  0.2318408313117004  0.3320561501461725  0.36433100790835476  1.0000
  F   F38       1.0  0.768162353913937  0.6679415850447724  0.6356711539032531  1.0000
  F   F39       1.0  0.28508264469918027  0.2891072627541789  0.1971652335986889  1.0000
  F   F40       1.0  0.7149116301253572  0.7108941429496555  0.80283853317475  1.0000
  F   F41       1.0  0.4215891990772178  0.3340123195763454  0.23581210761201285  1.0000
  F   F42       1.0  0.5784125442031253  0.6659844605013632  0.7641870856538234  1.0000
  F   F43       1.0  0.46410790139945146  0.6867203838138708  0.9898330289897926  1.0000
  F   F44       1.0  0.5358885857960446  0.3132801158500342  0.010171651522575932  1.0000
  F   F45       1.0  0.3544800039799867  0.8070087780759891  0.1232109976713644  1.0000
  F   F46       1.0  0.6455185110963696  0.19298897358043382  0.8767951404316747  1.0000
  F   F47       1.0  0.29504529875681845  0.8579120799385291  0.9761270126297321  1.0000
  F   F48       1.0  0.704950418013013  0.14209028087854134  0.0238797226894789  1.0000
