data_image0
_chemical_formula_structural       Cd4H32C24N24O24
_chemical_formula_sum              "Cd4 H32 C24 N24 O24"
_cell_length_a       6.672203859042487
_cell_length_b       10.945957448019232
_cell_length_c       15.348226267071725
_cell_angle_alpha    90.00006354939232
_cell_angle_beta     90.00034784808021
_cell_angle_gamma    89.99979263111807

_space_group_name_H-M_alt    "P 1"
_space_group_IT_number       1

loop_
  _space_group_symop_operation_xyz
  'x, y, z'

loop_
  _atom_site_type_symbol
  _atom_site_label
  _atom_site_symmetry_multiplicity
  _atom_site_fract_x
  _atom_site_fract_y
  _atom_site_fract_z
  _atom_site_occupancy
  Cd  Cd1       1.0  0.9999994216303066  1.6269031703999996e-06  6.810557664000001e-07  1.0000
  Cd  Cd2       1.0  0.4999971728188157  2.5756575964999994e-06  0.5000004621353327  1.0000
  Cd  Cd3       1.0  0.9999954137353202  0.500001221735218  0.5000006731014608  1.0000
  Cd  Cd4       1.0  0.49999766119556444  0.4999985161669753  0.9999998026445098  1.0000
  H   H1        1.0  0.808068371409931  0.26128737840521404  0.044030371288521095  1.0000
  H   H2        1.0  0.6919154008403369  0.7387098176934186  0.544034108941176  1.0000
  H   H3        1.0  0.19191201721969256  0.7612948991518634  0.45596724916041603  1.0000
  H   H4        1.0  0.3080645408715199  0.23871045148732853  0.9559682977924311  1.0000
  H   H5        1.0  0.19192003689208553  0.7387106974234428  0.9559650815248871  1.0000
  H   H6        1.0  0.30808050124668546  0.26129739392384005  0.4559665562144843  1.0000
  H   H7        1.0  0.8080868824046091  0.23870774456715788  0.5440353706207048  1.0000
  H   H8        1.0  0.6919508450719932  0.7612803156800466  0.0440310643005688  1.0000
  H   H9        1.0  0.663865944346668  0.4052883251334904  0.7991298672389959  1.0000
  H   H10       1.0  0.8361213554396371  0.5947120115258784  0.2991336329861056  1.0000
  H   H11       1.0  0.33612950422344307  0.9052905569052712  0.7008687610079393  1.0000
  H   H12       1.0  0.163882493998436  0.09470982597427022  0.2008716752472353  1.0000
  H   H13       1.0  0.33612995772848825  0.5947106642661025  0.20086558558475787  1.0000
  H   H14       1.0  0.16387005042676608  0.4052860643055637  0.7008696383243206  1.0000
  H   H15       1.0  0.6638798866672603  0.0947157411181863  0.2991325557064286  1.0000
  H   H16       1.0  0.8361298944251274  0.9052964720484055  0.7991328991765485  1.0000
  H   H17       1.0  0.23821244795217214  0.8880241380676704  0.8547880382071611  1.0000
  H   H18       1.0  0.2617881898608728  0.11198105396296397  0.3547892723293913  1.0000
  H   H19       1.0  0.7617875984215986  0.3880141382855769  0.6452099249502723  1.0000
  H   H20       1.0  0.7382065655187022  0.611973167012593  0.1452147463609776  1.0000
  H   H21       1.0  0.7617879504155952  0.11197941922794288  0.1452132784941398  1.0000
  H   H22       1.0  0.7382107097472286  0.8880225033338144  0.645211392828834  1.0000
  H   H23       1.0  0.23820830370112137  0.611974801743898  0.3547881340338748  1.0000
  H   H24       1.0  0.2617878378875815  0.38801485944335223  0.8547885249495054  1.0000
  H   H25       1.0  0.32769372890542314  0.019101425771211194  0.8613814122478303  1.0000
  H   H26       1.0  0.17229501002437791  0.9809056037640999  0.3613811352175489  1.0000
  H   H27       1.0  0.6722920003084311  0.5190891074153399  0.6386188675063025  1.0000
  H   H28       1.0  0.8276945786853958  0.4808991011372115  0.1386199153101444  1.0000
  H   H29       1.0  0.672297676891766  0.9809048722687094  0.1386153436549691  1.0000
  H   H30       1.0  0.8276933982723519  0.019098867121094498  0.6386162722216255  1.0000
  H   H31       1.0  0.3276949093175148  0.4808989190484496  0.3613837522531114  1.0000
  H   H32       1.0  0.17229682717364625  0.5190907524770763  0.8613787952094611  1.0000
  C   C1        1.0  0.7980855775089496  0.26770509902870276  0.9737514730132659  1.0000
  C   C2        1.0  0.7019011394584072  0.732296424902273  0.4737562921025856  1.0000
  C   C3        1.0  0.20190018869459442  0.7677082696953761  0.526245092616179  1.0000
  C   C4        1.0  0.2980899110053201  0.23229549383404446  0.0262510787200867  1.0000
  C   C5        1.0  0.20190432952129103  0.7322975446931891  0.026242025180678804  1.0000
  C   C6        1.0  0.2980932638896476  0.2677098731389052  0.526246327673981  1.0000
  C   C7        1.0  0.7980987109135073  0.2322952876013957  0.47375557254204653  1.0000
  C   C8        1.0  0.7019239761849291  0.7677007548127647  0.9737508895374135  1.0000
  C   C9        1.0  0.7241224140784724  0.34363905221967167  0.8476997050915145  1.0000
  C   C10       1.0  0.7758670560840953  0.6563622741412515  0.3477027070908534  1.0000
  C   C11       1.0  0.2758733969679028  0.8436404285180715  0.6522988747703522  1.0000
  C   C12       1.0  0.22413792960315962  0.1563598782344684  0.152298740283392  1.0000
  C   C13       1.0  0.27587498675904243  0.656359023599478  0.15229639927495947  1.0000
  C   C14       1.0  0.22412584852491338  0.34363854242587166  0.6522999126815563  1.0000
  C   C15       1.0  0.7241299989290796  0.1563613016171672  0.3477043965574893  1.0000
  C   C16       1.0  0.7758774563261426  0.843641851886389  0.8477032279782506  1.0000
  C   C17       1.0  0.8275712524461981  0.23288845340989886  0.838296107001348  1.0000
  C   C18       1.0  0.672425581466868  0.767115598943974  0.3383015263869069  1.0000
  C   C19       1.0  0.17243120477974117  0.7328891613086626  0.6617004313236523  1.0000
  C   C20       1.0  0.3275802518211605  0.2671084194430903  0.1617026140752884  1.0000
  C   C21       1.0  0.17243214338052582  0.7671141902969651  0.1616973912105664  1.0000
  C   C22       1.0  0.32757181940226593  0.2328870447767102  0.6617010933922173  1.0000
  C   C23       1.0  0.8275721910948093  0.2671171367219856  0.3383015369238151  1.0000
  C   C24       1.0  0.6724321365761555  0.7328914835194738  0.8382954449351346  1.0000
  N   N1        1.0  0.8736751587924445  0.18521972533417846  0.9190820319860791  1.0000
  N   N2        1.0  0.6263197947190805  0.8147807993212762  0.4190847597401728  1.0000
  N   N3        1.0  0.12631708741838574  0.6852258908071674  0.5809164235380848  1.0000
  N   N4        1.0  0.3736797632691733  0.3147779583992331  0.0809174635019616  1.0000
  N   N5        1.0  0.12632374080205722  0.814779264063098  0.08091472392383992  1.0000
  N   N6        1.0  0.3736776061275222  0.18522184439685668  0.5809146023335218  1.0000
  N   N7        1.0  0.8736788146821513  0.3147813208116261  0.4190861962408334  1.0000
  N   N8        1.0  0.6263311263756606  0.6852210309857085  0.9190805955061023  1.0000
  N   N9        1.0  0.7051442110161547  0.36444864977022456  0.9337239605466081  1.0000
  N   N10       1.0  0.7948419524519609  0.6355482435274595  0.4337276483291461  1.0000
  N   N11       1.0  0.29484848015282233  0.8644535032825758  0.5662739841037165  1.0000
  N   N12       1.0  0.20515266434678384  0.1355484958129338  0.06627769194302151  1.0000
  N   N13       1.0  0.29484869356123516  0.6355475988953572  0.0662721438131584  1.0000
  N   N14       1.0  0.20515245090233242  0.3644544001960597  0.566274319904899  1.0000
  N   N15       1.0  0.7051594119889514  0.13554914042489943  0.4337266810661333  1.0000
  N   N16       1.0  0.7948597240928097  0.8644477528360567  0.9337249278535609  1.0000
  N   N17       1.0  0.8699841412492405  0.17677630418690876  0.7589521196696651  1.0000
  N   N18       1.0  0.6300145929773181  0.8232248830651372  0.2589535608109585  1.0000
  N   N19       1.0  0.13002314216817717  0.6767772309220205  0.741045677704605  1.0000
  N   N20       1.0  0.36999091039287185  0.3232250420866691  0.2410512752319249  1.0000
  N   N21       1.0  0.13002375091402743  0.823219030886264  0.2410485454973141  1.0000
  N   N22       1.0  0.3699828078899118  0.17677227917778987  0.741046452801676  1.0000
  N   N23       1.0  0.8699832512012833  0.32322358562599607  0.2589517297571078  1.0000
  N   N24       1.0  0.6300214780126723  0.6767812559339673  0.7589506930275149  1.0000
  O   O1        1.0  0.8184308201189696  0.2308857811384115  0.6894378507268968  1.0000
  O   O2        1.0  0.6815639553542282  0.7691189514850477  0.18944199296061728  1.0000
  O   O3        1.0  0.18158064143202074  0.7308830476601358  0.8105599891191275  1.0000
  O   O4        1.0  0.3184343723711008  0.2691129392415874  0.3105614975232669  1.0000
  O   O5        1.0  0.18157557323871032  0.7691113810898994  0.3105562990279509  1.0000
  O   O6        1.0  0.31842295424208805  0.23087455645293178  0.8105586721776847  1.0000
  O   O7        1.0  0.8184317470147563  0.2691122874100742  0.18944328221818546  1.0000
  O   O8        1.0  0.6815765172567512  0.730893358778161  0.6894372130287537  1.0000
  O   O9        1.0  0.9548529330825276  0.07452841373785897  0.756237872479609  1.0000
  O   O10       1.0  0.5451442648595374  0.9254773371601247  0.2562417738420777  1.0000
  O   O11       1.0  0.04515495151570549  0.5745267930478092  0.7437591931044951  1.0000
  O   O12       1.0  0.4548531435566901  0.4254700027439995  0.2437637939806336  1.0000
  O   O13       1.0  0.0451504627973094  0.9254714892362514  0.243762141142092  1.0000
  O   O14       1.0  0.454859131005911  0.07452439297153997  0.743756936698162  1.0000
  O   O15       1.0  0.9548499430994539  0.4254721963427954  0.2562375628134177  1.0000
  O   O16       1.0  0.5451607435877291  0.57453264095475  0.7562342650328588  1.0000
  O   O17       1.0  0.26641461717247233  0.9540786624187015  0.896363589907061  1.0000
  O   O18       1.0  0.2335806005375289  0.0459256812019788  0.39636534855591066  1.0000
  O   O19       1.0  0.7335775470425079  0.45407140104558136  0.6036344250836052  1.0000
  O   O20       1.0  0.7664115457012527  0.5459213205706704  0.10363861828903961  1.0000
  O   O21       1.0  0.733582783664261  0.04592580845749691  0.1036351206262722  1.0000
  O   O22       1.0  0.7664182990669346  0.9540760489351995  0.6036340135194251  1.0000
  O   O23       1.0  0.26641236005963986  0.545922106888547  0.3963655885176038  1.0000
  O   O24       1.0  0.2335798601623793  0.4540731009420965  0.8963626983966932  1.0000
