data_image0
_chemical_formula_structural       Zn2H22C34N2O8
_chemical_formula_sum              "Zn2 H22 C34 N2 O8"
_cell_length_a       13.977460247612807
_cell_length_b       14.7860796543066
_cell_length_c       16.19446517832647
_cell_angle_alpha    89.83744166903055
_cell_angle_beta     90.1264451092271
_cell_angle_gamma    97.90924260939643

_space_group_name_H-M_alt    "P 1"
_space_group_IT_number       1

loop_
  _space_group_symop_operation_xyz
  'x, y, z'

loop_
  _atom_site_type_symbol
  _atom_site_label
  _atom_site_symmetry_multiplicity
  _atom_site_fract_x
  _atom_site_fract_y
  _atom_site_fract_z
  _atom_site_occupancy
  Zn  Zn1       1.0  0.49911811348933094  0.4045096479263321  0.5003380390635355  1.0000
  Zn  Zn2       1.0  0.5008831669107893  0.5954949432571791  0.4996366543582835  1.0000
  H   H1        1.0  0.9722500993654108  0.39523191945742286  0.5003149969144118  1.0000
  H   H2        1.0  0.561449149067009  0.15544730639604853  0.18357813691044805  1.0000
  H   H3        1.0  0.49475701878938577  0.06311904681174238  0.12939175723244029  1.0000
  H   H4        1.0  0.5590695221188965  0.006416810393446297  0.2611669450156525  1.0000
  H   H5        1.0  0.43148528927412133  0.9926310710070253  0.2625136437558026  1.0000
  H   H6        1.0  0.43725493148583894  0.13930220546225058  0.3429529455496762  1.0000
  H   H7        1.0  0.5633143181414582  0.15308497188788547  0.34137279679057997  1.0000
  H   H8        1.0  0.4383989710779801  0.844407678140598  0.8164141433262627  1.0000
  H   H9        1.0  0.5665524929841297  0.8589266526089642  0.815240663078569  1.0000
  H   H10       1.0  0.5048878498890303  0.9368173350500866  0.8706396245371122  1.0000
  H   H11       1.0  0.5681568720480357  0.007434275913091398  0.7375828159088369  1.0000
  H   H12       1.0  0.027746223826099523  0.6046703026331244  0.49965381414092025  1.0000
  H   H13       1.0  0.4405697231304159  0.9934178633917055  0.7388270596063435  1.0000
  H   H14       1.0  0.43670344956867513  0.8468119194062066  0.6586016063930983  1.0000
  H   H15       1.0  0.562768761463154  0.860811046477515  0.6571190169358231  1.0000
  H   H16       1.0  0.4908694824615196  0.3530201139125353  0.07683990652902387  1.0000
  H   H17       1.0  0.5090970226530304  0.6470327179046221  0.9231389382504246  1.0000
  H   H18       1.0  0.4915764863785981  0.913019893125323  0.3685433013463423  1.0000
  H   H19       1.0  0.5083107525498818  0.08698202673154748  0.6314955172340361  1.0000
  H   H20       1.0  0.49082248815085444  0.3536517141502883  0.9228777728810227  1.0000
  H   H21       1.0  0.5091406366659329  0.646402466344071  0.07710785740802348  1.0000
  H   H22       1.0  0.43330830306098994  0.14115222749835968  0.18483310576095136  1.0000
  C   C1        1.0  0.4998263608356055  0.4985762966497447  0.3390186077257907  1.0000
  C   C2        1.0  0.4952187359275158  0.9528486138522536  0.4251590681541869  1.0000
  C   C3        1.0  0.5073220672024448  0.18941417596280977  0.49994074286392015  1.0000
  C   C4        1.0  0.4926342270072864  0.8105751709869933  0.5000802666640922  1.0000
  C   C5        1.0  0.3119825019413369  0.4684181255547628  0.5000418494194817  1.0000
  C   C6        1.0  0.6880230973386502  0.5315557908881914  0.49993540685484555  1.0000
  C   C7        1.0  0.7923271944853665  0.5403743683623148  0.4999735769142006  1.0000
  C   C8        1.0  0.20768137140539264  0.4595797780532818  0.5000000344072362  1.0000
  C   C9        1.0  0.9799428162396211  0.5395477245404335  0.49989820919663697  1.0000
  C   C10       1.0  0.02005090295776308  0.4603667557647454  0.5000575965555923  1.0000
  C   C11       1.0  0.12023690035320557  0.45899395070200905  0.5000722500660328  1.0000
  C   C12       1.0  0.5001783340798484  0.5014528724490076  0.6609510774766604  1.0000
  C   C13       1.0  0.879764665556131  0.5409355950033186  0.4999026613578436  1.0000
  C   C14       1.0  0.49480733354980794  0.41739172430413146  0.9571168275934026  1.0000
  C   C15       1.0  0.5051598395390045  0.5826658881274654  0.0428638563993573  1.0000
  C   C16       1.0  0.5000307560382353  0.5003909340681786  0.9128754866469035  1.0000
  C   C17       1.0  0.49995259969244193  0.49966472494018166  0.0871046000087929  1.0000
  C   C18       1.0  0.5051524468677044  0.5829970404088483  0.9572667832045239  1.0000
  C   C19       1.0  0.49482078941457525  0.4170578777863553  0.04271329653938949  1.0000
  C   C20       1.0  0.5000780491639958  0.5007714455268086  0.8254858552185667  1.0000
  C   C21       1.0  0.4999170456786786  0.49927609105540677  0.17448809056190123  1.0000
  C   C22       1.0  0.49919603686740266  0.10033272408489317  0.3421402803000929  1.0000
  C   C23       1.0  0.49991393931146183  0.4988175023759423  0.24973926308061312  1.0000
  C   C24       1.0  0.4964003022614705  0.04424321954547139  0.2628770258098143  1.0000
  C   C25       1.0  0.4964868527891327  0.10426974460475687  0.18588465172212654  1.0000
  C   C26       1.0  0.5007324822357546  0.8996626064238595  0.6578880969408372  1.0000
  C   C27       1.0  0.5033283440964168  0.955714120372107  0.7371648675887528  1.0000
  C   C28       1.0  0.5032849952166956  0.8956844337693254  0.814156672038436  1.0000
  C   C29       1.0  0.5000955197274664  0.5012253388874228  0.7502297692222156  1.0000
  C   C30       1.0  0.49948927680718924  0.04745915656806689  0.42182551485933567  1.0000
  C   C31       1.0  0.5004319949457923  0.9525354528159652  0.5782084154432567  1.0000
  C   C32       1.0  0.5040940892168706  0.09304305681420286  0.4987842688590192  1.0000
  C   C33       1.0  0.49582560649213275  0.9069556376096413  0.5012508831703284  1.0000
  C   C34       1.0  0.5046796138555862  0.047156095548011485  0.5748729598316229  1.0000
  N   N1        1.0  0.4909104889413385  0.7319062418775885  0.49905470239781385  1.0000
  N   N2        1.0  0.5090565251227376  0.26809339536235643  0.5009564069447876  1.0000
  O   O1        1.0  0.4977216844058319  0.42098795308493203  0.37396855530580797  1.0000
  O   O2        1.0  0.5022099908250154  0.5790305631181238  0.626007270376391  1.0000
  O   O3        1.0  0.5017443000194959  0.5759353320954046  0.3739085080786495  1.0000
  O   O4        1.0  0.49833210258073285  0.4240949380070872  0.626068030588172  1.0000
  O   O5        1.0  0.35074830481492814  0.39532128114328896  0.5000064585230104  1.0000
  O   O6        1.0  0.6492593803455975  0.6046465367909802  0.5000245394158396  1.0000
  O   O7        1.0  0.3549476537795401  0.550271846934798  0.5001589787273273  1.0000
  O   O8        1.0  0.6450534318984679  0.4496958731861297  0.499763951886976  1.0000
