data_image0
_chemical_formula_structural       Zn8H40C64Br4N12O20
_chemical_formula_sum              "Zn8 H40 C64 Br4 N12 O20"
_cell_length_a       12.09542877777916
_cell_length_b       12.09547752872162
_cell_length_c       14.989749237391907
_cell_angle_alpha    66.70357291621787
_cell_angle_beta     66.70369588733057
_cell_angle_gamma    68.51788999641572

_space_group_name_H-M_alt    "P 1"
_space_group_IT_number       1

loop_
  _space_group_symop_operation_xyz
  'x, y, z'

loop_
  _atom_site_type_symbol
  _atom_site_label
  _atom_site_symmetry_multiplicity
  _atom_site_fract_x
  _atom_site_fract_y
  _atom_site_fract_z
  _atom_site_occupancy
  Zn  Zn1       1.0  0.9473576395343742  0.6725679558845525  0.8433035071239916  1.0000
  Zn  Zn2       1.0  0.3274294307647097  0.052642526050725294  0.6566968235194537  1.0000
  Zn  Zn3       1.0  0.0526420793341913  0.3274305760736879  0.1566963764112259  1.0000
  Zn  Zn4       1.0  0.6725705059303451  0.9473587845560587  0.34330142311765166  1.0000
  Zn  Zn5       1.0  0.30135605755713607  0.9352526952023651  0.5027496930934774  1.0000
  Zn  Zn6       1.0  0.06474673684591177  0.6986425178337398  0.9972518412985921  1.0000
  Zn  Zn7       1.0  0.6986423116009205  0.0647477047021212  0.4972506898642878  1.0000
  Zn  Zn8       1.0  0.9352520896698661  0.3013597445477316  0.0027491251710501643  1.0000
  H   H1        1.0  0.1653009574613122  0.5375941437224583  0.7599580381714901  1.0000
  H   H2        1.0  0.4624055524502566  0.8346957025854636  0.740040407053975  1.0000
  H   H3        1.0  0.8346964884309781  0.4624062391955448  0.2400393133693017  1.0000
  H   H4        1.0  0.5375943752558711  0.16530188252394848  0.25995704675653303  1.0000
  H   H5        1.0  0.369088215769473  0.382989099794763  0.7370757475748704  1.0000
  H   H6        1.0  0.6170093181173043  0.630911397882528  0.762924676513251  1.0000
  H   H7        1.0  0.6309124000559834  0.6170094228551477  0.2629231815475778  1.0000
  H   H8        1.0  0.3829894906399289  0.369087130236636  0.23707416851987526  1.0000
  H   H9        1.0  0.5594696681605812  0.45354331342879556  0.6094366860212402  1.0000
  H   H10       1.0  0.5464581981699438  0.4405282605825248  0.8905647901675879  1.0000
  H   H11       1.0  0.4405293759623774  0.5464580108687895  0.3905631793335972  1.0000
  H   H12       1.0  0.4535426703411857  0.5594693590432411  0.10943835227971017  1.0000
  H   H13       1.0  0.5328031476879005  0.6788331409199273  0.5063440582044124  1.0000
  H   H14       1.0  0.32116506284818047  0.4671956349605465  0.99365851397981  1.0000
  H   H15       1.0  0.4671954653862043  0.3211663471954722  0.493659209468298  1.0000
  H   H16       1.0  0.6788330930875047  0.5328057074102973  0.006343634397708866  1.0000
  H   H17       1.0  0.07962482759510439  0.5050434957359612  0.9546754672215487  1.0000
  H   H18       1.0  0.4949538644015802  0.9203863183138238  0.5453196360397713  1.0000
  H   H19       1.0  0.9203940151324729  0.494953972782973  0.04531390140999749  1.0000
  H   H20       1.0  0.5050449489597709  0.07961593092024087  0.4546793375149961  1.0000
  H   H21       1.0  0.8920246804209456  0.296942213310416  0.7305157258660557  1.0000
  H   H22       1.0  0.703058491877506  0.10797696431613697  0.7694835164871991  1.0000
  H   H23       1.0  0.10797661913904485  0.7030572424975288  0.26948401426337654  1.0000
  H   H24       1.0  0.29694212855207525  0.8920252794486814  0.23051554115689754  1.0000
  H   H25       1.0  0.7870609238594355  0.5733081190871161  0.46803404168100843  1.0000
  H   H26       1.0  0.4266938423803168  0.2129428957622252  0.03196455927712799  1.0000
  H   H27       1.0  0.2129410550502726  0.426692265496392  0.5319658451504594  1.0000
  H   H28       1.0  0.5733079145373949  0.7870584225227047  0.9680357643641885  1.0000
  H   H29       1.0  0.8535978459789604  0.685366667828376  0.6769163471044097  1.0000
  H   H30       1.0  0.31463358204202047  0.14640195751190524  0.823084353883175  1.0000
  H   H31       1.0  0.14640165528241772  0.31463280221376516  0.32308463754561256  1.0000
  H   H32       1.0  0.6853677262875877  0.8535975070609751  0.1769167148561763  1.0000
  H   H33       1.0  0.9935614981138343  0.07899023308823419  0.5708482113318142  1.0000
  H   H34       1.0  0.9210099794837135  0.0064374429992923995  0.929155864365761  1.0000
  H   H35       1.0  0.006436204848938645  0.9210092511880957  0.4291540178387905  1.0000
  H   H36       1.0  0.07899132446108577  0.9935620171911166  0.07084454006863454  1.0000
  H   H37       1.0  0.8388551569152085  0.9291684100726697  0.7191904123016215  1.0000
  H   H38       1.0  0.07083107550116807  0.1611429070249315  0.7808153941433035  1.0000
  H   H39       1.0  0.1611434517740875  0.07083107366026549  0.2808121910661256  1.0000
  H   H40       1.0  0.9291679773914225  0.8388584260375893  0.2191857998214461  1.0000
  C   C1        1.0  0.24160223391319843  0.6908504068571374  0.6459822878611875  1.0000
  C   C2        1.0  0.3091495147394382  0.7583961391236046  0.8540180870234979  1.0000
  C   C3        1.0  0.7583972585785618  0.309149054420061  0.35401736817892265  1.0000
  C   C4        1.0  0.6908510967012089  0.24160237914384194  0.1459801777939945  1.0000
  C   C5        1.0  0.24810555585156635  0.5663432888550161  0.7045419935728603  1.0000
  C   C6        1.0  0.4336568379276855  0.7518938714260839  0.795457496530638  1.0000
  C   C7        1.0  0.7518937058785794  0.433657097358669  0.2954567706671797  1.0000
  C   C8        1.0  0.5663433251441674  0.24810650986174207  0.2045409776015817  1.0000
  C   C9        1.0  0.3626039396565161  0.4799720524953486  0.6917826991415554  1.0000
  C   C10       1.0  0.5200287227200278  0.6373949624218438  0.8082183766061847  1.0000
  C   C11       1.0  0.6373953308432475  0.5200283424832788  0.30821739370839674  1.0000
  C   C12       1.0  0.4799718974902446  0.36260356461053794  0.19178121682121943  1.0000
  C   C13       1.0  0.4683199579575116  0.5185907768371222  0.6210223214688567  1.0000
  C   C14       1.0  0.4814106738787984  0.531679536016135  0.8789784413940325  1.0000
  C   C15       1.0  0.5316795347535574  0.48141240117251266  0.37897679878794605  1.0000
  C   C16       1.0  0.5185895111171062  0.4683208671840334  0.1210233542629808  1.0000
  C   C17       1.0  0.4540787690359663  0.6433309695608357  0.5639880869943784  1.0000
  C   C18       1.0  0.3566700938756142  0.5459208942575059  0.9360132120398891  1.0000
  C   C19       1.0  0.545920288241433  0.3566703678841492  0.43601377127532714  1.0000
  C   C20       1.0  0.643330308727478  0.4540785708587691  0.06398748250232002  1.0000
  C   C21       1.0  0.9030522314726995  0.4537133200048656  0.812006829786661  1.0000
  C   C22       1.0  0.5462858500714134  0.09694832740562018  0.6879943837660463  1.0000
  C   C23       1.0  0.09694816674557674  0.5462861407289379  0.18799320045059187  1.0000
  C   C24       1.0  0.4537134248131665  0.9030520719554714  0.3120063733888615  1.0000
  C   C25       1.0  0.8792701463756031  0.48702894692470977  0.7127055000044467  1.0000
  C   C26       1.0  0.5129724891699466  0.120729405055485  0.7872938891666268  1.0000
  C   C27       1.0  0.1207300254658747  0.512971443128059  0.287294302737692  1.0000
  C   C28       1.0  0.48702948535494517  0.879270975145559  0.2127053333598782  1.0000
  C   C29       1.0  0.8738050249208483  0.39291097340316833  0.6833225370770037  1.0000
  C   C30       1.0  0.6070904382487683  0.1261960495096659  0.8166771627928213  1.0000
  C   C31       1.0  0.12619717598084895  0.6070884774789177  0.31667691294462236  1.0000
  C   C32       1.0  0.39291063931923276  0.8738043399997009  0.18332301414645977  1.0000
  C   C33       1.0  0.8400324253297595  0.42543395181360194  0.5959556601801098  1.0000
  C   C34       1.0  0.5745674745693421  0.1599700174784999  0.9040428288067588  1.0000
  C   C35       1.0  0.1599697755719376  0.5745654990684841  0.4040437898415091  1.0000
  C   C36       1.0  0.4254342735787446  0.8400312920414945  0.09595616622463878  1.0000
  C   C37       1.0  0.81392116683201  0.5482942851805459  0.5361448439264366  1.0000
  C   C38       1.0  0.4517068280455518  0.1860809383479989  0.9638529725387601  1.0000
  C   C39       1.0  0.18608102968487827  0.4517051613190688  0.4638539417902265  1.0000
  C   C40       1.0  0.5482942495224492  0.8139194511613752  0.036147204400521056  1.0000
  C   C41       1.0  0.8191407243056403  0.6419724964197824  0.5659904385905606  1.0000
  C   C42       1.0  0.35802800403753565  0.18086182232059395  0.9340079722053433  1.0000
  C   C43       1.0  0.18086080163114807  0.35802603006920447  0.4340095290339861  1.0000
  C   C44       1.0  0.6419721721887512  0.8191385721146389  0.06599249484175114  1.0000
  C   C45       1.0  0.8519582667967993  0.6112798189726973  0.65398870904761  1.0000
  C   C46       1.0  0.38872137245174093  0.14804216328796826  0.8460102551946919  1.0000
  C   C47       1.0  0.14804190504467124  0.38872057108006436  0.34601109369452854  1.0000
  C   C48       1.0  0.6112799314930585  0.851957296902448  0.15399014923970353  1.0000
  C   C49       1.0  0.7792257581545242  0.7758232270888145  0.5067771906659645  1.0000
  C   C50       1.0  0.22417564250626745  0.22077790636564026  0.9932191327707541  1.0000
  C   C51       1.0  0.2207746312941339  0.22417622488005404  0.4932215109613693  1.0000
  C   C52       1.0  0.7758247513272066  0.7792215499856922  0.006780233161542506  1.0000
  C   C53       1.0  0.015218048340194856  0.9807275679845873  0.6104028654693822  1.0000
  C   C54       1.0  0.019272079263011204  0.9847812332625806  0.8896012256305356  1.0000
  C   C55       1.0  0.9847798722297583  0.0192709782078424  0.38959826258641783  1.0000
  C   C56       1.0  0.9807287806978026  0.015220094330686598  0.11040005242355024  1.0000
  C   C57       1.0  0.938602902658708  0.9064049549637687  0.6847131359641594  1.0000
  C   C58       1.0  0.0935947480886483  0.061396389610088406  0.8152910459155509  1.0000
  C   C59       1.0  0.061396598602677  0.0935945150783652  0.3152878486858627  1.0000
  C   C60       1.0  0.9064061074873563  0.9386049336007074  0.18470956783357215  1.0000
  C   C61       1.0  0.12879088925703294  0.791572504606634  0.651986086240342  1.0000
  C   C62       1.0  0.2084272716134805  0.8712084079183596  0.8480150612939854  1.0000
  C   C63       1.0  0.8712076975082039  0.20842695721395896  0.34801319560262567  1.0000
  C   C64       1.0  0.7915751514995151  0.12879382599473388  0.15198341613449165  1.0000
  Br  Br1       1.0  0.8201501897369425  0.300422401597686  0.5606580071828517  1.0000
  Br  Br2       1.0  0.6995800857399175  0.1798548908989943  0.9393381029025177  1.0000
  Br  Br3       1.0  0.17984998210453537  0.6995779884550756  0.4393417955592868  1.0000
  Br  Br4       1.0  0.3004225464299423  0.820150112897707  0.060657409017935086  1.0000
  N   N1        1.0  0.3441965592661447  0.7268438386392402  0.5753799357167537  1.0000
  N   N2        1.0  0.2731552905876029  0.6558015375794141  0.9246208815522934  1.0000
  N   N3        1.0  0.6558018098919121  0.27315656126524596  0.4246204472410113  1.0000
  N   N4        1.0  0.726843975527359  0.3441988530167421  0.07537854699270245  1.0000
  N   N5        1.0  0.13367224707712205  0.9080800134342224  0.590438196087881  1.0000
  N   N6        1.0  0.09191930073240681  0.8663271677700664  0.9095642353366529  1.0000
  N   N7        1.0  0.866326344072931  0.09191945276883468  0.40956175006003553  1.0000
  N   N8        1.0  0.908082447415687  0.13367414174992834  0.09043475969474458  1.0000
  N   N9        1.0  0.010696688200674457  0.7870598781932115  0.7112367315659185  1.0000
  N   N10       1.0  0.21294058396516385  0.9893023013420644  0.788763461713181  1.0000
  N   N11       1.0  0.9893016721877571  0.21294051294633926  0.28876232278193487  1.0000
  N   N12       1.0  0.7870611554132978  0.010698999412994696  0.21123420470829757  1.0000
  O   O1        1.0  0.93468849685879  0.33894293059478997  0.8591742099373291  1.0000
  O   O2        1.0  0.661056775117757  0.06530904574228198  0.6408260172797996  1.0000
  O   O3        1.0  0.06531099563296999  0.6610565306824085  0.14082544610278092  1.0000
  O   O4        1.0  0.33894272175881923  0.9346904199173875  0.3591743030652667  1.0000
  O   O5        1.0  0.8836993564189298  0.5400082884063052  0.8489519657709793  1.0000
  O   O6        1.0  0.4599899432629185  0.11630073414459467  0.6510502170044676  1.0000
  O   O7        1.0  0.11629946987754643  0.45999025724273673  0.1510495364819704  1.0000
  O   O8        1.0  0.5400102373481771  0.8836996646731023  0.34895091434758296  1.0000
  O   O9        1.0  0.763325927640736  0.7917673925289603  0.42218384971972966  1.0000
  O   O10       1.0  0.20823212676287983  0.23667785996934748  0.07781319937719641  1.0000
  O   O11       1.0  0.23667176216760305  0.20823207859996276  0.577816386536  1.0000
  O   O12       1.0  0.7917691771819194  0.7633216002210688  0.922187205057199  1.0000
  O   O13       1.0  0.7614829198245301  0.8590511672733713  0.5451472048719456  1.0000
  O   O14       1.0  0.1409501734109142  0.23852021199006398  0.9548483448472354  1.0000
  O   O15       1.0  0.23851702125533333  0.1409501477158841  0.45485170607012293  1.0000
  O   O16       1.0  0.8590520274907831  0.761479238892015  0.04515110517439081  1.0000
  O   O17       1.0  0.060099346075922745  0.594802550378496  0.9254282728836075  1.0000
  O   O18       1.0  0.4051952619089293  0.9398982695164759  0.5745749072977518  1.0000
  O   O19       1.0  0.9398929576062255  0.4051969722179294  0.07457702554379612  1.0000
  O   O20       1.0  0.5948044657292542  0.06010027120669999  0.4254263048473776  1.0000
