data_image0
_chemical_formula_structural       Zn2H36C44N8O12
_chemical_formula_sum              "Zn2 H36 C44 N8 O12"
_cell_length_a       5.86590381031963
_cell_length_b       16.357685654027538
_cell_length_c       13.85810454494482
_cell_angle_alpha    85.25532313404378
_cell_angle_beta     77.71749199390253
_cell_angle_gamma    79.75112141379664

_space_group_name_H-M_alt    "P 1"
_space_group_IT_number       1

loop_
  _space_group_symop_operation_xyz
  'x, y, z'

loop_
  _atom_site_type_symbol
  _atom_site_label
  _atom_site_symmetry_multiplicity
  _atom_site_fract_x
  _atom_site_fract_y
  _atom_site_fract_z
  _atom_site_occupancy
  Zn  Zn1       1.0  0.332810545708469  0.2501225846877446  0.7497117641811002  1.0000
  Zn  Zn2       1.0  0.6671790114575911  0.7498727297664871  0.250291373868599  1.0000
  H   H1        1.0  0.2661436379775636  0.43578746254381434  0.752606389414197  1.0000
  H   H2        1.0  0.4534104771108716  0.06438777130507131  0.7471978577847054  1.0000
  H   H3        1.0  0.7337554769363666  0.5642050646935599  0.2474649904713573  1.0000
  H   H4        1.0  0.5466541312584288  0.9356110095984745  0.252749016455148  1.0000
  H   H5        1.0  0.4477321370197846  0.5410600131793615  0.8148335958659629  1.0000
  H   H6        1.0  0.802538779982257  0.9591119277373751  0.6856429366426937  1.0000
  H   H7        1.0  0.5521608071534772  0.4589282113626468  0.185248336235837  1.0000
  H   H8        1.0  0.1975468015002236  0.040906742345590885  0.31429835064565737  1.0000
  H   H9        1.0  0.9108281005195454  0.3383729182020474  0.9309952959732399  1.0000
  H   H10       1.0  0.1804960098048341  0.1617779167313387  0.5684670418566284  1.0000
  H   H11       1.0  0.08915663274770226  0.6616081689679092  0.0690242292134116  1.0000
  H   H12       1.0  0.8195240465826288  0.8382651684570916  0.4315071854700108  1.0000
  H   H13       1.0  0.7051074428742724  0.24069860814439892  0.8656845087864724  1.0000
  H   H14       1.0  0.8116412115204669  0.2594675997713125  0.6331568103749275  1.0000
  H   H15       1.0  0.2948957059675055  0.7592836646338981  0.13432248751723821  1.0000
  H   H16       1.0  0.1883485450263578  0.7405537631362549  0.3668300700882199  1.0000
  H   H17       1.0  0.7624939280675419  0.6085898047325957  0.8140561441844271  1.0000
  H   H18       1.0  0.18419872723842434  0.8918097415978111  0.6865389764030141  1.0000
  H   H19       1.0  0.23754549297274952  0.3913657372007293  0.18595310592933603  1.0000
  H   H20       1.0  0.8158692976947393  0.10824209730568411  0.3134402117502688  1.0000
  H   H21       1.0  0.8811360007408952  0.6315134991177089  0.916396789867214  1.0000
  H   H22       1.0  0.42766794852878565  0.868626668002463  0.583951530293298  1.0000
  H   H23       1.0  0.11902502341329317  0.36844749200651716  0.08357534040866452  1.0000
  H   H24       1.0  0.5724685512597746  0.13141106141078754  0.4160617146391914  1.0000
  H   H25       1.0  0.5769411847647704  0.6243298277151085  0.9318305852608617  1.0000
  H   H26       1.0  0.13141821241003998  0.8757227161175223  0.5690886757562055  1.0000
  H   H27       1.0  0.42317942785610535  0.37568055089136715  0.0681888584300907  1.0000
  H   H28       1.0  0.8687641361184081  0.12428308334991561  0.4308836964833418  1.0000
  H   H29       1.0  0.8053394495108539  0.4330251622343014  0.6554669099034526  1.0000
  H   H30       1.0  0.8925136715823996  0.06694474358329928  0.8449723444682462  1.0000
  H   H31       1.0  0.1945154928227381  0.5670139899766014  0.3445995232303716  1.0000
  H   H32       1.0  0.10752036291145124  0.9329892058403287  0.15495337818985888  1.0000
  H   H33       1.0  0.48971774145456226  0.6123943491246067  0.5461462056107322  1.0000
  H   H34       1.0  0.6470454067064464  0.8873890180349235  0.9548689457757149  1.0000
  H   H35       1.0  0.5101911592690483  0.3876685672192508  0.45393960355298185  1.0000
  H   H36       1.0  0.35297983321735416  0.11255730972855102  0.0450447045630682  1.0000
  C   C1        1.0  0.40666635915098226  0.41694666888508175  0.7941167813530967  1.0000
  C   C2        1.0  0.6170014123486568  0.08321832751472158  0.7056933675287239  1.0000
  C   C3        1.0  0.5932455443995649  0.5830383579323737  0.20594724716067964  1.0000
  C   C4        1.0  0.3830507785379778  0.9167922763478772  0.29425450452085766  1.0000
  C   C5        1.0  0.5103293195858003  0.4754114560242472  0.8291800981575507  1.0000
  C   C6        1.0  0.8142644771231603  0.024751566241555202  0.6710034904510425  1.0000
  C   C7        1.0  0.48957649372581336  0.5245742125489201  0.170888090101343  1.0000
  C   C8        1.0  0.18581572869837967  0.9752683437178647  0.3289372843256118  1.0000
  C   C9        1.0  0.6935728230825546  0.4483084661513175  0.880751765842561  1.0000
  C   C10       1.0  0.022376526570013978  0.05185125355491491  0.6193031344523305  1.0000
  C   C11       1.0  0.30636761328813844  0.5516796128518849  0.119299038597326  1.0000
  C   C12       1.0  0.9776941386876102  0.9481799006124021  0.3806467856835596  1.0000
  C   C13       1.0  0.765846561797865  0.3620669569703097  0.8933587354002839  1.0000
  C   C14       1.0  0.021312169733249772  0.1380987166309708  0.6062677419747047  1.0000
  C   C15       1.0  0.23411175003056442  0.6379191800277937  0.10667640430725102  1.0000
  C   C16       1.0  0.9787202541142437  0.86193498082136  0.3936951963872275  1.0000
  C   C17       1.0  0.6531952841755745  0.30767488287714423  0.8568098620793165  1.0000
  C   C18       1.0  0.8176459552961648  0.19248924089020392  0.6424540137788242  1.0000
  C   C19       1.0  0.34676131059382004  0.6923100125078887  0.14322593447390372  1.0000
  C   C20       1.0  0.182363710337164  0.8075326702915859  0.35751733611126474  1.0000
  C   C21       1.0  0.8085263037017967  0.5072950147354545  0.9210911514192475  1.0000
  C   C22       1.0  0.23656013162492698  0.9928413543658224  0.5790915472704441  1.0000
  C   C23       1.0  0.19144181857428313  0.4926868327252977  0.07895598948289968  1.0000
  C   C24       1.0  0.7635311231321396  0.007191077468760897  0.42086336421616716  1.0000
  C   C25       1.0  0.7568394959673842  0.5981482606825425  0.8938182170224778  1.0000
  C   C26       1.0  0.24768179811601967  0.9020340642325095  0.6066909311683943  1.0000
  C   C27       1.0  0.24324029915913317  0.4018290651670143  0.1061895297582325  1.0000
  C   C28       1.0  0.7524386912300686  0.09799851066321713  0.3932894659860011  1.0000
  C   C29       1.0  0.24892123695494936  0.3556467255286719  0.5893711847818182  1.0000
  C   C30       1.0  0.19410388645130192  0.14456539733795637  0.910221490883842  1.0000
  C   C31       1.0  0.7509776691492077  0.6444080535887124  0.41070600727483964  1.0000
  C   C32       1.0  0.805897559487853  0.8553816519771331  0.08971282458501412  1.0000
  C   C33       1.0  0.12001737771192486  0.4291221785630199  0.5424796531705596  1.0000
  C   C34       1.0  0.09180575630929899  0.07095480442567491  0.9572550715265322  1.0000
  C   C35       1.0  0.8798435511905328  0.5709088495794319  0.4575796118345751  1.0000
  C   C36       1.0  0.9082513664261926  0.928979761539935  0.04266800744447614  1.0000
  C   C37       1.0  0.8891190516672797  0.46298642404341456  0.5875497926901688  1.0000
  C   C38       1.0  0.9391564842043966  0.0369844864510895  0.9126585497090786  1.0000
  C   C39       1.0  0.11074488742747945  0.537045867292484  0.412512869789488  1.0000
  C   C40       1.0  0.06092633105857444  0.962943829918274  0.0872575353293215  1.0000
  C   C41       1.0  0.7657071095923841  0.5335101417272482  0.5467480360145345  1.0000
  C   C42       1.0  0.8454029508944244  0.9663763885111724  0.9537062688100306  1.0000
  C   C43       1.0  0.2341640036608654  0.4665202521334991  0.4533082278643406  1.0000
  C   C44       1.0  0.15466203191085984  0.0335556748053349  0.0462136359663248  1.0000
  N   N1        1.0  0.4754994552735141  0.3346122666499838  0.80807010489265  1.0000
  N   N2        1.0  0.6177936536817938  0.165550685006508  0.6913161840130471  1.0000
  N   N3        1.0  0.5244367305434494  0.6653714250729267  0.19197489014865712  1.0000
  N   N4        1.0  0.38222938189260003  0.8344624819315098  0.3086478923234495  1.0000
  N   N5        1.0  0.947351585515243  0.47284669480092123  0.9806569161027737  1.0000
  N   N6        1.0  0.40102350630903794  0.0271842404635052  0.5193242241878409  1.0000
  N   N7        1.0  0.05252371411926752  0.5271303288007091  0.019426004466851103  1.0000
  N   N8        1.0  0.5990498812378394  0.9728481315257015  0.4806204057546566  1.0000
  O   O1        1.0  0.13501016300993032  0.3239550712065906  0.6705399635628096  1.0000
  O   O2        1.0  0.12916179154861848  0.1762950937588386  0.8292914612822672  1.0000
  O   O3        1.0  0.8648950813958505  0.6760659938684555  0.329514858765819  1.0000
  O   O4        1.0  0.870812244804021  0.8236569635394275  0.1706505049648968  1.0000
  O   O5        1.0  0.4621107592612076  0.32738196780341156  0.5513840481904566  1.0000
  O   O6        1.0  0.3415664821511584  0.172897599967115  0.9478520440263836  1.0000
  O   O7        1.0  0.5378362885025539  0.672716524631852  0.4487202522686857  1.0000
  O   O8        1.0  0.6584425466021313  0.8270550139209902  0.05207497180291649  1.0000
  O   O9        1.0  0.5418180814085576  0.5645117369308821  0.5923248850510063  1.0000
  O   O10       1.0  0.6974917940633889  0.9352882372277236  0.9085543054671561  1.0000
  O   O11       1.0  0.45806322684286027  0.4355261352418368  0.40773293992462106  1.0000
  O   O12       1.0  0.30257200202788687  0.06465061953765171  0.0913559046137493  1.0000
