data_image0
_chemical_formula_structural       Cd4H36C32N4O24
_chemical_formula_sum              "Cd4 H36 C32 N4 O24"
_cell_length_a       8.49316704445338
_cell_length_b       10.189104162244563
_cell_length_c       14.862295302553662
_cell_angle_alpha    101.50637565998957
_cell_angle_beta     89.98264456220724
_cell_angle_gamma    114.62643341872993

_space_group_name_H-M_alt    "P 1"
_space_group_IT_number       1

loop_
  _space_group_symop_operation_xyz
  'x, y, z'

loop_
  _atom_site_type_symbol
  _atom_site_label
  _atom_site_symmetry_multiplicity
  _atom_site_fract_x
  _atom_site_fract_y
  _atom_site_fract_z
  _atom_site_occupancy
  Cd  Cd1       1.0  0.7236471975558558  0.4471659499316801  0.8331950269286635  1.0000
  Cd  Cd2       1.0  0.2764304423728774  0.5529632672026564  0.6668174870487673  1.0000
  Cd  Cd3       1.0  0.2763523165136803  0.5528344746102292  0.16680487217661977  1.0000
  Cd  Cd4       1.0  0.7235697729398821  0.4470338492610324  0.333181265697398  1.0000
  H   H1        1.0  0.7261452883434812  0.679387007688433  0.7515320525362696  1.0000
  H   H2        1.0  0.047246292037570456  0.3204778694159387  0.7485264547159147  1.0000
  H   H3        1.0  0.27385595626600434  0.3206145232818898  0.2484680047572922  1.0000
  H   H4        1.0  0.9527515685277737  0.6795192472214779  0.2514722982618238  1.0000
  H   H5        1.0  0.6651497731571396  0.5406551544129669  0.6709688796263861  1.0000
  H   H6        1.0  0.12456229401129089  0.45930687343279436  0.8290455761542859  1.0000
  H   H7        1.0  0.33484677394660867  0.45934640018753464  0.32902983569958616  1.0000
  H   H8        1.0  0.8754337709674259  0.5406913615350033  0.17095266414371216  1.0000
  H   H9        1.0  0.4966865603436972  0.5781370829974576  0.844020834271916  1.0000
  H   H10       1.0  0.9185846657237491  0.4218764027642051  0.656060462091382  1.0000
  H   H11       1.0  0.5033135128866278  0.42186445970109077  0.1559785519220682  1.0000
  H   H12       1.0  0.08141429517954167  0.5781229152624119  0.3439392787098398  1.0000
  H   H13       1.0  0.36324970807326196  0.41664187833819705  0.8353678343656057  1.0000
  H   H14       1.0  0.9464236064832863  0.5833620193873514  0.6647025188658944  1.0000
  H   H15       1.0  0.6367515245471438  0.5833596293494024  0.16463356535869167  1.0000
  H   H16       1.0  0.053579439707370044  0.41663840489395904  0.3352973798920402  1.0000
  H   H17       1.0  0.4792364510499992  0.690490179428451  0.03742492972000378  1.0000
  H   H18       1.0  0.7889976754651328  0.3094815617686706  0.4626580972725307  1.0000
  H   H19       1.0  0.5207618856458326  0.3095102452003218  0.9625749695010626  1.0000
  H   H20       1.0  0.21100009008082307  0.6905177214207328  0.5373436572905703  1.0000
  H   H21       1.0  0.2743188782656887  0.5956483041486464  0.9853886022484204  1.0000
  H   H22       1.0  0.6788404824156088  0.4043879411962051  0.5146241455460512  1.0000
  H   H23       1.0  0.7256781449685408  0.40435655844321156  0.014611259320886881  1.0000
  H   H24       1.0  0.3211509321204246  0.5956080577188982  0.4853751209219084  1.0000
  H   H25       1.0  0.5567544168520373  0.9362848923737065  0.14614354420749723  1.0000
  H   H26       1.0  0.6206776040478064  0.06371330195210588  0.3538328123011709  1.0000
  H   H27       1.0  0.44324917651031376  0.0637166267815275  0.8538571840698664  1.0000
  H   H28       1.0  0.37932259328133006  0.9362837795874982  0.6461679540910836  1.0000
  H   H29       1.0  0.25514833121157215  0.16443078071513634  0.08529914856609369  1.0000
  H   H30       1.0  0.09093087639990222  0.8356667802227876  0.4147408557829024  1.0000
  H   H31       1.0  0.744852342248045  0.8355696088158169  0.9147027640695028  1.0000
  H   H32       1.0  0.9090681375609789  0.16433028976231867  0.5852605819405099  1.0000
  H   H33       1.0  0.053056385565042524  0.9329621707057352  0.9766056770985401  1.0000
  H   H34       1.0  0.12026517066792056  0.06693459778084332  0.5235861053989836  1.0000
  H   H35       1.0  0.94694595938239  0.0670415616537881  0.023395368018512396  1.0000
  H   H36       1.0  0.8797379225857894  0.933063566817587  0.47641616149649474  1.0000
  C   C1        1.0  0.18218675682367547  0.8035189814353387  0.0035567424801782716  1.0000
  C   C2        1.0  0.3789968217863803  0.19644145619315617  0.4966735352897942  1.0000
  C   C3        1.0  0.8178138515892642  0.19648363285440235  0.9964448156639633  1.0000
  C   C4        1.0  0.6210010507680577  0.8035556837269906  0.5033238752572088  1.0000
  C   C5        1.0  0.3281680035347562  0.8046977619130118  0.049889741799937284  1.0000
  C   C6        1.0  0.5237616623993445  0.1952308577553268  0.45027008720203543  1.0000
  C   C7        1.0  0.6718349536310556  0.19530484056163996  0.9501124873279991  1.0000
  C   C8        1.0  0.4762373815342542  0.8047662704365874  0.5497279944445523  1.0000
  C   C9        1.0  0.44573457745774914  0.9352551543091608  0.10878148461407729  1.0000
  C   C10       1.0  0.5107053141887904  0.06469761083787517  0.39125823590163117  1.0000
  C   C11       1.0  0.5542695690708471  0.06474747136135052  0.8912194019673407  1.0000
  C   C12       1.0  0.4892948891348892  0.9352994823430901  0.6087418592752697  1.0000
  C   C13       1.0  0.41865848806396144  0.06352011782200859  0.1235153067449488  1.0000
  C   C14       1.0  0.3553047458559887  0.9365139355478219  0.3764693008206875  1.0000
  C   C15       1.0  0.5813450342571753  0.9364836144506435  0.8764857382563205  1.0000
  C   C16       1.0  0.6446948983069019  0.0634820394764972  0.6235313072675126  1.0000
  C   C17       1.0  0.2765261391371753  0.06441750610365199  0.0755923307696307  1.0000
  C   C18       1.0  0.21234205163706568  0.935630779509033  0.42449268398101475  1.0000
  C   C19       1.0  0.7234768240231803  0.9355851080123614  0.9244092271429379  1.0000
  C   C20       1.0  0.7876552968305434  0.06436295928886439  0.5755089500455738  1.0000
  C   C21       1.0  0.16253036695149337  0.9357295858154231  0.015952763054187375  1.0000
  C   C22       1.0  0.22708083191822231  0.06426078378939339  0.4842578322563682  1.0000
  C   C23       1.0  0.8374714898763714  0.06427081527002797  0.9840484782502585  1.0000
  C   C24       1.0  0.7729182590784234  0.9357340847196411  0.5157426175277635  1.0000
  C   C25       1.0  0.5379330994169466  0.1966044909660098  0.1930171819001885  1.0000
  C   C26       1.0  0.3412786885547518  0.8034138761837823  0.3069021113547308  1.0000
  C   C27       1.0  0.4620639888639601  0.8033981468670531  0.8069830341605807  1.0000
  C   C28       1.0  0.6587231802621999  0.19658654818439203  0.6930977875189868  1.0000
  C   C29       1.0  0.046634293790816614  0.6680309089256086  0.941894354954151  1.0000
  C   C30       1.0  0.3788638643138569  0.332063171820529  0.5582315297735434  1.0000
  C   C31       1.0  0.9533681102087498  0.3319705870337584  0.05810771586972407  1.0000
  C   C32       1.0  0.6211351976033654  0.6679339912954773  0.4417645382269484  1.0000
  N   N1        1.0  0.3525786176559151  0.6737535103807772  0.04146554131760639  1.0000
  N   N2        1.0  0.6790483073239387  0.3261842031647362  0.4586031063804583  1.0000
  N   N3        1.0  0.6474213665495584  0.3262502105111124  0.9585361752463797  1.0000
  N   N4        1.0  0.3209494762056479  0.6738151149487519  0.5413966345365537  1.0000
  O   O1        1.0  0.9026290880538141  0.6712668556007699  0.920958041245612  1.0000
  O   O2        1.0  0.23160836109640565  0.32875922337606767  0.5792365288502381  1.0000
  O   O3        1.0  0.09737282782618445  0.32873130908452447  0.07904422576564937  1.0000
  O   O4        1.0  0.7683924253662227  0.6712390345269909  0.42076036855389987  1.0000
  O   O5        1.0  0.07628365876541916  0.5541587197899673  0.9143302129254208  1.0000
  O   O6        1.0  0.5222643686606999  0.4461098675259831  0.5855982072376307  1.0000
  O   O7        1.0  0.9237228425105923  0.4458439057068161  0.08567067342443828  1.0000
  O   O8        1.0  0.47773582356717964  0.553889555186039  0.4143954925095343  1.0000
  O   O9        1.0  0.6820624885689951  0.2085971718201165  0.2239843810054012  1.0000
  O   O10       1.0  0.47336787349396997  0.791256440071727  0.27591736666950334  1.0000
  O   O11       1.0  0.31793736554313046  0.7914109985893629  0.7760166265756752  1.0000
  O   O12       1.0  0.5266345365001329  0.20874506752900146  0.724084032939004  1.0000
  O   O13       1.0  0.48438672420100204  0.29947676518431626  0.22216033252264109  1.0000
  O   O14       1.0  0.18481254581739387  0.7006519925068985  0.2778086703667242  1.0000
  O   O15       1.0  0.515608645529035  0.7005247895030563  0.7778383829191142  1.0000
  O   O16       1.0  0.8151887878169434  0.299347360270083  0.722189056556843  1.0000
  O   O17       1.0  0.7602199413881435  0.6007441824271921  0.7222144208517207  1.0000
  O   O18       1.0  0.15979503253134905  0.3992353957113436  0.7778839657535883  1.0000
  O   O19       1.0  0.23977610560694979  0.3992540176165135  0.2777858330923734  1.0000
  O   O20       1.0  0.8402027749764047  0.6007639689675984  0.222113090301967  1.0000
  O   O21       1.0  0.47605025184910227  0.48912281557884546  0.8691462079956694  1.0000
  O   O22       1.0  0.9868605750991934  0.5109191873062855  0.6309383519049943  1.0000
  O   O23       1.0  0.5239485429935868  0.5108808821171849  0.130856851114828  1.0000
  O   O24       1.0  0.013139646208109867  0.4890779407987651  0.3690597296258104  1.0000
