data_image0
_chemical_formula_structural       Mo4H48C48N8O12
_chemical_formula_sum              "Mo4 H48 C48 N8 O12"
_cell_length_a       3.792040113803075
_cell_length_b       14.926493056
_cell_length_c       20.4
_cell_angle_alpha    90.0
_cell_angle_beta     95.27522117445584
_cell_angle_gamma    90.0

_space_group_name_H-M_alt    "P 1"
_space_group_IT_number       1

loop_
  _space_group_symop_operation_xyz
  'x, y, z'

loop_
  _atom_site_type_symbol
  _atom_site_label
  _atom_site_symmetry_multiplicity
  _atom_site_fract_x
  _atom_site_fract_y
  _atom_site_fract_z
  _atom_site_occupancy
  Mo  Mo1       1.0  0.1185149559439012  0.646450573741518  0.3282955418745246  1.0000
  Mo  Mo2       1.0  0.8814852749895792  0.1464523509841626  0.1717039718760986  1.0000
  Mo  Mo3       1.0  0.8814905716290298  0.3535505614213008  0.6717055329849374  1.0000
  Mo  Mo4       1.0  0.1185043626650071  0.853549454128391  0.828297321617626  1.0000
  H   H1        1.0  0.9662315061398274  0.6448869110705573  0.17202730158336274  1.0000
  H   H2        1.0  0.0337687247936529  0.1448873484137465  0.3279731925594121  1.0000
  H   H3        1.0  0.0337740214330964  0.3551135541425339  0.8279742634721785  1.0000
  H   H4        1.0  0.9662341544595563  0.8551050774025841  0.6720312684122902  1.0000
  H   H5        1.0  0.1364334871927255  0.5280731361631865  0.4581218711262168  1.0000
  H   H6        1.0  0.8635799853393706  0.0280762533052936  0.04187786892591561  1.0000
  H   H7        1.0  0.8635720403801983  0.4719259891504421  0.5418782233410867  1.0000
  H   H8        1.0  0.1364096523152156  0.9719268917067154  0.9581234245678019  1.0000
  H   H9        1.0  0.33438214492164775  0.3762243400999452  0.5023793623041897  1.0000
  H   H10       1.0  0.6656233826512832  0.8762279224551435  0.9976197517709554  1.0000
  H   H11       1.0  0.6656233826512832  0.6237741152639558  0.49761926157488284  1.0000
  H   H12       1.0  0.3343741999624753  0.1237752225568727  0.002381677503670699  1.0000
  H   H13       1.0  0.4363027294784345  0.3401897539461771  0.2059069893924175  1.0000
  H   H14       1.0  0.5636948531353241  0.84019199640192  0.2940914987057397  1.0000
  H   H15       1.0  0.5637001497747675  0.6598100413171792  0.7940915892263478  1.0000
  H   H16       1.0  0.4362947845192621  0.159806458961981  0.7059063634154299  1.0000
  H   H17       1.0  0.5084853318606619  0.3023248651287247  0.3034459963774481  1.0000
  H   H18       1.0  0.4915043057939243  0.802328447483923  0.19655235593980078  1.0000
  H   H19       1.0  0.491520195712269  0.6976749301346388  0.6965516471094659  1.0000
  H   H20       1.0  0.5084826835409331  0.19767402757836552  0.8034479119014576  1.0000
  H   H21       1.0  0.056258255885147386  0.5503677232943716  0.0728001901143074  1.0000
  H   H22       1.0  0.9437393267286112  0.0503681606375608  0.427200258768167  1.0000
  H   H23       1.0  0.9437552166469487  0.44963810151656264  0.9272005303299906  1.0000
  H   H24       1.0  0.0562662008443198  0.9496222553295796  0.5728013062873742  1.0000
  H   H25       1.0  0.4960753056365945  0.3210780979845467  0.08992067130181881  1.0000
  H   H26       1.0  0.5039222769771641  0.8210783305910923  0.4100763462081007  1.0000
  H   H27       1.0  0.5039408152152234  0.6789257169771972  0.9100781336184625  1.0000
  H   H28       1.0  0.49606471235770033  0.1789154351246935  0.5899209804566823  1.0000
  H   H29       1.0  0.4712473082292945  0.4187386800469923  0.0387262579186824  1.0000
  H   H30       1.0  0.5287449777450135  0.9187382427038031  0.46127361024711183  1.0000
  H   H31       1.0  0.5287635159830799  0.5812644649650238  0.9612734368731566  1.0000
  H   H32       1.0  0.4712393632701222  0.08125418311252021  0.5387256319416879  1.0000
  H   H33       1.0  0.0870184894729675  0.3542292204982901  0.048912163047539516  1.0000
  H   H34       1.0  0.9129817414605128  0.8542261033561829  0.45108686050699737  1.0000
  H   H35       1.0  0.9129976313788575  0.6457766043126512  0.9510876222649005  1.0000
  H   H36       1.0  0.0870052478743446  0.1457643126109502  0.5489129171381819  1.0000
  H   H37       1.0  0.6117883393130867  0.2385925472673875  0.4852707787557904  1.0000
  H   H38       1.0  0.3882012983414995  0.7385967995723135  0.014728063757537798  1.0000
  H   H39       1.0  0.3882118916203936  0.7614059080965134  0.5147262840144367  1.0000
  H   H40       1.0  0.6118015809117026  0.2614056754899678  0.9852710050573067  1.0000
  H   H41       1.0  0.8552986895641581  0.2297512206741317  0.4149858497612584  1.0000
  H   H42       1.0  0.1446988930496005  0.7297561429287924  0.08501508931729522  1.0000
  H   H43       1.0  0.1446988930496005  0.7702472346897695  0.5850136187290573  1.0000
  H   H44       1.0  0.8552986895641581  0.2702456621837613  0.9149838889769414  1.0000
  H   H45       1.0  0.4269382709363327  0.183712275194992  0.41173665484212313  1.0000
  H   H46       1.0  0.5730566633577041  0.683716527499918  0.08826227819181301  1.0000
  H   H47       1.0  0.5730672566365911  0.8162895299175617  0.5882614788408703  1.0000
  H   H48       1.0  0.4269382709363327  0.3162866175120911  0.9117381254303538  1.0000
  C   C1        1.0  0.0630220644588277  0.5761936154549617  0.176530490811416  1.0000
  C   C2        1.0  0.9369755181549309  0.0761940527981437  0.3234694678749791  1.0000
  C   C3        1.0  0.9369834631141032  0.4238088596073268  0.8234696036558873  1.0000
  C   C4        1.0  0.0630220644588277  0.9238003828673769  0.6765334319878917  1.0000
  C   C5        1.0  0.2997050464628543  0.4345930404189887  0.3185720180097463  1.0000
  C   C6        1.0  0.7002925361509043  0.9345972927239217  0.1814274504805695  1.0000
  C   C7        1.0  0.7002978327903477  0.5654074247941027  0.6814285213933362  1.0000
  C   C8        1.0  0.2997023981431255  0.0654058522880945  0.8185729531415973  1.0000
  C   C9        1.0  0.4451295791166814  0.3282559393969963  0.4063029400227053  1.0000
  C   C10       1.0  0.5548653551773555  0.8282615316013847  0.09369501261907233  1.0000
  C   C11       1.0  0.5548785967759713  0.6717411760674423  0.5936967095088193  1.0000
  C   C12       1.0  0.4451242824772308  0.17174295331009404  0.9063043200903351  1.0000
  C   C13       1.0  0.2153454699922293  0.4749441126862877  0.42596117865971184  1.0000
  C   C14       1.0  0.7846627059004233  0.9749463551420305  0.0740384708718196  1.0000
  C   C15       1.0  0.7846574092609728  0.5250556825770687  0.5740383803512118  1.0000
  C   C16       1.0  0.2153269317541628  0.0250561199202579  0.9259613520336671  1.0000
  C   C17       1.0  0.3289186613321746  0.3916961591758366  0.45003844127876397  1.0000
  C   C18       1.0  0.6710842179210275  0.8916997415310348  0.049959156947842615  1.0000
  C   C19       1.0  0.6710921628801998  0.6083016262383367  0.5499597829248303  1.0000
  C   C20       1.0  0.3289054197335588  0.1083020635815188  0.9500411561537236  1.0000
  C   C21       1.0  0.2552688898231636  0.4626505351318357  0.24883318361509768  1.0000
  C   C22       1.0  0.744728692790595  0.9626527775875715  0.2511662848752181  1.0000
  C   C23       1.0  0.7447339894300384  0.5373519399304527  0.7511663753958261  1.0000
  C   C24       1.0  0.2552609448639913  0.0373463477260572  0.7488340282263408  1.0000
  C   C25       1.0  0.325851907092428  0.4068551117275945  0.196566422004345  1.0000
  C   C26       1.0  0.6741456755213306  0.9068560142838678  0.3034310857016536  1.0000
  C   C27       1.0  0.6741483238410523  0.5931466933849592  0.8034301505698025  1.0000
  C   C28       1.0  0.3258439621332556  0.0931397612811082  0.6965682470077541  1.0000
  C   C29       1.0  0.4242131499409041  0.3502048324672487  0.3392763564997736  1.0000
  C   C30       1.0  0.5757870809925691  0.8502097547219094  0.1607226670547703  1.0000
  C   C31       1.0  0.5757950259517415  0.6497956327458496  0.6607232930317581  1.0000
  C   C32       1.0  0.4242105016211823  0.14979272034037902  0.8392772916316247  1.0000
  C   C33       1.0  0.2589977239937724  0.43724202165334  0.13174396894574167  1.0000
  C   C34       1.0  0.7410025069397079  0.9372429242096203  0.3682530938244852  1.0000
  C   C35       1.0  0.7410157485383237  0.562764473107329  0.8682543005181602  1.0000
  C   C36       1.0  0.2589897790346072  0.0627508415061726  0.6317457939491504  1.0000
  C   C37       1.0  0.1174927045306475  0.5235007292526106  0.12227218904448732  1.0000
  C   C38       1.0  0.8825075264028328  0.0234998266963302  0.3777268345100566  1.0000
  C   C39       1.0  0.8825075264028328  0.476503755658868  0.877727324706129  1.0000
  C   C40       1.0  0.1174900562109258  0.9764919291702654  0.6222745947645762  1.0000
  C   C41       1.0  0.3346919983292906  0.3797127683465931  0.07454495187732851  1.0000
  C   C42       1.0  0.665305584284468  0.8797109911039485  0.42545304602474954  1.0000
  C   C43       1.0  0.6653214742028126  0.6202923865146134  0.925454788174804  1.0000
  C   C44       1.0  0.3346840533701182  0.12028009481291242  0.5745453062924994  1.0000
  C   C45       1.0  0.5907845155864422  0.2401320917480518  0.43134564281931626  1.0000
  C   C46       1.0  0.4092077703878658  0.7401356741032501  0.06865373515039151  1.0000
  C   C47       1.0  0.4092210119864816  0.7598663636158562  0.568654451647987  1.0000
  C   C48       1.0  0.5907871639061638  0.2598661310093036  0.9313447076874654  1.0000
  N   N1        1.0  0.20504085794830465  0.496450168984687  0.3621757570938798  1.0000
  N   N2        1.0  0.7949620213049045  0.9964524114404298  0.1378233117209646  1.0000
  N   N3        1.0  0.7949593729851756  0.5035523060775944  0.6378232664606642  1.0000
  N   N4        1.0  0.2050355613088541  0.0035487237223961  0.8621766469654304  1.0000
  N   N5        1.0  0.1325616437570503  0.5469235117299363  0.2383257986019345  1.0000
  N   N6        1.0  0.8674385871764301  0.0469239490731184  0.26167469554084033  1.0000
  N   N7        1.0  0.8674385871764301  0.4530789633323522  0.7616742053447609  1.0000
  N   N8        1.0  0.1325563471176068  0.9530738363410549  0.7383276688656437  1.0000
  O   O1        1.0  0.6492302835631563  0.6202180220945266  0.3227954728461526  1.0000
  O   O2        1.0  0.3507646507308735  0.1202211392366337  0.1772029699917042  1.0000
  O   O3        1.0  0.3507672990506023  0.3797837830180271  0.6772064466245596  1.0000
  O   O4        1.0  0.6492276352434345  0.8797793259764575  0.8227988589583931  1.0000
  O   O5        1.0  0.134153283910841  0.7370405063483929  0.2750255490638551  1.0000
  O   O6        1.0  0.8658469470226393  0.2370422835910375  0.2249749450789196  1.0000
  O   O7        1.0  0.8658522436620828  0.2629606288144331  0.724976015991686  1.0000
  O   O8        1.0  0.1341400423122252  0.7629588515717884  0.7750282639388077  1.0000
  O   O9        1.0  0.1951785152981884  0.686333351147205  0.4084743645869366  1.0000
  O   O10       1.0  0.8048217156352848  0.18633579833958447  0.0915256393597588  1.0000
  O   O11       1.0  0.8048217156352848  0.3136664441161585  0.5915266197519173  1.0000
  O   O12       1.0  0.1951732186587449  0.8136673466724318  0.9084777054388838  1.0000
