data_image0
_chemical_formula_structural       La4H32C36N4O32
_chemical_formula_sum              "La4 H32 C36 N4 O32"
_cell_length_a       8.484711688
_cell_length_b       9.997218948188634
_cell_length_c       14.9969
_cell_angle_alpha    90.0
_cell_angle_beta     90.0
_cell_angle_gamma    98.43992407795417

_space_group_name_H-M_alt    "P 1"
_space_group_IT_number       1

loop_
  _space_group_symop_operation_xyz
  'x, y, z'

loop_
  _atom_site_type_symbol
  _atom_site_label
  _atom_site_symmetry_multiplicity
  _atom_site_fract_x
  _atom_site_fract_y
  _atom_site_fract_z
  _atom_site_occupancy
  La  La1       1.0  0.0025325489239946984  0.11839171539769208  0.3817769005594513  1.0000
  La  La2       1.0  0.49746614421580665  0.8816080744688151  0.881777567363919  1.0000
  La  La3       1.0  0.9974705195659511  0.8816100969278082  0.6182217658316063  1.0000
  La  La4       1.0  0.5025315103990736  0.118389692938706  0.118222432636081  1.0000
  H   H1        1.0  0.3218640070295109  0.555268137279775  0.1679840500370062  1.0000
  H   H2        1.0  0.17813787212489982  0.44472963012775313  0.6679853836459557  1.0000
  H   H3        1.0  0.6781357005674808  0.4447346862752184  0.8320146163540443  1.0000
  H   H4        1.0  0.821862314549172  0.555269148509268  0.3320159499629938  1.0000
  H   H5        1.0  0.2666044864298628  0.7774827847638832  0.2324180330601635  1.0000
  H   H6        1.0  0.23339739272454815  0.222514982643645  0.732419366669113  1.0000
  H   H7        1.0  0.7333915105174996  0.22251902756161707  0.767580633330887  1.0000
  H   H8        1.0  0.7666076831895838  0.7774848072228693  0.2675813001353617  1.0000
  H   H9        1.0  0.1436040488588546  0.5630889861816541  0.4785849075475568  1.0000
  H   H10       1.0  0.3563978302955633  0.43690878122586707  0.9785862411565063  1.0000
  H   H11       1.0  0.8563927769222702  0.436910803684853  0.5214137588434937  1.0000
  H   H12       1.0  0.6436072456185686  0.5630910086406402  0.0214144256479685  1.0000
  H   H13       1.0  0.4963059001493733  0.8759826047970874  0.5101754362568229  1.0000
  H   H14       1.0  0.0036927929904280034  0.1240171850694267  0.0101747694523553  1.0000
  H   H15       1.0  0.5036936325692807  0.1240192075284128  0.4898245637431771  1.0000
  H   H16       1.0  0.9963038579123521  0.8759815935675945  0.9898245637431771  1.0000
  H   H17       1.0  0.6117713674384576  0.7403615612910031  0.5172675686308494  1.0000
  H   H18       1.0  0.8882271267552755  0.2596382285755041  0.0172669018263747  1.0000
  H   H19       1.0  0.3882268118114283  0.2596392398049971  0.4827324313691506  1.0000
  H   H20       1.0  0.11176969902584942  0.7403615612910031  0.9827324313691506  1.0000
  H   H21       1.0  0.5053708950148704  0.7690825013622842  0.4168141415892634  1.0000
  H   H22       1.0  0.9946274243005252  0.23091627727473  0.9168128079803138  1.0000
  H   H23       1.0  0.4946271093566779  0.23091728850423007  0.5831858584107366  1.0000
  H   H24       1.0  0.005370580071023299  0.7690835125917772  0.08318585841073659  1.0000
  H   H25       1.0  0.8479696501407689  0.9806741830183228  0.2014709706672733  1.0000
  H   H26       1.0  0.6520300226433946  0.0193256068481915  0.7014723042762157  1.0000
  H   H27       1.0  0.15202953282121  0.0193256068481915  0.7985290293327267  1.0000
  H   H28       1.0  0.3479678068498231  0.9806731717888297  0.2985283625282591  1.0000
  H   H29       1.0  0.038893491430336324  0.9964867786064744  0.1915409184564822  1.0000
  H   H30       1.0  0.46110673005656383  0.003515033719026  0.6915422520654246  1.0000
  H   H31       1.0  0.961104512941212  0.0035130112600399  0.8084577479345754  1.0000
  H   H32       1.0  0.5388924529054151  0.9964847561474883  0.3084577479345754  1.0000
  C   C1        1.0  0.2893619602887085  0.3112847524914457  0.2463575805666522  1.0000
  C   C2        1.0  0.21064345463699402  0.6887130149160754  0.7463575805666522  1.0000
  C   C3        1.0  0.7106424616700054  0.6887180710635477  0.7536444198467649  1.0000
  C   C4        1.0  0.7893577357491708  0.3112847524914457  0.2536457534557144  1.0000
  C   C5        1.0  0.25670368866065024  0.4433381783448453  0.2859837699791257  1.0000
  C   C6        1.0  0.24330190114339703  0.5566606002921688  0.7859851035880752  1.0000
  C   C7        1.0  0.7432946654675734  0.556663633980655  0.7140142296074501  1.0000
  C   C8        1.0  0.7567019961803043  0.4433391895743384  0.2140162300208743  1.0000
  C   C9        1.0  0.2792319986995722  0.5624306757814566  0.2360961265328143  1.0000
  C   C10       1.0  0.22077223763570697  0.43756709162606455  0.7360967933372891  1.0000
  C   C11       1.0  0.7207673591407513  0.43757012531454353  0.7639018730537613  1.0000
  C   C12       1.0  0.7792328382784249  0.5624326982404426  0.2639032066627109  1.0000
  C   C13       1.0  0.24943741034587674  0.6848116915305766  0.2715361174642794  1.0000
  C   C14       1.0  0.2505668259893952  0.3151860758769445  0.7715374510732218  1.0000
  C   C15       1.0  0.750557408011055  0.3151901207949237  0.7284605485133611  1.0000
  C   C16       1.0  0.7494429642864591  0.6848137139895627  0.2284625489267782  1.0000
  C   C17       1.0  0.2017707448462573  0.6870212279736378  0.3608392401096197  1.0000
  C   C18       1.0  0.2982336663673594  0.3129775506633834  0.8608405737185691  1.0000
  C   C19       1.0  0.7982267348902854  0.3129755282043973  0.6391607598903803  1.0000
  C   C20       1.0  0.7017744662409842  0.687026284121103  0.13916075989038026  1.0000
  C   C21       1.0  0.1723496131875493  0.8131973880114529  0.4099287186018472  1.0000
  C   C22       1.0  0.3276499087860074  0.1868003793960753  0.9099300522107896  1.0000
  C   C23       1.0  0.8276485660623437  0.1868034130845544  0.5900699477892104  1.0000
  C   C24       1.0  0.6723526350689257  0.8131983992409458  0.0900699477892104  1.0000
  C   C25       1.0  0.180250558666458  0.567576822673324  0.4091398889103743  1.0000
  C   C26       1.0  0.3197538525471516  0.4324219559636973  0.9091412225193238  1.0000
  C   C27       1.0  0.8197472708267527  0.4324219559636973  0.5908574438717338  1.0000
  C   C28       1.0  0.6802549340166026  0.56757884513231  0.09085877748067618  1.0000
  C   C29       1.0  0.7166420727725511  0.9100236232330943  0.4384246077522675  1.0000
  C   C30       1.0  0.7833576000116126  0.08997616663342  0.9384239409477927  1.0000
  C   C31       1.0  0.28335728506777264  0.089977177862913  0.5615753922477325  1.0000
  C   C32       1.0  0.21664040435993573  0.9100236232330943  0.0615747254432577  1.0000
  C   C33       1.0  0.5744438913538943  0.8170643295941744  0.473103774780121  1.0000
  C   C34       1.0  0.9255532493710704  0.1829344490428397  0.9731031079756463  1.0000
  C   C35       1.0  0.42555411301765395  0.1829354602723328  0.526896225219879  1.0000
  C   C36       1.0  0.07444357641004731  0.8170653408236674  0.026896225219879  1.0000
  N   N1        1.0  0.2038221444846827  0.44762174647885195  0.3727530356273618  1.0000
  N   N2        1.0  0.2961785560793047  0.5523760209286763  0.872755036040779  1.0000
  N   N3        1.0  0.7961756850085352  0.5523770321581694  0.6272456307636887  1.0000
  N   N4        1.0  0.7038255161227343  0.447624780167331  0.1272462975681634  1.0000
  O   O1        1.0  0.17798612871042965  0.3404728805886705  0.4239522834719196  1.0000
  O   O2        1.0  0.3220123895510341  0.6595258980483436  0.9239549506898115  1.0000
  O   O3        1.0  0.8220118756611257  0.6595269092778366  0.5760450493101885  1.0000
  O   O4        1.0  0.6779871431676201  0.3404759142771496  0.0760470497236128  1.0000
  O   O5        1.0  0.21010910140256567  0.2016098353267779  0.2725423254139159  1.0000
  O   O6        1.0  0.2898929526301828  0.7983889433102362  0.7725429922183906  1.0000
  O   O7        1.0  0.789894491722386  0.7983950106872015  0.7274536737592427  1.0000
  O   O8        1.0  0.7101047019846902  0.2016088240972849  0.2274556741726599  1.0000
  O   O9        1.0  0.3960813522062736  0.3214688447193836  0.1865018770545888  1.0000
  O   O10       1.0  0.10392035206979953  0.6785279114586515  0.6865032106635383  1.0000
  O   O11       1.0  0.6039323235975403  0.6785329676061167  0.8135014569677708  1.0000
  O   O12       1.0  0.89607023100249  0.3214698559488767  0.3135014569677708  1.0000
  O   O13       1.0  0.17743491219781762  0.922551745426709  0.365730917722999  1.0000
  O   O14       1.0  0.32256460977573204  0.077446021980812  0.8657315845274667  1.0000
  O   O15       1.0  0.8225642707641612  0.077448044439798  0.6342697490814757  1.0000
  O   O16       1.0  0.6774357517766775  0.9225537678856952  0.1342697490814757  1.0000
  O   O17       1.0  0.1446026126398365  0.7983980443756806  0.4923770912655313  1.0000
  O   O18       1.0  0.3553990916362366  0.2015987118023546  0.9923777580699991  1.0000
  O   O19       1.0  0.8553987526246658  0.2016007342613406  0.5076242423434181  1.0000
  O   O20       1.0  0.6446010950378351  0.7984000668346667  0.0076249091478928  1.0000
  O   O21       1.0  0.701306018027694  0.9921314131784413  0.3751742026685534  1.0000
  O   O22       1.0  0.7986902938635155  0.007869387917566  0.8751722022551292  1.0000
  O   O23       1.0  0.298691157510099  0.007870399147059  0.6248271309403961  1.0000
  O   O24       1.0  0.20130570308384682  0.9921324244079343  0.124825130526979  1.0000
  O   O25       1.0  0.9495039187894322  0.9985496867729893  0.2345898152284818  1.0000
  O   O26       1.0  0.5504951000393135  0.0014531367820041  0.7345911488374242  1.0000
  O   O27       1.0  0.0504940855821161  0.001450103093525  0.7654095179670435  1.0000
  O   O28       1.0  0.4495039080443277  0.9985456418550172  0.2654088511625758  1.0000
  O   O29       1.0  0.8547983572323832  0.9069201599178811  0.4726790203308653  1.0000
  O   O30       1.0  0.6452001369613498  0.0930796299486332  0.9726790203308653  1.0000
  O   O31       1.0  0.14520200432002645  0.0930796299486332  0.52732031286466  1.0000
  O   O32       1.0  0.3547965139414303  0.906919148688388  0.0273209796691347  1.0000
