data_image0
_chemical_formula_structural       Cd2H10C12S2N6Cl4
_chemical_formula_sum              "Cd2 H10 C12 S2 N6 Cl4"
_cell_length_a       6.820618853220775
_cell_length_b       7.20966212666425
_cell_length_c       10.208349254958938
_cell_angle_alpha    74.04029280195651
_cell_angle_beta     73.24893413336835
_cell_angle_gamma    78.17061381355853

_space_group_name_H-M_alt    "P 1"
_space_group_IT_number       1

loop_
  _space_group_symop_operation_xyz
  'x, y, z'

loop_
  _atom_site_type_symbol
  _atom_site_label
  _atom_site_symmetry_multiplicity
  _atom_site_fract_x
  _atom_site_fract_y
  _atom_site_fract_z
  _atom_site_occupancy
  Cd  Cd1       1.0  0.7935365328507371  0.491353621100103  0.40800876686141413  1.0000
  Cd  Cd2       1.0  0.2064645547705765  0.5086460286149475  0.5919910801347116  1.0000
  H   H1        1.0  0.4088236924681111  0.7369258889358717  0.6960233140492209  1.0000
  H   H2        1.0  0.5911775625773997  0.2630723113436559  0.3039807015894311  1.0000
  H   H3        1.0  0.2650617025194322  0.8962254875513408  0.5940980283530096  1.0000
  H   H4        1.0  0.734942058447899  0.1037770466095012  0.40590075048438484  1.0000
  H   H5        1.0  0.6367716581438995  0.07260448583704  0.899586608802082  1.0000
  H   H6        1.0  0.36322940775880835  0.9273951689615103  0.10041618012745358  1.0000
  H   H7        1.0  0.9089148195494087  0.030881784465741205  0.6896794777145061  1.0000
  H   H8        1.0  0.09108372414671348  0.9691251670855364  0.31032334955099833  1.0000
  H   H9        1.0  0.6600027637043411  0.8758606802636065  0.1400451885025689  1.0000
  H   H10       1.0  0.3399931736072829  0.12413174434634298  0.8599570408756776  1.0000
  C   C1        1.0  0.9641867487684974  0.7287253858826475  0.058924505599271954  1.0000
  C   C2        1.0  0.0358110763597779  0.27127574802717197  0.9410756713616523  1.0000
  C   C3        1.0  0.1312164495553674  0.7126998399335631  0.936490453129551  1.0000
  C   C4        1.0  0.8687798569966315  0.2873013045778734  0.0635080505571679  1.0000
  C   C5        1.0  0.11069258804489829  0.8183279990907264  0.7997727322595979  1.0000
  C   C6        1.0  0.8893102217745719  0.18167018211467933  0.20022805343091926  1.0000
  C   C7        1.0  0.771553677170537  0.9657242311730843  0.9136904081043156  1.0000
  C   C8        1.0  0.22844488281035066  0.034271089744159204  0.0863176176264773  1.0000
  C   C9        1.0  0.9297658717132504  0.9442995838819852  0.7916330793048021  1.0000
  C   C10       1.0  0.07022792711123317  0.055708853993181214  0.20836350142894133  1.0000
  C   C11       1.0  0.7825990302896668  0.8598551570642454  0.046863359670744814  1.0000
  C   C12       1.0  0.21739765998178479  0.14015470395968777  0.9531294570355016  1.0000
  S   S1        1.0  0.2499918367159068  0.5041152253735888  0.13396697682168227  1.0000
  S   S2        1.0  0.7500144609370732  0.4958800086455212  0.8660298023908127  1.0000
  N   N1        1.0  0.01242466044386959  0.6110791421305491  0.17773790144156018  1.0000
  N   N2        1.0  0.9875799077714262  0.38891756209271466  0.8222589197210086  1.0000
  N   N3        1.0  0.2634845493596528  0.782403562853247  0.680281973439378  1.0000
  N   N4        1.0  0.7365098313723164  0.2176005080758543  0.3197163261327703  1.0000
  N   N5        1.0  0.29993102101459346  0.5924038736471928  0.9664729633549315  1.0000
  N   N6        1.0  0.7000731616755542  0.4075957413086115  0.03352238503387639  1.0000
  Cl  Cl1       1.0  0.8579159415975396  0.7332024516305962  0.5370465592744723  1.0000
  Cl  Cl2       1.0  0.1420822690558765  0.26679577154668266  0.4629550904602127  1.0000
  Cl  Cl3       1.0  0.44724612644247214  0.6927382661044701  0.35830422713786453  1.0000
  Cl  Cl4       1.0  0.552755332224919  0.3072584762670374  0.6416990539209593  1.0000
