data_image0
_chemical_formula_structural       Zr6H36C60Cl10O32
_chemical_formula_sum              "Zr6 H36 C60 Cl10 O32"
_cell_length_a       15.016021514644846
_cell_length_b       14.884593409146477
_cell_length_c       14.904390015705983
_cell_angle_alpha    59.46662559175865
_cell_angle_beta     59.7401094658676
_cell_angle_gamma    59.69557060830795

_space_group_name_H-M_alt    "P 1"
_space_group_IT_number       1

loop_
  _space_group_symop_operation_xyz
  'x, y, z'

loop_
  _atom_site_type_symbol
  _atom_site_label
  _atom_site_symmetry_multiplicity
  _atom_site_fract_x
  _atom_site_fract_y
  _atom_site_fract_z
  _atom_site_occupancy
  Zr  Zr1       1.0  0.8791027953493399  0.38536790518354996  0.6196530308644839  1.0000
  Zr  Zr2       1.0  0.11561222970984623  0.6251559206677798  0.37840867380167953  1.0000
  Zr  Zr3       1.0  0.1162674045298431  0.3852878406446508  0.6200843635396466  1.0000
  Zr  Zr4       1.0  0.8814841630170702  0.6247567724468367  0.3786598413835519  1.0000
  Zr  Zr5       1.0  0.8798362208532494  0.6202018181174794  0.620829057640627  1.0000
  Zr  Zr6       1.0  0.11682700917665303  0.38198468935367896  0.3854131249800901  1.0000
  H   H1        1.0  0.9052072215506328  0.40835356102888914  0.7820627938243304  1.0000
  H   H2        1.0  0.9057030091539602  0.786387278843563  0.4029515904334956  1.0000
  H   H3        1.0  0.27708157658900484  0.4095628936798406  0.4079863752154295  1.0000
  H   H4        1.0  0.9063352595205035  0.4095069883321966  0.4078512811013795  1.0000
  H   H5        1.0  0.5289400124307165  0.7513763637685926  0.8669106900123679  1.0000
  H   H6        1.0  0.6119615605838788  0.6763269383393793  0.952057654374954  1.0000
  H   H7        1.0  0.44272483387504014  0.6722362243681063  0.12155677387381299  1.0000
  H   H8        1.0  0.35981042638595534  0.7511287125968524  0.035565299662714225  1.0000
  H   H9        1.0  0.2419529286332106  0.04761964887287459  0.3341660449116475  1.0000
  H   H10       1.0  0.14698133170855948  0.13284296916273766  0.26117171157024893  1.0000
  H   H11       1.0  0.1480210276247148  0.9638699587661536  0.2599274299993083  1.0000
  H   H12       1.0  0.23955346510835077  0.8777168041552201  0.3370380067019738  1.0000
  H   H13       1.0  0.5453800153610758  0.8780475779458429  0.3376218627499911  1.0000
  H   H14       1.0  0.6277898963189442  0.9642978847141919  0.260236920419274  1.0000
  H   H15       1.0  0.45834715231661954  0.13318083083548513  0.2621217572309859  1.0000
  H   H16       1.0  0.375736254946908  0.04777967868221108  0.335651554043821  1.0000
  H   H17       1.0  0.8532285903670882  0.7501822876864211  0.03745677901334688  1.0000
  H   H18       1.0  0.7636989017670784  0.670909834612523  0.12264866764221687  1.0000
  H   H19       1.0  0.759932283125096  0.676479868071084  0.9524515705006492  1.0000
  H   H20       1.0  0.8533670174895748  0.7511659182227818  0.8679943254239288  1.0000
  H   H21       1.0  0.8782140090965526  0.02369816313748879  0.17664420704930697  1.0000
  H   H22       1.0  0.014999765022686505  0.0002777583126345045  0.1531388180925148  1.0000
  H   H23       1.0  0.012990298312537583  0.1596142796221259  0.9963069806679526  1.0000
  H   H24       1.0  0.8765923435134371  0.18104152128686465  0.020262862901816413  1.0000
  H   H25       1.0  0.17078483267873426  0.04417642678412648  0.8795571044496668  1.0000
  H   H26       1.0  0.14695116072513062  0.9850991516062991  0.8205011812784233  1.0000
  H   H27       1.0  0.17150131332948598  0.8849004776935133  0.037288810095461096  1.0000
  H   H28       1.0  0.14752090910977267  0.8267719378358297  0.9771107745202058  1.0000
  H   H29       1.0  0.8406503928250046  0.9405350692257386  0.09257531491299889  1.0000
  H   H30       1.0  0.9492925211201283  0.8594796025665444  0.01143519705258454  1.0000
  H   H31       1.0  0.9495209861394897  0.017705172175055753  0.8537538671741698  1.0000
  H   H32       1.0  0.8404455039505264  0.09846863727483424  0.9346899797930346  1.0000
  H   H33       1.0  0.5386141347796001  0.3468338413970782  0.7449269573635745  1.0000
  H   H34       1.0  0.6228470382470377  0.2625865318162753  0.6602976488356872  1.0000
  H   H35       1.0  0.4546645300249353  0.26267598331352815  0.6602181484172077  1.0000
  H   H36       1.0  0.3699413794383588  0.3468907445720505  0.7448833586848379  1.0000
  C   C1        1.0  0.6957308126844025  0.5019400997832548  0.8026199435224439  1.0000
  C   C2        1.0  0.9974158478229784  0.8019763947518753  0.5070122819604563  1.0000
  C   C3        1.0  0.29630553681508337  0.5020539406761343  0.19593243186982787  1.0000
  C   C4        1.0  0.0018105104907916694  0.19463809614311608  0.5109825454787681  1.0000
  C   C5        1.0  0.9993877728562881  0.196379457089094  0.8044251339571175  1.0000
  C   C6        1.0  0.6944699521238108  0.5106273194862966  0.49773008370794963  1.0000
  C   C7        1.0  0.001199740064592436  0.8083792302698001  0.18894796139888112  1.0000
  C   C8        1.0  0.2976621538728708  0.5107325000569247  0.4976387569289358  1.0000
  C   C9        1.0  5.715693701108334e-05  0.50198076064423  0.8028477822262727  1.0000
  C   C10       1.0  0.293031772080795  0.1945883195413529  0.511792346116728  1.0000
  C   C11       1.0  0.0066608498944163205  0.5013467146172206  0.196168006900109  1.0000
  C   C12       1.0  0.6941676248627006  0.8019786537615943  0.5070833729312765  1.0000
  C   C13       1.0  0.5990622104841493  0.4926940781310877  0.9061897173324097  1.0000
  C   C14       1.0  0.398671291624396  0.4948589798375806  0.09774598711202738  1.0000
  C   C15       1.0  0.5420880882198703  0.5752436340291069  0.953256946286018  1.0000
  C   C16       1.0  0.455974337257814  0.4084846945551917  0.0523426959844144  1.0000
  C   C17       1.0  0.44708184274662693  0.575614154128111  0.045267680824288496  1.0000
  C   C18       1.0  0.5551731986086993  0.4055453839130153  0.9615598543685308  1.0000
  C   C19       1.0  0.5409393759833985  0.6825112439363751  0.9425354632077542  1.0000
  C   C20       1.0  0.4346271253782847  0.6817833161976238  0.04778959063910556  1.0000
  C   C21       1.0  0.998992457801464  0.09192012092609043  0.5186788270228814  1.0000
  C   C22       1.0  0.9936761876732161  0.9002719711897812  0.514787676733725  1.0000
  C   C23       1.0  0.07273785715783286  0.044523524254735485  0.4365574534984376  1.0000
  C   C24       1.0  0.916191808192309  0.9478895739433569  0.598897830441615  1.0000
  C   C25       1.0  0.07080316024853779  0.9524910234023737  0.435372382611149  1.0000
  C   C26       1.0  0.9205610676863785  0.03890532157009803  0.6028041142611329  1.0000
  C   C27       1.0  0.16736379437338664  0.056592276213891075  0.32898110603687053  1.0000
  C   C28       1.0  0.1664969722320111  0.9511425533527528  0.32891590368260637  1.0000
  C   C29       1.0  0.59185828008782  0.9003542906497514  0.5149772449175885  1.0000
  C   C30       1.0  0.3909316640466188  0.09197458028325652  0.5194302424362859  1.0000
  C   C31       1.0  0.5415886799734224  0.9525956015680989  0.43583394283414373  1.0000
  C   C32       1.0  0.4387334468889038  0.03910615316856077  0.6031346905238308  1.0000
  C   C33       1.0  0.44640675721679923  0.04462247630982565  0.43731342415464514  1.0000
  C   C34       1.0  0.5380596828401564  0.9480818619919946  0.5989647174910856  1.0000
  C   C35       1.0  0.5532187273661008  0.9514222573615216  0.3294904882667423  1.0000
  C   C36       1.0  0.4467238767611406  0.05683436224188637  0.3299697502287627  1.0000
  C   C37       1.0  0.009300330620831642  0.49402139265765055  0.0982277726327254  1.0000
  C   C38       1.0  0.002315499464764154  0.49244347877372247  0.9065600284442253  1.0000
  C   C39       1.0  0.932377774318752  0.5748177813772555  0.04604414939088017  1.0000
  C   C40       1.0  0.07796457357306977  0.4050347880130687  0.9618878071701643  1.0000
  C   C41       1.0  0.9296858012134596  0.574821725493294  0.9538850607877265  1.0000
  C   C42       1.0  0.08365037563982716  0.4077699231444215  0.05264821402653304  1.0000
  C   C43       1.0  0.8360169119992381  0.6808466553138074  0.04896705332861025  1.0000
  C   C44       1.0  0.8343338700904966  0.6822165560807323  0.9433716455125631  1.0000
  C   C45       1.0  0.9608491048660357  0.014263062923553983  0.11472820429974447  1.0000
  C   C46       1.0  0.9598985818627668  0.12023692358809489  0.009895141568428268  1.0000
  C   C47       1.0  0.9996267819931289  0.09082370256744798  0.906831724130697  1.0000
  C   C48       1.0  0.11639896800145515  0.0058082002127334414  0.8943501238362755  1.0000
  C   C49       1.0  0.11694929743988787  0.9001022442584274  0.9988093814365085  1.0000
  C   C50       1.0  0.0004998657919017857  0.9116008275823904  0.08441234597754035  1.0000
  C   C51       1.0  0.9233505688789879  0.9325197044549255  0.03153293912931322  1.0000
  C   C52       1.0  0.9232800500348974  0.03762670916412223  0.9268101246377896  1.0000
  C   C53       1.0  0.5948179810981316  0.5152419520111239  0.49181807869256733  1.0000
  C   C54       1.0  0.3986725848358434  0.5152611436426326  0.4917081323129863  1.0000
  C   C55       1.0  0.543024093794827  0.4367934184277545  0.5708258104370927  1.0000
  C   C56       1.0  0.45076034534598364  0.5954246179576472  0.4089159265906446  1.0000
  C   C57       1.0  0.4498175252799967  0.43682721335069635  0.5707940010670428  1.0000
  C   C58       1.0  0.5453866330287055  0.5954650611390307  0.40901205962242654  1.0000
  C   C59       1.0  0.5490149652740827  0.33435188880915934  0.673202739453778  1.0000
  C   C60       1.0  0.44379612990314854  0.33439760910435007  0.6731884771230908  1.0000
  Cl  Cl1       1.0  0.40757617758200126  0.3030175899669771  0.10380790204481372  1.0000
  Cl  Cl2       1.0  0.6224620667683995  0.289485086763257  0.9237736225795385  1.0000
  Cl  Cl3       1.0  0.8096740335231091  0.9006402670449701  0.6989383839443662  1.0000
  Cl  Cl4       1.0  0.8268457704014909  0.08126752685119244  0.7147364856333381  1.0000
  Cl  Cl5       1.0  0.37909711554243597  0.08212167405815751  0.7144875736591911  1.0000
  Cl  Cl6       1.0  0.5925932652683914  0.9012023508578934  0.6982311930339195  1.0000
  Cl  Cl7       1.0  0.16419237542015724  0.28890647410453607  0.9241497270990421  1.0000
  Cl  Cl8       1.0  0.18601081915122825  0.3021298790492324  0.10407458449262218  1.0000
  Cl  Cl9       1.0  0.402106077953057  0.6974458300878156  0.30208083594217777  1.0000
  Cl  Cl10      1.0  0.5986980480783899  0.6976819340514028  0.3024206547518488  1.0000
  O   O1        1.0  0.7342254280863754  0.4340775675909326  0.7535556097650653  1.0000
  O   O2        1.0  0.07248067296399094  0.7706796507220802  0.4253888088407365  1.0000
  O   O3        1.0  0.2591755485158346  0.5824966561223378  0.22897734388004662  1.0000
  O   O4        1.0  0.925181534308699  0.2413102806371725  0.58119730853943  1.0000
  O   O5        1.0  0.07369147752088166  0.23723837989577146  0.7668516902008731  1.0000
  O   O6        1.0  0.7373797604210922  0.585653934920309  0.42473251027201525  1.0000
  O   O7        1.0  0.9257955402832538  0.7675431516749213  0.23080914948985057  1.0000
  O   O8        1.0  0.2640652545996217  0.43086378518790996  0.5755217624934303  1.0000
  O   O9        1.0  0.9201960068559673  0.5785117792852219  0.7696406730882683  1.0000
  O   O10       1.0  0.2589873467401063  0.2308141562206884  0.4325150135053377  1.0000
  O   O11       1.0  0.07899595096505854  0.426555008316548  0.24092358053927396  1.0000
  O   O12       1.0  0.736607096928175  0.756313976638964  0.5819532218073321  1.0000
  O   O13       1.0  0.25224195283045964  0.2409793149037966  0.5823895094558509  1.0000
  O   O14       1.0  0.9300424347401659  0.5816119476798461  0.2293597798774272  1.0000
  O   O15       1.0  0.7320066894480063  0.7707965791335242  0.42539143270887075  1.0000
  O   O16       1.0  0.07859684359842588  0.4342151497145467  0.7536777793441728  1.0000
  O   O17       1.0  0.9235943514896477  0.23838171554631046  0.7641462692253282  1.0000
  O   O18       1.0  0.25282707867317095  0.5857263240495315  0.4245540065425145  1.0000
  O   O19       1.0  0.0759024882553872  0.770121206284003  0.2296138738988418  1.0000
  O   O20       1.0  0.7301783002570232  0.4306475715602077  0.5754813196018063  1.0000
  O   O21       1.0  0.07920396647832459  0.23066025422636474  0.432060249782907  1.0000
  O   O22       1.0  0.7323205278803187  0.5784034359390233  0.769494229703561  1.0000
  O   O23       1.0  0.9256054944450508  0.7564967325495434  0.5818354701404969  1.0000
  O   O24       1.0  0.25449256704513357  0.42680113896172867  0.24115049949816128  1.0000
  O   O25       1.0  0.9323970366794329  0.4369314984931236  0.43363596297669466  1.0000
  O   O26       1.0  0.19779048993367362  0.4369468876894302  0.43380968763688793  1.0000
  O   O27       1.0  0.9318071026842816  0.7061557919756609  0.4309098742762956  1.0000
  O   O28       1.0  0.9310169091755259  0.4366936730785723  0.7020078817368045  1.0000
  O   O29       1.0  0.04702103935969862  0.5538923666019075  0.5477235181943101  1.0000
  O   O30       1.0  0.8519964698541213  0.5538914066716244  0.5478295310669168  1.0000
  O   O31       1.0  0.047940336602607665  0.5534984582383942  0.3515053968255444  1.0000
  O   O32       1.0  0.046933061454836916  0.35460149305033184  0.5523775360004279  1.0000
