data_image0
_chemical_formula_structural       Zn4H44C72N4O16
_chemical_formula_sum              "Zn4 H44 C72 N4 O16"
_cell_length_a       10.389354749813956
_cell_length_b       11.852231221426285
_cell_length_c       13.478960976566343
_cell_angle_alpha    93.79411974980188
_cell_angle_beta     108.31296692653031
_cell_angle_gamma    103.58897265030033

_space_group_name_H-M_alt    "P 1"
_space_group_IT_number       1

loop_
  _space_group_symop_operation_xyz
  'x, y, z'

loop_
  _atom_site_type_symbol
  _atom_site_label
  _atom_site_symmetry_multiplicity
  _atom_site_fract_x
  _atom_site_fract_y
  _atom_site_fract_z
  _atom_site_occupancy
  Zn  Zn1       1.0  0.3345470632489338  0.48838245829967514  0.292974979782052  1.0000
  Zn  Zn2       1.0  0.6654508124934609  0.51161577055408  0.7070213934610976  1.0000
  Zn  Zn3       1.0  0.5628247226662423  0.5061998353263277  0.14655957705122094  1.0000
  Zn  Zn4       1.0  0.4371760314420712  0.4938009832879615  0.8534413723266994  1.0000
  H   H1        1.0  0.8134502368285157  0.5932783579101725  0.07022477012694858  1.0000
  H   H2        1.0  0.18654586660308337  0.4067206744171728  0.9297801278672397  1.0000
  H   H3        1.0  0.06337933736809018  0.7153432337306639  0.1650735577831739  1.0000
  H   H4        1.0  0.9366144922717297  0.2846550212938226  0.8349210928391032  1.0000
  H   H5        1.0  0.1215820167737219  0.8290938458358706  0.3434975993354215  1.0000
  H   H6        1.0  0.878422677991722  0.170909670081727  0.6564963203294171  1.0000
  H   H7        1.0  0.6897296855509937  0.6847752772405968  0.3207747661278121  1.0000
  H   H8        1.0  0.3102807370308085  0.31522720543404864  0.6792338319354131  1.0000
  H   H9        1.0  0.053899567366514155  0.8750301651536176  0.4958649786974619  1.0000
  H   H10       1.0  0.9461056601202601  0.12497500174686141  0.5041403060115073  1.0000
  H   H11       1.0  0.7336579480965711  0.7929525172129248  0.4542482195375045  1.0000
  H   H12       1.0  0.2663407938945781  0.20704833905898573  0.5457492760523905  1.0000
  H   H13       1.0  0.6458705958496865  0.8533721405909205  0.5762163668555048  1.0000
  H   H14       1.0  0.35412436796156754  0.1466295708534702  0.4237847182816524  1.0000
  H   H15       1.0  0.6714552878039015  0.9331778940144202  0.7582768774543638  1.0000
  H   H16       1.0  0.3285463263050943  0.06682553797674019  0.24172667568607412  1.0000
  H   H17       1.0  0.12204351666751728  0.012850277156815101  0.8426850090912126  1.0000
  H   H18       1.0  0.8779589722631729  0.9871496537361748  0.15731630403024607  1.0000
  H   H19       1.0  0.09756156301653367  0.936338533316821  0.6631329669964927  1.0000
  H   H20       1.0  0.9024360237340973  0.06366496696891488  0.3368644192757841  1.0000
  H   H21       1.0  0.813255523733126  0.016933648698405097  0.9326329178926901  1.0000
  H   H22       1.0  0.18674436100239689  0.9830645354771048  0.06736764984636069  1.0000
  H   H23       1.0  0.12267853303285389  0.1264471300629708  0.9653262867550795  1.0000
  H   H24       1.0  0.8773194676983636  0.8735545670188644  0.03467553481682021  1.0000
  H   H25       1.0  0.8058485134572564  0.17900445750540683  0.9887469249771642  1.0000
  H   H26       1.0  0.19414411640639168  0.8209901936656648  0.011256845995745782  1.0000
  H   H27       1.0  0.8045665732571976  0.3554403985729664  0.09901414313503658  1.0000
  H   H28       1.0  0.19542926537575767  0.6445578117732609  0.9009847019831413  1.0000
  H   H29       1.0  0.03152460333513571  0.4768501205055315  0.23410052672594625  1.0000
  H   H30       1.0  0.9684718367479164  0.5231498952777258  0.7658933878629739  1.0000
  H   H31       1.0  0.2544174056695425  0.2624983653440367  0.14865062871303542  1.0000
  H   H32       1.0  0.745575560845559  0.7374972692829402  0.8513421588546066  1.0000
  H   H33       1.0  0.6440932814595186  0.1092369834288434  0.5755869087638034  1.0000
  H   H34       1.0  0.3559034257470586  0.8907577117779367  0.42441117775116066  1.0000
  H   H35       1.0  0.6319965529553072  0.9576176948234902  0.4362671864323602  1.0000
  H   H36       1.0  0.36800638432035276  0.0423805100926629  0.5637304142020199  1.0000
  H   H37       1.0  0.5909160940351726  0.2047954070521456  0.21522315490396693  1.0000
  H   H38       1.0  0.40909089014222383  0.7952089212715238  0.7847773085933697  1.0000
  H   H39       1.0  0.45556943507985187  0.8472466906571583  0.2910484990168812  1.0000
  H   H40       1.0  0.5444298966644254  0.1527620925474409  0.7089481691173773  1.0000
  H   H41       1.0  0.6416282619695011  0.9130025903708868  0.9983404752659837  1.0000
  H   H42       1.0  0.358374675306159  0.08699561454527333  0.0016571253683963622  1.0000
  H   H43       1.0  0.690371490767248  0.0810162238822656  0.13885396337219896  1.0000
  H   H44       1.0  0.30963623467008733  0.9189872636314861  0.86114217414314  1.0000
  C   C1        1.0  0.8454710175948675  0.6444121794506756  0.14839359971803387  1.0000
  C   C2        1.0  0.15452857422569372  0.3555851195579223  0.8516075815159355  1.0000
  C   C3        1.0  0.982449316790735  0.7127723708012469  0.20089230334521357  1.0000
  C   C4        1.0  0.01754839647441738  0.2872223055767265  0.799107510063763  1.0000
  C   C5        1.0  0.014947289803934937  0.7748812087378169  0.3009738194494886  1.0000
  C   C6        1.0  0.9850556349755806  0.22511696809576884  0.6990267440164218  1.0000
  C   C7        1.0  0.9108787797301474  0.7689422174135531  0.3480169535923139  1.0000
  C   C8        1.0  0.0891296307344902  0.23106030291869928  0.6519881906828928  1.0000
  C   C9        1.0  0.7759662265696078  0.6971330581171601  0.2892416539636713  1.0000
  C   C10       1.0  0.2240414480840016  0.3028641674880674  0.7107651946356839  1.0000
  C   C11       1.0  0.9427302567609317  0.8312392277762443  0.4533472867732158  1.0000
  C   C12       1.0  0.0572748363649254  0.1687624498342331  0.546654771730644  1.0000
  C   C13       1.0  0.8446387486572179  0.83531061948311  0.4989234628211534  1.0000
  C   C14       1.0  0.1553617250322716  0.16468934204684876  0.5010751372201696  1.0000
  C   C15       1.0  0.8687305354419977  0.8889179349539873  0.6055917050491075  1.0000
  C   C16       1.0  0.1312674817085551  0.11108994680930098  0.3944075532254701  1.0000
  C   C17       1.0  0.7503577025470846  0.8908025768799064  0.6347276116742294  1.0000
  C   C18       1.0  0.2496375604272103  0.10920003377268021  0.36527137855224373  1.0000
  C   C19       1.0  0.7650382815964961  0.935282376438643  0.7370805643174877  1.0000
  C   C20       1.0  0.2349653696219463  0.0647210740600457  0.262920516947915  1.0000
  C   C21       1.0  0.898510221920681  0.9778806104484875  0.8143182545376321  1.0000
  C   C22       1.0  0.10148981904401921  0.0221211121615141  0.1856803544513497  1.0000
  C   C23       1.0  0.016740819065532434  0.9789232962731876  0.7845770220176576  1.0000
  C   C24       1.0  0.9832599483380874  0.0210837000019168  0.21542210477082346  1.0000
  C   C25       1.0  0.0031699661041315968  0.9357079611340993  0.6826080176736368  1.0000
  C   C26       1.0  0.9968270449878389  0.06429993945798883  0.31738951370693513  1.0000
  C   C27       1.0  0.9121981234762019  0.0032663884546408947  0.9278981415961455  1.0000
  C   C28       1.0  0.0877991633122264  0.9967300630446658  0.0721001993447317  1.0000
  C   C29       1.0  0.0449329033883785  0.09551118527911481  0.0038595191760749017  1.0000
  C   C30       1.0  0.95506379444609  0.9044834888657359  0.9961407894625296  1.0000
  C   C31       1.0  0.03009526211248213  0.20208062625344078  0.06212077228376963  1.0000
  C   C32       1.0  0.9698957821107257  0.7979122874539115  0.9378810173692145  1.0000
  C   C33       1.0  0.9037045248678197  0.23149987614058892  0.04826276472967813  1.0000
  C   C34       1.0  0.09628769413927779  0.7684965852550291  0.9517358302357266  1.0000
  C   C35       1.0  0.9020561715458085  0.33060076965312385  0.10968133608005809  1.0000
  C   C36       1.0  0.0979369066628095  0.6693921555411181  0.8903187224057802  1.0000
  C   C37       1.0  0.026974170086816716  0.3990078163293944  0.1839216363264882  1.0000
  C   C38       1.0  0.9730225308716884  0.6009868648361021  0.8160779316042339  1.0000
  C   C39       1.0  0.15186012363706422  0.27788415556828744  0.13726793253698596  1.0000
  C   C40       1.0  0.8481345527081389  0.7221105351722414  0.8627311444372483  1.0000
  C   C41       1.0  0.6218236755110382  0.24268464402140924  0.47497339257265037  1.0000
  C   C42       1.0  0.3781756327666628  0.7573117908822127  0.5250261800326044  1.0000
  C   C43       1.0  0.6348210624389452  0.1310540414885182  0.4967573343698676  1.0000
  C   C44       1.0  0.3651766601983156  0.8689406559513843  0.5032402569154614  1.0000
  C   C45       1.0  0.627683282181458  0.04520803857636931  0.4182584762988952  1.0000
  C   C46       1.0  0.3723132883393205  0.954789309898004  0.5817382649609328  1.0000
  C   C47       1.0  0.6103327394390732  0.06947983997559251  0.31494217319563944  1.0000
  C   C48       1.0  0.3896680302894139  0.9305210137419163  0.6850550726428679  1.0000
  C   C49       1.0  0.6080211024192651  0.18348953165890694  0.2949370658569493  1.0000
  C   C50       1.0  0.39198572552896854  0.8165112582302713  0.705065356390449  1.0000
  C   C51       1.0  0.6098353485558903  0.268671888343782  0.372673909158202  1.0000
  C   C52       1.0  0.39016641785907785  0.7313289254829983  0.6273272856979659  1.0000
  C   C53       1.0  0.5810997999317138  0.9748156182428573  0.22773049863571518  1.0000
  C   C54       1.0  0.4189008299869458  0.025187881721599602  0.7722661426555392  1.0000
  C   C55       1.0  0.4975227974962806  0.8630209638096675  0.22724484392593786  1.0000
  C   C56       1.0  0.5024801437025843  0.1369833977053716  0.7727531562426435  1.0000
  C   C57       1.0  0.4674180403278855  0.7689531105233559  0.14761263521152304  1.0000
  C   C58       1.0  0.5325831629245601  0.23105213169234426  0.8523857419214096  1.0000
  C   C59       1.0  0.5248307742574809  0.7871934015556832  0.06630068635099919  1.0000
  C   C60       1.0  0.4751721669413769  0.21281095995935567  0.9336973138175821  1.0000
  C   C61       1.0  0.6019581543296796  0.9008193920499182  0.06380612497394371  1.0000
  C   C62       1.0  0.3980432043527742  0.09918323902203949  0.9361891531668364  1.0000
  C   C63       1.0  0.6287522655961411  0.9938919430464708  0.1419624387531258  1.0000
  C   C64       1.0  0.37125010539295994  0.006110683237970698  0.8580330848659017  1.0000
  C   C65       1.0  0.5696661565489904  0.37502544597968784  0.33282516445801497  1.0000
  C   C66       1.0  0.43033127397247023  0.6249745158715427  0.6671741805643238  1.0000
  C   C67       1.0  0.6084064372126647  0.32376907412336914  0.5599875711416689  1.0000
  C   C68       1.0  0.3915947394491753  0.6762238127707081  0.4400144511701429  1.0000
  C   C69       1.0  0.3703774856819777  0.6580278174674206  0.1598619012559652  1.0000
  C   C70       1.0  0.6296260163545285  0.34197825821628663  0.8401407975858248  1.0000
  C   C71       1.0  0.513371952553868  0.6913724643549841  0.9843347817630956  1.0000
  C   C72       1.0  0.486628085286796  0.30862925123437895  0.015664567933768633  1.0000
  N   N1        1.0  0.7448329610947938  0.6371306399622796  0.19306534051308694  1.0000
  N   N2        1.0  0.2551705213983412  0.3628692440193292  0.8069406623339078  1.0000
  N   N3        1.0  0.150669539985735  0.3733233886589602  0.19640902182239023  1.0000
  N   N4        1.0  0.8493309305797254  0.6266765658503602  0.8035903189268084  1.0000
  O   O1        1.0  0.6296384979970283  0.42403221225168874  0.2722242044003167  1.0000
  O   O2        1.0  0.370358648981572  0.5759668854945659  0.7277735319933002  1.0000
  O   O3        1.0  0.469966455577051  0.4001084161522499  0.35801423684933553  1.0000
  O   O4        1.0  0.5300292361988355  0.599886276821401  0.6419843448952635  1.0000
  O   O5        1.0  0.7039416902186915  0.42299505989226555  0.5957787875804782  1.0000
  O   O6        1.0  0.2960558574451895  0.5769960569892731  0.4042252067022006  1.0000
  O   O7        1.0  0.5089130453085884  0.2881874662400676  0.5936151639549578  1.0000
  O   O8        1.0  0.49109000286141963  0.7118018796651102  0.4063885673555277  1.0000
  O   O9        1.0  0.25086666204870767  0.6596464409126597  0.15685213254601396  1.0000
  O   O10       1.0  0.7491381045969662  0.3403604238820819  0.8431598274815572  1.0000
  O   O11       1.0  0.42106133920205485  0.5678563304678974  0.18778877406091965  1.0000
  O   O12       1.0  0.578947800825539  0.4321514705500961  0.8122161473058968  1.0000
  O   O13       1.0  0.4259811179570576  0.5895346970036286  0.9774135085041851  1.0000
  O   O14       1.0  0.5740192003024306  0.41046787567006504  0.022588190529283726  1.0000
  O   O15       1.0  0.5874183443831313  0.7083549506410307  0.9263338053920266  1.0000
  O   O16       1.0  0.41258010156902  0.291645013443329  0.07366504440067702  1.0000
