data_image0
_chemical_formula_structural       Zn2H56C40N20O16
_chemical_formula_sum              "Zn2 H56 C40 N20 O16"
_cell_length_a       7.379700266001239
_cell_length_b       10.35511766879114
_cell_length_c       18.506046640848012
_cell_angle_alpha    95.38252513213698
_cell_angle_beta     90.00006761895088
_cell_angle_gamma    89.99999844928982

_space_group_name_H-M_alt    "P 1"
_space_group_IT_number       1

loop_
  _space_group_symop_operation_xyz
  'x, y, z'

loop_
  _atom_site_type_symbol
  _atom_site_label
  _atom_site_symmetry_multiplicity
  _atom_site_fract_x
  _atom_site_fract_y
  _atom_site_fract_z
  _atom_site_occupancy
  Zn  Zn1       1.0  0.9021420818584716  0.03879330424403091  0.7333023094185833  1.0000
  Zn  Zn2       1.0  0.40214546073386975  0.961205257825668  0.266698515750484  1.0000
  H   H1        1.0  0.79030452081944  0.21116195760501447  0.941919858604585  1.0000
  H   H2        1.0  0.29030456052225867  0.788844355334291  0.058081881998056396  1.0000
  H   H3        1.0  0.6587923529177788  0.3378263388344678  0.9077947211960479  1.0000
  H   H4        1.0  0.15879791600104204  0.6621809388380554  0.09220701182547938  1.0000
  H   H5        1.0  0.6585429506337944  0.17826067765668094  0.8615324279574564  1.0000
  H   H6        1.0  0.1585418777018717  0.8217466044630659  0.13846876482262624  1.0000
  H   H7        1.0  0.4133554578643058  0.2695423745155949  0.843099861340427  1.0000
  H   H8        1.0  0.9133557596766837  0.7304581413183869  0.1568994554458527  1.0000
  H   H9        1.0  0.06347684991052922  0.35521469667994404  0.9099681617692212  1.0000
  H   H10       1.0  0.5634796602753057  0.6447828952955774  0.0900308326026718  1.0000
  H   H11       1.0  0.05609430769242611  0.5208694049596546  0.8247981339175539  1.0000
  H   H12       1.0  0.556096020119533  0.4791310921829748  0.1752015573424259  1.0000
  H   H13       1.0  0.24723877527094376  0.4171472374431245  0.7239639028575767  1.0000
  H   H14       1.0  0.7472353714388975  0.5828552028034437  0.2760365239446543  1.0000
  H   H15       1.0  0.4443661059644981  0.4382005682341871  0.779207421670236  1.0000
  H   H16       1.0  0.9443638905965558  0.5618018664945267  0.22079471690687308  1.0000
  H   H17       1.0  0.32794263925576683  0.5752197557667174  0.7533714861824805  1.0000
  H   H18       1.0  0.8279405020046441  0.42478461426913566  0.24663070520412586  1.0000
  H   H19       1.0  0.18909312258399785  0.5695153204147232  0.9496747051735427  1.0000
  H   H20       1.0  0.6890958134718093  0.43048517311231654  0.0503261280026024  1.0000
  H   H21       1.0  0.2868205730808455  0.6675331515287438  0.8861452514470046  1.0000
  H   H22       1.0  0.7868248108000062  0.3324663714618623  0.1138561137712344  1.0000
  H   H23       1.0  0.40910878000030243  0.5336609842481437  0.9142191799110861  1.0000
  H   H24       1.0  0.9091142879251778  0.4663404835604368  0.0857823488001088  1.0000
  H   H25       1.0  0.9482784537431073  0.14488062386450204  0.06810911702736891  1.0000
  H   H26       1.0  0.4482784189633834  0.8551160090121783  0.9318905424929581  1.0000
  H   H27       1.0  0.1009582318593729  0.08841615187094479  0.1339577365752334  1.0000
  H   H28       1.0  0.6009579623336023  0.9115824071134215  0.8660418686948717  1.0000
  H   H29       1.0  0.3703085932261416  0.8906710829238946  0.5775729003172145  1.0000
  H   H30       1.0  0.8703083417458403  0.10933038333867977  0.422428610402207  1.0000
  H   H31       1.0  0.521822763405666  0.8705285763462668  0.5022697458141607  1.0000
  H   H32       1.0  0.0218227750867541  0.12947481152026802  0.4977322502389541  1.0000
  H   H33       1.0  0.4457750214313806  0.7324410077374851  0.543386837004718  1.0000
  H   H34       1.0  0.9457721627171409  0.26756240593478964  0.4566142753727007  1.0000
  H   H35       1.0  0.18212889221152306  0.7435795182001712  0.596407684907426  1.0000
  H   H36       1.0  0.6821285837181179  0.25642291499504205  0.4035932518303511  1.0000
  H   H37       1.0  0.8067219447959391  0.6713291913114432  0.5529160157192763  1.0000
  H   H38       1.0  0.30671909329875297  0.32866937141366753  0.4470842250807223  1.0000
  H   H39       1.0  0.036358873754579704  0.6048560705845888  0.6822410070250556  1.0000
  H   H40       1.0  0.5363542409573726  0.39513958482192635  0.3177573278556665  1.0000
  H   H41       1.0  0.7096667592084317  0.6355701420611268  0.7165210830695017  1.0000
  H   H42       1.0  0.20965934896189256  0.3644235624754373  0.2834793858736759  1.0000
  H   H43       1.0  0.776384914156971  0.4701063612848061  0.7151727863811956  1.0000
  H   H44       1.0  0.2763761526821327  0.529886389308956  0.2848260397283084  1.0000
  H   H45       1.0  0.6455326066847747  0.5235677491735444  0.6425769232617142  1.0000
  H   H46       1.0  0.1455281294668964  0.4764288671836781  0.357423136008002  1.0000
  H   H47       1.0  0.12381889233017061  0.47105420853858965  0.5673872478524019  1.0000
  H   H48       1.0  0.6238159608593608  0.528944382557583  0.4326085871470227  1.0000
  H   H49       1.0  0.8919950535292713  0.4309410341546781  0.5512987736808768  1.0000
  H   H50       1.0  0.39199085151457075  0.569059480828173  0.4487005332002028  1.0000
  H   H51       1.0  0.006582513420390502  0.37488866628728346  0.6269464375736007  1.0000
  H   H52       1.0  0.5065794021671053  0.6251050613590792  0.3730501563368875  1.0000
  H   H53       1.0  0.6770239982250885  0.8245712815821379  0.3759131123420971  1.0000
  H   H54       1.0  0.17702303591180882  0.1754282504056945  0.6240865815928913  1.0000
  H   H55       1.0  0.8107095302811161  0.8575074827907231  0.30013942522374043  1.0000
  H   H56       1.0  0.31070879657573164  0.1424910800933077  0.6998608174256731  1.0000
  C   C1        1.0  0.3369988499567143  0.22883175373330286  0.9437386715499514  1.0000
  C   C2        1.0  0.8370002032186863  0.7711658402253434  0.05626152989378142  1.0000
  C   C3        1.0  0.22072854905660935  0.15635863767071356  0.047885772985353  1.0000
  C   C4        1.0  0.7207298943175504  0.8436399260856007  0.9521138878188964  1.0000
  C   C5        1.0  0.4001369549458644  0.11937810442152137  0.0712890664586325  1.0000
  C   C6        1.0  0.9001355194265204  0.8806224064284791  0.9287107843225044  1.0000
  C   C7        1.0  0.5553261146953689  0.14198055307142002  0.024891648446953202  1.0000
  C   C8        1.0  0.05532350013435661  0.8580218884435168  0.9751076091229933  1.0000
  C   C9        1.0  0.6640757760849709  0.23382786986869064  0.9148775864478155  1.0000
  C   C10       1.0  0.16407589738654596  0.7661774769831099  0.0851229619822647  1.0000
  C   C11       1.0  0.14753981044341913  0.3446659023988233  0.860745571472556  1.0000
  C   C12       1.0  0.64753870406269  0.6553355728172859  0.1392536754586544  1.0000
  C   C13       1.0  0.031339882706674906  0.2652884895422787  0.8034207809677767  1.0000
  C   C14       1.0  0.5313389491294416  0.7347139643889025  0.19657684510809761  1.0000
  C   C15       1.0  0.1894547572513048  0.48140006981098793  0.8378157611333563  1.0000
  C   C16       1.0  0.689453720223419  0.5186013937032357  0.1621851256053191  1.0000
  C   C17       1.0  0.3082426769986526  0.47693077536656864  0.7697955200713409  1.0000
  C   C18       1.0  0.808239135004321  0.5230706839658054  0.23020650199353554  1.0000
  C   C19       1.0  0.2732075758237329  0.5676802565267919  0.9005227343095115  1.0000
  C   C20       1.0  0.7732117700396729  0.43232023589428803  0.09947867799250082  1.0000
  C   C21       1.0  0.08649477679230701  0.7741365676954999  0.4969606920645547  1.0000
  C   C22       1.0  0.5864920581721265  0.22586198625526072  0.503039446622985  1.0000
  C   C23       1.0  0.9518563192267849  0.8175315039201649  0.3896028146293489  1.0000
  C   C24       1.0  0.4518566706801722  0.1824680345603369  0.6103975468614138  1.0000
  C   C25       1.0  0.12514112581538228  0.8480763213787058  0.3597221659498969  1.0000
  C   C26       1.0  0.625138821259256  0.15192126413896997  0.640277937261139  1.0000
  C   C27       1.0  0.28251615165243754  0.8522584679700104  0.40644744795419296  1.0000
  C   C28       1.0  0.7825150612290059  0.14774494811228317  0.593552508477039  1.0000
  C   C29       1.0  0.40618395989709916  0.8284823325020128  0.5283953235269578  1.0000
  C   C30       1.0  0.9061852117396899  0.17152107513565074  0.471606310618526  1.0000
  C   C31       1.0  0.9074483226194519  0.6936557817570159  0.595802723144871  1.0000
  C   C32       1.0  0.4074466968582939  0.3063408450355708  0.4041974575676903  1.0000
  C   C33       1.0  0.8467399667399462  0.8159304111781434  0.6434737886314679  1.0000
  C   C34       1.0  0.34674226255749113  0.1840642643354826  0.3565273373905242  1.0000
  C   C35       1.0  0.9308382302328726  0.5776280340559341  0.6413423754800078  1.0000
  C   C36       1.0  0.4308324017421867  0.4223695725559152  0.358656789223943  1.0000
  C   C37       1.0  0.7554422782043703  0.5505012974454147  0.6814164377994487  1.0000
  C   C38       1.0  0.2554363287987513  0.44949435777527225  0.3185830789116579  1.0000
  C   C39       1.0  0.9930615532033188  0.45706683239135504  0.593945575341543  1.0000
  C   C40       1.0  0.4930585776508423  0.5429298200986992  0.4060519444455863  1.0000
  N   N1        1.0  0.5139220505573477  0.1985175316402632  0.9608440169632005  1.0000
  N   N2        1.0  0.0139220331574919  0.8014839337949479  0.03915570813812508  1.0000
  N   N3        1.0  0.195142204027043  0.21250376667397564  0.986166101508303  1.0000
  N   N4        1.0  0.6951447843572751  0.7874947960629513  0.013833547432639596  1.0000
  N   N5        1.0  0.3128040052262264  0.2808694394061106  0.8806808780744858  1.0000
  N   N6        1.0  0.8128014835603496  0.7191300890768912  0.1193199590656278  1.0000
  N   N7        1.0  0.07659402885375502  0.13276659660230908  0.0876702516022618  1.0000
  N   N8        1.0  0.5765911888716603  0.8672319614112782  0.9123293423703203  1.0000
  N   N9        1.0  0.443591384681561  0.0636558293634693  0.1311633537680024  1.0000
  N   N10       1.0  0.9435897684829799  0.9363446832178467  0.8688365171615544  1.0000
  N   N11       1.0  0.2545259614078077  0.8197446436368381  0.4770174153096605  1.0000
  N   N12       1.0  0.754526013144485  0.18025876241569702  0.522983608392181  1.0000
  N   N13       1.0  0.9383477414518141  0.7772932412948704  0.4565210182427464  1.0000
  N   N14       1.0  0.43834518086243435  0.22270435670166217  0.5434792301924106  1.0000
  N   N15       1.0  0.07846202678019411  0.7230168631219414  0.5609627831070583  1.0000
  N   N16       1.0  0.5784604701047585  0.2769846004273687  0.439037512043349  1.0000
  N   N17       1.0  0.8012417445269124  0.8314312572697489  0.3521448969500725  1.0000
  N   N18       1.0  0.301240853917861  0.16856827520991402  0.6478553947051039  1.0000
  N   N19       1.0  0.15395384798438272  0.8855355051093027  0.29266395015400093  1.0000
  N   N20       1.0  0.6539531008201253  0.11446305598651922  0.7073356796884056  1.0000
  O   O1        1.0  0.09320414688613711  0.15253726778650645  0.7788257527844706  1.0000
  O   O2        1.0  0.5932046424166019  0.8474622564044978  0.221174442410458  1.0000
  O   O3        1.0  0.8848934934963426  0.31397033185543677  0.7862449663087361  1.0000
  O   O4        1.0  0.38488858262589093  0.6860321762776636  0.2137479625796814  1.0000
  O   O5        1.0  0.31018088198994337  0.038970475775194295  0.17408123397925124  1.0000
  O   O6        1.0  0.810180491368101  0.9610310103782067  0.8259175482394738  1.0000
  O   O7        1.0  0.7142458693674385  0.11571538413306108  0.0388804003639649  1.0000
  O   O8        1.0  0.21424592271342394  0.8842860892835063  0.9611194176213047  1.0000
  O   O9        1.0  0.9787169261825074  0.8737739388321799  0.6796816373153547  1.0000
  O   O10       1.0  0.4787164027216876  0.12622463966022926  0.32031760298539064  1.0000
  O   O11       1.0  0.6846886710698713  0.8489400430666407  0.6444084638225789  1.0000
  O   O12       1.0  0.1846923191860839  0.15105362927391752  0.3555957744114338  1.0000
  O   O13       1.0  0.02451085314556421  0.8841047876766767  0.247430253781701  1.0000
  O   O14       1.0  0.5245088873522549  0.11589668263766839  0.7525689361046091  1.0000
  O   O15       1.0  0.4366131662346434  0.8842232617009247  0.3866506774594711  1.0000
  O   O16       1.0  0.936612135570819  0.11577918163350627  0.6133503772745855  1.0000
