data_image0
_chemical_formula_structural       Al4H36C58N8O24
_chemical_formula_sum              "Al4 H36 C58 N8 O24"
_cell_length_a       6.670743005884183
_cell_length_b       22.355012911739486
_cell_length_c       25.590610190965112
_cell_angle_alpha    90.55256065395245
_cell_angle_beta     90.00829379238711
_cell_angle_gamma    89.91093715933239

_space_group_name_H-M_alt    "P 1"
_space_group_IT_number       1

loop_
  _space_group_symop_operation_xyz
  'x, y, z'

loop_
  _atom_site_type_symbol
  _atom_site_label
  _atom_site_symmetry_multiplicity
  _atom_site_fract_x
  _atom_site_fract_y
  _atom_site_fract_z
  _atom_site_occupancy
  Al  Al1       1.0  0.2828233423589666  0.25476442287516926  0.7482098539008248  1.0000
  Al  Al2       1.0  0.7171810145907926  0.7452344885344787  0.2517898715106952  1.0000
  Al  Al3       1.0  0.7812617791112686  0.2524770513255206  0.7483338370947407  1.0000
  Al  Al4       1.0  0.21873957732339727  0.7475209669685011  0.25166978827355996  1.0000
  H   H1        1.0  0.7215379310449848  0.12522571828214518  0.8635849267438828  1.0000
  H   H2        1.0  0.27850701672542033  0.8747535208640469  0.1364240267431924  1.0000
  H   H3        1.0  0.6381826302720484  0.8580108649062196  0.13213974961715283  1.0000
  H   H4        1.0  0.3618425268259812  0.14201176465724066  0.8678707208066144  1.0000
  H   H5        1.0  0.7697779363745808  0.9966788194821418  0.0016931370894042001  1.0000
  H   H6        1.0  0.23036285130716286  0.0033174296424718  0.9983085461712521  1.0000
  H   H7        1.0  0.377255666445194  0.06932095394700609  0.9412258010043645  1.0000
  H   H8        1.0  0.6228339929914951  0.930698102577331  0.058776837366913505  1.0000
  H   H9        1.0  0.26698062198354927  0.947794889483873  0.0641963336276987  1.0000
  H   H10       1.0  0.7331243274649565  0.05218077675299069  0.9358063500444659  1.0000
  H   H11       1.0  0.7646623872899381  0.09972484677516037  0.6506281166684716  1.0000
  H   H12       1.0  0.23530750719704221  0.9002695893629561  0.3493782094710127  1.0000
  H   H13       1.0  0.7718549130719836  0.02445292470393669  0.5773516656624054  1.0000
  H   H14       1.0  0.22809701321857995  0.9755348045830413  0.4226663263490593  1.0000
  H   H15       1.0  0.6795756125719379  0.8972692250849761  0.47863418760555737  1.0000
  H   H16       1.0  0.320460577266104  0.10266976133701178  0.5213935887804341  1.0000
  H   H17       1.0  0.7811544064266014  0.6231332090787943  0.1306939270484335  1.0000
  H   H18       1.0  0.21884692260260855  0.37687062168542707  0.8693038834473583  1.0000
  H   H19       1.0  0.7682644522842776  0.5491653750525599  0.0557001385137141  1.0000
  H   H20       1.0  0.23173238536421079  0.4508371137968723  0.9442992234482477  1.0000
  H   H21       1.0  0.8738665942849548  0.43682143195815104  0.9466507713117452  1.0000
  H   H22       1.0  0.1261317603610408  0.5631774799641674  0.0533516883664049  1.0000
  H   H23       1.0  0.8606245321241913  0.3632785862936814  0.8709194318864348  1.0000
  H   H24       1.0  0.13937231863913266  0.6367207731559503  0.1290838126413192  1.0000
  H   H25       1.0  0.7808638170985559  0.6223552648322295  0.3708281165946232  1.0000
  H   H26       1.0  0.21913308668452197  0.3776382760344176  0.6291692197083237  1.0000
  H   H27       1.0  0.7685912519575523  0.5494696914862301  0.44508423845296363  1.0000
  H   H28       1.0  0.23140563859860208  0.4505256389769697  0.5549135029817904  1.0000
  H   H29       1.0  0.8733111539332653  0.4356278788635278  0.5515019084741226  1.0000
  H   H30       1.0  0.12669163288715168  0.5643790882529629  0.44850491514360874  1.0000
  H   H31       1.0  0.8608938029236556  0.36310540884029047  0.6263849753683247  1.0000
  H   H32       1.0  0.1391044779034587  0.6369024528986527  0.3736230268980307  1.0000
  H   H33       1.0  0.527287381334922  0.17436083630693838  0.7408679674849311  1.0000
  H   H34       1.0  0.4727125182051353  0.8256447640607687  0.25909234318069  1.0000
  H   H35       1.0  0.0269375420551228  0.3291098995129146  0.7328962031766366  1.0000
  H   H36       1.0  0.9730578339528789  0.670887667462871  0.2671015559297985  1.0000
  C   C1        1.0  0.533079349826032  0.32367366960297517  0.8208266275395317  1.0000
  C   C2        1.0  0.4669249778985716  0.6763297148811487  0.17917235223689693  1.0000
  C   C3        1.0  0.5342024087370446  0.32564131839774996  0.6777342435719262  1.0000
  C   C4        1.0  0.4657914670134105  0.6743558020202228  0.32226546551289204  1.0000
  C   C5        1.0  0.03389788512284749  0.18367445748151573  0.6745332520569391  1.0000
  C   C6        1.0  0.9661095384623335  0.8163128261844008  0.32547185134239953  1.0000
  C   C7        1.0  0.034000525869672095  0.18077147519451128  0.8173995253934265  1.0000
  C   C8        1.0  0.9660112692001517  0.8192332569589663  0.18260806349587708  1.0000
  C   C9        1.0  0.040993703934510996  0.13775980560284748  0.8613315711815375  1.0000
  C   C10       1.0  0.9590496137727768  0.8622391154131462  0.1386751953861989  1.0000
  C   C11       1.0  0.8641419127903517  0.11244541780327916  0.8810313078791197  1.0000
  C   C12       1.0  0.1359239600494462  0.8875436647747249  0.1189749931385933  1.0000
  C   C13       1.0  0.8720778598923784  0.07182588646598019  0.9215939878619608  1.0000
  C   C14       1.0  0.12801503503639822  0.9281587249075967  0.0784087653741778  1.0000
  C   C15       1.0  0.05716190505955859  0.05538812649336927  0.944211041457571  1.0000
  C   C16       1.0  0.9429399132144809  0.9446067752592522  0.0557917960435645  1.0000
  C   C17       1.0  0.2331392049086674  0.08135855505810238  0.9240220960625435  1.0000
  C   C18       1.0  0.766941543555866  0.9186484216943921  0.0759804436818428  1.0000
  C   C19       1.0  0.22584771075490548  0.12183986046818521  0.8832794544189325  1.0000
  C   C20       1.0  0.7742045139774518  0.8781715878716124  0.11672780513607961  1.0000
  C   C21       1.0  0.07584243612352279  0.013326449268859598  0.9869743296596312  1.0000
  C   C22       1.0  0.9242923791235356  0.9866662203602771  0.013027714524405098  1.0000
  C   C23       1.0  0.9643169970242839  0.8568157041571705  0.3724829282495321  1.0000
  C   C24       1.0  0.03567247031782019  0.14316486980497697  0.6275283702430414  1.0000
  C   C25       1.0  0.11451569076193377  0.9003690128272052  0.3779861877099223  1.0000
  C   C26       1.0  0.8854677814288435  0.09961200655070708  0.6220231594008254  1.0000
  C   C27       1.0  0.1107281272010638  0.9420254739011042  0.4184822748027345  1.0000
  C   C28       1.0  0.8892433938217152  0.05794794137899829  0.581532089033324  1.0000
  C   C29       1.0  0.952366437226928  0.9411714209776104  0.45480814600580294  1.0000
  C   C30       1.0  0.047632147356758  0.05878634795097068  0.5452189926230845  1.0000
  C   C31       1.0  0.8010013873036782  0.8980127799769163  0.4501804139269083  1.0000
  C   C32       1.0  0.19902272508810634  0.1019400697631028  0.5498423915094294  1.0000
  C   C33       1.0  0.8106359207445379  0.8562342604692003  0.4098215943679194  1.0000
  C   C34       1.0  0.1893821312294078  0.1437315553421712  0.5901895909720736  1.0000
  C   C35       1.0  0.53923101934231  0.3661746864194199  0.8660713641786087  1.0000
  C   C36       1.0  0.4607703332573437  0.6338251192298044  0.1339283678524836  1.0000
  C   C37       1.0  0.3609932767849386  0.39045507121516443  0.8867289221874373  1.0000
  C   C38       1.0  0.6390080646173856  0.6095469701562591  0.11326887394646688  1.0000
  C   C39       1.0  0.36763145995695357  0.4310555439046622  0.9279902394327595  1.0000
  C   C40       1.0  0.6323668798665806  0.5689464978249815  0.0720091192194161  1.0000
  C   C41       1.0  0.5543637770115025  0.4476957420221196  0.9494026781533051  1.0000
  C   C42       1.0  0.4456330687410386  0.5523049584533126  0.0505986232963167  1.0000
  C   C43       1.0  0.732115810568132  0.4230964938658343  0.9290687617893525  1.0000
  C   C44       1.0  0.26788254354601543  0.5769028647934036  0.0709325291695322  1.0000
  C   C45       1.0  0.7246720015267838  0.3826702241311466  0.8875398444018572  1.0000
  C   C46       1.0  0.2753293468038222  0.6173295825368753  0.1124618414787903  1.0000
  C   C47       1.0  0.5396736338162568  0.3673270417283233  0.6327169146362266  1.0000
  C   C48       1.0  0.4603232344430309  0.6326705271059507  0.36728397091017234  1.0000
  C   C49       1.0  0.36147217052224073  0.3913238098517766  0.6122121728222822  1.0000
  C   C50       1.0  0.6385247081926549  0.6086728632673015  0.3877867516936178  1.0000
  C   C51       1.0  0.36761860266148716  0.4312393031741024  0.5711337725922618  1.0000
  C   C52       1.0  0.6323782791466853  0.5687569225967761  0.4288651483331663  1.0000
  C   C53       1.0  0.5540541694591495  0.44752961060426333  0.549638536477211  1.0000
  C   C54       1.0  0.4459456648551451  0.5524719858394248  0.4503643357943687  1.0000
  C   C55       1.0  0.7317577274685974  0.4227110509410821  0.5694015533902714  1.0000
  C   C56       1.0  0.26824508922089757  0.5772923361672608  0.43060289688421705  1.0000
  C   C57       1.0  0.7246186784618586  0.3829628501620944  0.6107405821441816  1.0000
  C   C58       1.0  0.27538112993045155  0.6170418787377869  0.3892642691102637  1.0000
  N   N1        1.0  0.9297977352605783  0.9811213531223614  0.4975456820497755  1.0000
  N   N2        1.0  0.0702009002012005  0.018828811294348193  0.5024821770808856  1.0000
  N   N3        1.0  0.5805205983751519  0.4886967105982549  0.9912003323408597  1.0000
  N   N4        1.0  0.4194747536283643  0.5113030951561228  0.0088013524170378  1.0000
  N   N5        1.0  0.5801522439857648  0.4879766661759958  0.5081007555849197  1.0000
  N   N6        1.0  0.41984609604765666  0.5120244822835572  0.4919013312756775  1.0000
  N   N7        1.0  0.6568873194369617  0.8087174976228793  0.4100434306573675  1.0000
  N   N8        1.0  0.343135245682724  0.1912478684691336  0.5899618903855597  1.0000
  O   O1        1.0  0.702837704369415  0.3078587957863803  0.6953188132204104  1.0000
  O   O2        1.0  0.29716214797269896  0.6921405633050312  0.3046828687890724  1.0000
  O   O3        1.0  0.3616049106008957  0.3083745093353869  0.8033284425871373  1.0000
  O   O4        1.0  0.6384099023821718  0.6916315583916912  0.1966658714580092  1.0000
  O   O5        1.0  0.20165300373491138  0.19846904785656955  0.7995028631656993  1.0000
  O   O6        1.0  0.7983467730806949  0.801539261458977  0.2005051429718065  1.0000
  O   O7        1.0  0.3631921627140429  0.3114243503803138  0.6962260079848548  1.0000
  O   O8        1.0  0.636800261641639  0.6885678457189144  0.3037674090055162  1.0000
  O   O9        1.0  0.20420111513395506  0.19943158570490732  0.692152516742304  1.0000
  O   O10       1.0  0.7957943079028594  0.8005565912376369  0.3078533731323105  1.0000
  O   O11       1.0  0.7013154189512818  0.30642575613620676  0.8025749152748604  1.0000
  O   O12       1.0  0.29869492973455886  0.6935727106727183  0.19742832459812124  1.0000
  O   O13       1.0  0.5307554577012894  0.2170902156523695  0.7470125763382996  1.0000
  O   O14       1.0  0.4692458987333765  0.7829078026416523  0.2529910490300082  1.0000
  O   O15       1.0  0.8632495774651971  0.19632881273454927  0.6936319599174184  1.0000
  O   O16       1.0  0.1367593022178326  0.8036651805677334  0.3063716345400564  1.0000
  O   O17       1.0  0.8622396213008585  0.19640539295090056  0.8004020458614108  1.0000
  O   O18       1.0  0.1377632026388866  0.8035962059871975  0.19960473467064327  1.0000
  O   O19       1.0  0.0307377665731892  0.28941798045191547  0.7477326772977904  1.0000
  O   O20       1.0  0.9692620987859539  0.7105804823130271  0.2522658713714705  1.0000
  O   O21       1.0  0.4793203398138387  0.8249745188559314  0.4104046709499301  1.0000
  O   O22       1.0  0.71721906274648  0.7565569232421653  0.41227518886315545  1.0000
  O   O23       1.0  0.5207038002360775  0.17498234377352156  0.5895927667564891  1.0000
  O   O24       1.0  0.2828064978632483  0.243407104114702  0.5877355927484659  1.0000
