data_image0
_chemical_formula_structural       Ni6H6C24O18
_chemical_formula_sum              "Ni6 H6 C24 O18"
_cell_length_a       6.743376406126318
_cell_length_b       15.034036087831618
_cell_length_c       15.03454212740649
_cell_angle_alpha    117.80498379870146
_cell_angle_beta     98.61451664717485
_cell_angle_gamma    98.59360490035104

_space_group_name_H-M_alt    "P 1"
_space_group_IT_number       1

loop_
  _space_group_symop_operation_xyz
  'x, y, z'

loop_
  _atom_site_type_symbol
  _atom_site_label
  _atom_site_symmetry_multiplicity
  _atom_site_fract_x
  _atom_site_fract_y
  _atom_site_fract_z
  _atom_site_occupancy
  Ni  Ni1       1.0  0.9727612781798458  0.5915355133916762  0.26757299525237244  1.0000
  Ni  Ni2       1.0  0.3810927226764775  0.676027633649312  0.40838313023019873  1.0000
  Ni  Ni3       1.0  0.7050765908172067  0.7323525643858914  0.3239686529308301  1.0000
  Ni  Ni4       1.0  0.027237968496009943  0.40846395145995723  0.7324265330071141  1.0000
  Ni  Ni5       1.0  0.6189050241294254  0.32397183117703326  0.5916162970997901  1.0000
  Ni  Ni6       1.0  0.29492415572860153  0.26764690049103024  0.6760309762581542  1.0000
  H   H1        1.0  0.1449939660890678  0.019967048846780206  0.46459740106731556  1.0000
  H   H2        1.0  0.12515759845138777  0.44450734158664323  0.9801323263573706  1.0000
  H   H3        1.0  0.6804062360983709  0.5354088017213456  0.5552637204704638  1.0000
  H   H4        1.0  0.8550071689059067  0.9800331928277545  0.5354026165400968  1.0000
  H   H5        1.0  0.8748408706561152  0.5554905697030961  0.01986775530576058  1.0000
  H   H6        1.0  0.3195933990266512  0.4645914399279008  0.4447361962074439  1.0000
  C   C1        1.0  0.13939899395106878  0.8259613192394538  0.39990525023328155  1.0000
  C   C2        1.0  0.3135941081604727  0.5738824471778798  0.17404931787356048  1.0000
  C   C3        1.0  0.7395820563524111  0.6000774423310276  0.42599703001990713  1.0000
  C   C4        1.0  0.8606018065214586  0.17404125280264537  0.6000958316998818  1.0000
  C   C5        1.0  0.6864047497312028  0.4261162408928031  0.825950487087745  1.0000
  C   C6        1.0  0.2604171899884379  0.39992202253728243  0.5740031633598193  1.0000
  C   C7        1.0  0.32933781356018704  0.911986330011139  0.45141991037970536  1.0000
  C   C8        1.0  0.417533693245062  0.5393997389641569  0.08805391844874325  1.0000
  C   C9        1.0  0.8780064112763455  0.5485688876076581  0.4605049865010997  1.0000
  C   C10       1.0  0.6706629326506146  0.0880131348824591  0.5485803839295186  1.0000
  C   C11       1.0  0.582465499169068  0.4605966187389612  0.9119448221868112  1.0000
  C   C12       1.0  0.12199850002185998  0.4514329077293695  0.5394966749223755  1.0000
  C   C13       1.0  0.5347256991262058  0.8988149508919251  0.4715012077361748  1.0000
  C   C14       1.0  0.636037494481393  0.5727467507028693  0.1011942076058787  1.0000
  C   C15       1.0  0.06326885122327745  0.5284572343415164  0.4272709859178291  1.0000
  C   C16       1.0  0.46527693573872136  0.10118529080790489  0.5284989108007351  1.0000
  C   C17       1.0  0.3639590863069913  0.42725038376396907  0.8988053847093411  1.0000
  C   C18       1.0  0.9367311723509104  0.47154378410535  0.5727293191784995  1.0000
  C   C19       1.0  0.30166323894740543  0.011405027714388902  0.4805380106477344  1.0000
  C   C20       1.0  0.29035530431583817  0.46904316712041083  0.9886435397440891  1.0000
  C   C21       1.0  0.8212030200062728  0.519489402131562  0.5308369655535542  1.0000
  C   C22       1.0  0.6983393959175216  0.9885952139854409  0.5194621078891685  1.0000
  C   C23       1.0  0.7096423878933322  0.5309531905740954  0.011355765082207446  1.0000
  C   C24       1.0  0.17879889155202022  0.4805123931548891  0.46916449401092547  1.0000
  O   O1        1.0  0.9640304838095588  0.8423478501828895  0.37811986911089684  1.0000
  O   O2        1.0  0.12186774227642165  0.5356086313165775  0.15762605744079392  1.0000
  O   O3        1.0  0.5860930788699505  0.6219199572859467  0.4641955625403967  1.0000
  O   O4        1.0  0.035969204237147785  0.15765549868155657  0.621883495671909  1.0000
  O   O5        1.0  0.8781285043245148  0.4643908335011417  0.8423739340799372  1.0000
  O   O6        1.0  0.41390883235333575  0.3780818380171738  0.5358065621443302  1.0000
  O   O7        1.0  0.1539756617711633  0.7335037544976403  0.37862841398440855  1.0000
  O   O8        1.0  0.42046859992382934  0.6452074013367055  0.26648370556303297  1.0000
  O   O9        1.0  0.7753681112513746  0.6212823473100358  0.3547634067457963  1.0000
  O   O10       1.0  0.8460198621931737  0.2664972638733545  0.6213715883234272  1.0000
  O   O11       1.0  0.5795298695186802  0.35479050993636463  0.7335157109798587  1.0000
  O   O12       1.0  0.2246296352195145  0.37871711753297876  0.6452366857044324  1.0000
  O   O13       1.0  0.5840842671519297  0.8087387518178915  0.4502684441759754  1.0000
  O   O14       1.0  0.775561064084741  0.6415491533049931  0.1912720108998087  1.0000
  O   O15       1.0  0.13397404669852617  0.549703122876636  0.358471169744476  1.0000
  O   O16       1.0  0.41591686817805856  0.1912614898399738  0.5497309083111901  1.0000
  O   O17       1.0  0.2244347944020503  0.3584495346984367  0.8087269270822687  1.0000
  O   O18       1.0  0.8660240352998585  0.4502940115487916  0.6415258630192753  1.0000
