data_image0
_chemical_formula_structural       Al4H8C36Cl2O20F6
_chemical_formula_sum              "Al4 H8 C36 Cl2 O20 F6"
_cell_length_a       6.691998250626887
_cell_length_b       16.775530081689723
_cell_length_c       18.548848074877338
_cell_angle_alpha    74.44022131891127
_cell_angle_beta     89.79465927538998
_cell_angle_gamma    89.65174845174364

_space_group_name_H-M_alt    "P 1"
_space_group_IT_number       1

loop_
  _space_group_symop_operation_xyz
  'x, y, z'

loop_
  _atom_site_type_symbol
  _atom_site_label
  _atom_site_symmetry_multiplicity
  _atom_site_fract_x
  _atom_site_fract_y
  _atom_site_fract_z
  _atom_site_occupancy
  Al  Al1       1.0  0.10514484776479088  0.4996465353827589  0.4995481196575895  1.0000
  Al  Al2       1.0  0.6061513485791253  0.5005135429637801  0.4979786175043728  1.0000
  Al  Al3       1.0  0.6276421525831709  0.00018910286674869863  0.9974072098019563  1.0000
  Al  Al4       1.0  0.1277012299599605  0.9988418588954314  0.9989900175691276  1.0000
  H   H1        1.0  0.5951281110945033  0.6396136108851704  0.2620874582162714  1.0000
  H   H2        1.0  0.3361388215787642  0.7157487867379116  0.3289601706758276  1.0000
  H   H3        1.0  0.8443508260916984  0.17068411858404173  0.78910086992218  1.0000
  H   H4        1.0  0.8383085717622337  0.29675359711334437  0.6814162921868033  1.0000
  H   H5        1.0  0.35341009136810436  0.6029468710547972  0.5024553028710345  1.0000
  H   H6        1.0  0.8533618696456884  0.3902247813110051  0.5218529015721955  1.0000
  H   H7        1.0  0.38247987664021105  0.8946563398459088  0.04123345257235668  1.0000
  H   H8        1.0  0.8771273501211637  0.09800928468440867  0.012206265755544607  1.0000
  C   C1        1.0  0.35476340189185157  0.4103722284064375  0.41684120016788734  1.0000
  C   C2        1.0  0.3600825462892914  0.3937457171127362  0.6157958271826021  1.0000
  C   C3        1.0  0.8561836688482741  0.5915073123774943  0.5800776725364402  1.0000
  C   C4        1.0  0.8532564434881492  0.6069573940275247  0.38244359556645696  1.0000
  C   C5        1.0  0.014923014132826007  0.7329881816105652  0.29741034500275304  1.0000
  C   C6        1.0  0.8622749143302214  0.6744658355880944  0.3114058730946994  1.0000
  C   C7        1.0  0.7172559843873428  0.6837049376640746  0.2555833935620343  1.0000
  C   C8        1.0  0.7279157537502742  0.7485628946878717  0.1900462997143962  1.0000
  C   C9        1.0  0.8752872537415824  0.810406128822656  0.1762590832722353  1.0000
  C   C10       1.0  0.0176197370499409  0.799023750875996  0.23327031918443447  1.0000
  C   C11       1.0  0.2002691207530489  0.8364524548366388  0.2598128332135091  1.0000
  C   C12       1.0  0.20695949435227592  0.7565810544441972  0.32902571713197654  1.0000
  C   C13       1.0  0.879642897831346  0.8708675730645437  0.8552620964754427  1.0000
  C   C14       1.0  0.875769287412055  0.8272926356886287  0.8117498540217981  1.0000
  C   C15       1.0  0.8703616406367233  0.7792575432555322  0.7645386297622353  1.0000
  C   C16       1.0  0.8639659921999011  0.7346217485767922  0.7214802083002567  1.0000
  C   C17       1.0  0.8581402205092844  0.6863025787313786  0.6745146238746642  1.0000
  C   C18       1.0  0.8534300950178135  0.642261216282506  0.6313818364428059  1.0000
  C   C19       1.0  0.35801153157677856  0.35943049403231686  0.3655877724860304  1.0000
  C   C20       1.0  0.36253552560172864  0.31561756612307323  0.3222413418875618  1.0000
  C   C21       1.0  0.3667737014148429  0.267581330482173  0.2749640933531339  1.0000
  C   C22       1.0  0.3699876841958342  0.22323071357984492  0.23159199832633706  1.0000
  C   C23       1.0  0.3726155283265058  0.17551424659094284  0.18401856667090752  1.0000
  C   C24       1.0  0.37463127680751995  0.13227822954065965  0.1401628627766556  1.0000
  C   C25       1.0  0.5210151972146875  0.2689990064929759  0.7036080926999659  1.0000
  C   C26       1.0  0.365473199361503  0.32675531738919966  0.6873100141263324  1.0000
  C   C27       1.0  0.21487449698188504  0.31337263681025007  0.7418741871893744  1.0000
  C   C28       1.0  0.21873629486514548  0.24608201888163703  0.8062578495130523  1.0000
  C   C29       1.0  0.3732191466761066  0.18685201820749597  0.8207675356365557  1.0000
  C   C30       1.0  0.5242867542442085  0.20192016572585195  0.7666767894917684  1.0000
  C   C31       1.0  0.7262340525428642  0.17118855805141206  0.7482670275887457  1.0000
  C   C32       1.0  0.7260296379289884  0.25091115008805787  0.6775502180706072  1.0000
  C   C33       1.0  0.37519753131493155  0.11432930363494619  0.8881315543935031  1.0000
  C   C34       1.0  0.37592500784833044  0.08400186794613516  0.08667168905448361  1.0000
  C   C35       1.0  0.8775823984807402  0.8823771951235525  0.10839457676772227  1.0000
  C   C36       1.0  0.8787218539546516  0.9191091549061737  0.9087894617812041  1.0000
  Cl  Cl1       1.0  0.7510670584333712  0.23606190618549044  0.5866262911587654  1.0000
  Cl  Cl2       1.0  0.7314471280277458  0.07320566391422996  0.7292766980460428  1.0000
  O   O1        1.0  0.5296814048672616  0.4207684784586831  0.5897371338136709  1.0000
  O   O2        1.0  0.1838714736089031  0.4331931755258082  0.4344043561590709  1.0000
  O   O3        1.0  0.020196884384233706  0.5854810269324986  0.4143140114759447  1.0000
  O   O4        1.0  0.189938979627172  0.41454025994340765  0.5864412023265331  1.0000
  O   O5        1.0  0.027684820682011897  0.5672926249862938  0.5643718684751208  1.0000
  O   O6        1.0  0.5236701101640762  0.42742024194226497  0.4401016919016527  1.0000
  O   O7        1.0  0.35485184360950933  0.550133318696531  0.49031332698738356  1.0000
  O   O8        1.0  0.6882531571708768  0.5761072852652162  0.5545393542505226  1.0000
  O   O9        1.0  0.681990671264444  0.5787392247632468  0.4053547511396688  1.0000
  O   O10       1.0  0.8558834292778527  0.45040707359219556  0.5086180294923466  1.0000
  O   O11       1.0  0.2054970856370346  0.06572185481431347  0.0652974471646814  1.0000
  O   O12       1.0  0.5465358799594925  0.08819255618815448  0.9132729454787024  1.0000
  O   O13       1.0  0.7079495299809793  0.939082312590976  0.9288310065064068  1.0000
  O   O14       1.0  0.5471483463524011  0.06572314079150486  0.06506985273613711  1.0000
  O   O15       1.0  0.7094418851122201  0.9094543290566504  0.0807054297980444  1.0000
  O   O16       1.0  0.20744956199984438  0.08555077454841609  0.9142009892867621  1.0000
  O   O17       1.0  0.378774773002803  0.9498838156386781  0.007205589428018392  1.0000
  O   O18       1.0  0.049280189094311304  0.9101165085306132  0.08492763099562955  1.0000
  O   O19       1.0  0.04800902099853489  0.9357083114424326  0.9320565811543489  1.0000
  O   O20       1.0  0.8773776075519492  0.04873957193020569  0.9942746407529199  1.0000
  F   F1        1.0  0.5875759884815039  0.7494389499983142  0.1373945849667423  1.0000
  F   F2        1.0  0.1662364361226025  0.9085408914591749  0.2793239964260296  1.0000
  F   F3        1.0  0.366396893587151  0.8488505000104779  0.21447979114712723  1.0000
  F   F4        1.0  0.19592568679783537  0.7719552388614943  0.3990511890774258  1.0000
  F   F5        1.0  0.059110220087987386  0.36662633768422376  0.7355600486770089  1.0000
  F   F6        1.0  0.0661617600391793  0.24199851062711278  0.8551312252248096  1.0000
