data_image0
_chemical_formula_structural       Li2H46C36N6
_chemical_formula_sum              "Li2 H46 C36 N6"
_cell_length_a       8.285373469495473
_cell_length_b       10.14621306998245
_cell_length_c       11.57821235729862
_cell_angle_alpha    114.354112275545
_cell_angle_beta     93.14973537369211
_cell_angle_gamma    107.70934954131235

_space_group_name_H-M_alt    "P 1"
_space_group_IT_number       1

loop_
  _space_group_symop_operation_xyz
  'x, y, z'

loop_
  _atom_site_type_symbol
  _atom_site_label
  _atom_site_symmetry_multiplicity
  _atom_site_fract_x
  _atom_site_fract_y
  _atom_site_fract_z
  _atom_site_occupancy
  Li  Li1       1.0  0.1537764695846349  0.0218458126176841  0.49488754274100444  1.0000
  Li  Li2       1.0  0.8462196412808539  0.978149348437867  0.5051088146924981  1.0000
  H   H1        1.0  0.8499155144368586  0.033842148550803586  0.8777655497177292  1.0000
  H   H2        1.0  0.15008518774155288  0.9661530145896293  0.1222222842065079  1.0000
  H   H3        1.0  0.6385223026528236  0.9583037595961057  0.0038587259074133037  1.0000
  H   H4        1.0  0.3614917711364853  0.04169724560319569  0.9961376279794649  1.0000
  H   H5        1.0  0.3259676082964091  0.5561067869613225  0.6564829938096963  1.0000
  H   H6        1.0  0.6740321184352496  0.4438941800143609  0.3435190356690753  1.0000
  H   H7        1.0  0.5349880509556825  0.6317891563949372  0.5295942455113049  1.0000
  H   H8        1.0  0.465006726104491  0.368202529621989  0.4704025336522122  1.0000
  H   H9        1.0  0.3669379327635056  0.6079015020371514  0.9338695050306356  1.0000
  H   H10       1.0  0.6330659498948777  0.39209484504779357  0.06612920817973836  1.0000
  H   H11       1.0  0.3596121784960501  0.7966418177735047  0.011827255221291381  1.0000
  H   H12       1.0  0.6403877122499962  0.20335336361009124  0.9881743870426547  1.0000
  H   H13       1.0  0.20826596965471814  0.6531179067616504  0.8654030066577931  1.0000
  H   H14       1.0  0.7917457088052801  0.3468830918353872  0.13459414899486424  1.0000
  H   H15       1.0  0.06094323987270661  0.5872012986949001  0.47743207158123363  1.0000
  H   H16       1.0  0.9390706862263372  0.41279276997919817  0.5225686489859598  1.0000
  H   H17       1.0  0.16172157143880378  0.4018358988991507  0.3097259499975706  1.0000
  H   H18       1.0  0.8382969554767641  0.5981674312743408  0.690267910923879  1.0000
  H   H19       1.0  0.12344098473223389  0.6193943908982644  0.06579914679149096  1.0000
  H   H20       1.0  0.8765533904540489  0.3806053980402381  0.9342005901418488  1.0000
  H   H21       1.0  0.016936017619769823  0.8021731130241603  0.23173099873761765  1.0000
  H   H22       1.0  0.9830619983508981  0.19783248322443814  0.7682752752381958  1.0000
  H   H23       1.0  0.2164639225203757  0.40512387053848886  0.9875049339605014  1.0000
  H   H24       1.0  0.7835325113723641  0.5948747726792046  0.012497890104988503  1.0000
  H   H25       1.0  0.342961046907341  0.39643285609444223  0.11203487217813547  1.0000
  H   H26       1.0  0.657033116247149  0.6035657874707636  0.8879730786391988  1.0000
  H   H27       1.0  0.12991301870878397  0.2630643329365654  0.04208383160046476  1.0000
  H   H28       1.0  0.87007872419818  0.7369343026364276  0.957924055985437  1.0000
  H   H29       1.0  0.8290144587775358  0.6540131013899495  0.5207103020151891  1.0000
  H   H30       1.0  0.1709768365111231  0.3459820450711176  0.4792867939526602  1.0000
  H   H31       1.0  0.5768710915166082  0.17676280842366768  0.5506309566997913  1.0000
  H   H32       1.0  0.4231274749277175  0.8232381573358223  0.4493727711576907  1.0000
  H   H33       1.0  0.6257166167735235  0.07477207916918617  0.6320850067703816  1.0000
  H   H34       1.0  0.3742829219350483  0.9252312079158924  0.36792132325780347  1.0000
  H   H35       1.0  0.2954748176249353  0.8579846660995541  0.6128068434645754  1.0000
  H   H36       1.0  0.7045218147039946  0.14201745233052068  0.3871981222468293  1.0000
  H   H37       1.0  0.2078894495739688  0.9854702758324332  0.7237117550432471  1.0000
  H   H38       1.0  0.7921078569101709  0.014530683151036793  0.2762902112040848  1.0000
  H   H39       1.0  0.43035272691976456  0.007575944055815898  0.7639408833522694  1.0000
  H   H40       1.0  0.5696421593168564  0.992425006935441  0.23606101966363  1.0000
  H   H41       1.0  0.29381164535111987  0.2524211990860292  0.7631709964479398  1.0000
  H   H42       1.0  0.7061819560071  0.7475797437392582  0.23682827996059772  1.0000
  H   H43       1.0  0.44506157991283146  0.3233122449987888  0.6799708721893934  1.0000
  H   H44       1.0  0.5549334694286684  0.6766863844931166  0.3200258652798809  1.0000
  H   H45       1.0  0.5176845578739773  0.2804689667668896  0.8039211808893683  1.0000
  H   H46       1.0  0.4823123612413907  0.7195343012063444  0.196078165929677  1.0000
  C   C1        1.0  0.7119113576173604  0.8355963767917627  0.6956293748535103  1.0000
  C   C2        1.0  0.28807623163588403  0.16440221760385745  0.3043602529437521  1.0000
  C   C3        1.0  0.7349664026811381  0.9285065186714473  0.8295554499360449  1.0000
  C   C4        1.0  0.2650293697424928  0.07149441824650887  0.1704352397317948  1.0000
  C   C5        1.0  0.6157003319811025  0.8857656663328723  0.8996538000538548  1.0000
  C   C6        1.0  0.3842990313904906  0.11424107511526667  0.10034169666203499  1.0000
  C   C7        1.0  0.46758029102592497  0.7503979664143398  0.8397885063920754  1.0000
  C   C8        1.0  0.5324270579893663  0.2496041782510189  0.16021068888028364  1.0000
  C   C9        1.0  0.44215743879998115  0.6602916349372662  0.7057056046253931  1.0000
  C   C10       1.0  0.5578407651937738  0.3397116412019371  0.2942963688010066  1.0000
  C   C11       1.0  0.5607257465868399  0.7014814438540922  0.6344749541812575  1.0000
  C   C12       1.0  0.43926665915273577  0.2985137010432694  0.3655187134134579  1.0000
  C   C13       1.0  0.3437899651851382  0.7003153661508249  0.9166533264037326  1.0000
  C   C14       1.0  0.6562182074946391  0.29968562740766197  0.08334805938784477  1.0000
  C   C15       1.0  0.021522292643112464  0.7028171636992011  0.3635385913100179  1.0000
  C   C16       1.0  0.9784851809632401  0.2971849879159335  0.6364649289484134  1.0000
  C   C17       1.0  0.06676882972198667  0.5899216534375068  0.3845571838347296  1.0000
  C   C18       1.0  0.9332415502640073  0.41008166683263875  0.6154477007404823  1.0000
  C   C19       1.0  0.1264026476048627  0.48747781579355365  0.29086047163663403  1.0000
  C   C20       1.0  0.8736114116793345  0.5125289833375603  0.7091414594483608  1.0000
  C   C21       1.0  0.14649856230843733  0.4943179104684601  0.17361612985946798  1.0000
  C   C22       1.0  0.8535029345242435  0.5056876894287324  0.8263850489802138  1.0000
  C   C23       1.0  0.10631171507984752  0.6096286522143186  0.154916970985873  1.0000
  C   C24       1.0  0.8936863403141402  0.39037115149241686  0.8450845907890425  1.0000
  C   C25       1.0  0.04442541262339  0.7112560221324029  0.24688583381259108  1.0000
  C   C26       1.0  0.9555827206330677  0.2887507639679469  0.7531202641798841  1.0000
  C   C27       1.0  0.21241741764736588  0.3846574415076559  0.07341586665391724  1.0000
  C   C28       1.0  0.7875784553586128  0.6153400368773772  0.9265830613345757  1.0000
  C   C29       1.0  0.8752217202034059  0.7754036710042483  0.5354519468488022  1.0000
  C   C30       1.0  0.12477686074603159  0.22459150082342919  0.4645462038105705  1.0000
  C   C31       1.0  0.5236178856050558  0.072505415306459  0.5647682790438182  1.0000
  C   C32       1.0  0.4763811918896079  0.927496712505778  0.43523761489623053  1.0000
  C   C33       1.0  0.32461825781103226  0.9781657775192371  0.6848134225457869  1.0000
  C   C34       1.0  0.6753778385493447  0.021835177468126687  0.31518851208583243  1.0000
  C   C35       1.0  0.4096870431180903  0.2435879749060844  0.7236958067794319  1.0000
  C   C36       1.0  0.5903077683638926  0.75641297191531  0.27630350124483266  1.0000
  N   N1        1.0  0.9673787602511369  0.8129055157014377  0.4552324145587078  1.0000
  N   N2        1.0  0.03262425931945499  0.18709777503224248  0.5447688203333456  1.0000
  N   N3        1.0  0.8344583616822944  0.8819062305254731  0.6287150759638678  1.0000
  N   N4        1.0  0.1655319364239034  0.11808659322004189  0.3712785528360669  1.0000
  N   N5        1.0  0.37193358066222965  0.08349372888670807  0.6244725391561018  1.0000
  N   N6        1.0  0.6280640135178501  0.9165049155471862  0.3755285865306702  1.0000
