data_image0
_chemical_formula_structural       H44Pb2C52N4O8
_chemical_formula_sum              "H44 Pb2 C52 N4 O8"
_cell_length_a       5.301500923
_cell_length_b       10.63862691376592
_cell_length_c       20.219
_cell_angle_alpha    103.00853241461614
_cell_angle_beta     90.0
_cell_angle_gamma    104.42820779908088

_space_group_name_H-M_alt    "P 1"
_space_group_IT_number       1

loop_
  _space_group_symop_operation_xyz
  'x, y, z'

loop_
  _atom_site_type_symbol
  _atom_site_label
  _atom_site_symmetry_multiplicity
  _atom_site_fract_x
  _atom_site_fract_y
  _atom_site_fract_z
  _atom_site_occupancy
  H   H1        1.0  0.3346823541869384  0.30399175586428834  0.235292215918335  1.0000
  H   H2        1.0  0.030546410301099086  0.6958116904157875  0.2646847023296104  1.0000
  H   H3        1.0  0.6653354351987986  0.6960322288365717  0.764700436364123  1.0000
  H   H4        1.0  0.969573017840524  0.3042043109938177  0.7353173906917903  1.0000
  H   H5        1.0  0.7777584341993489  0.2963367774669123  0.0566186176227745  1.0000
  H   H6        1.0  0.48250117230181644  0.703427750268318  0.44315635202315207  1.0000
  H   H7        1.0  0.22238472499711295  0.7037191403989453  0.9433985893259447  1.0000
  H   H8        1.0  0.51745882378453  0.2965523263306693  0.5568662153220529  1.0000
  H   H9        1.0  0.419882390352825  0.1135233994868372  0.9904617475680695  1.0000
  H   H10       1.0  0.30806923184094614  0.8864556792007363  0.5094143046323509  1.0000
  H   H11       1.0  0.5802642615878356  0.8865395037588613  0.009543427528782903  1.0000
  H   H12       1.0  0.6918640768571577  0.1135313827780919  0.4905922741865609  1.0000
  H   H13       1.0  0.015971784715532105  0.0265145060641672  0.0490036430523233  1.0000
  H   H14       1.0  0.9913992391750102  0.9737030734495065  0.451006497939197  1.0000
  H   H15       1.0  0.9841566247683248  0.9735194577507541  0.9509773319525293  1.0000
  H   H16       1.0  0.008566135913817198  0.026283988529321796  0.5489921675308835  1.0000
  H   H17       1.0  0.8112558049041851  0.5206532908330885  0.17324228323379032  1.0000
  H   H18       1.0  0.2910185262170515  0.479254936144649  0.3266293340498905  1.0000
  H   H19       1.0  0.18874200280934875  0.4793986353871489  0.8267986855800232  1.0000
  H   H20       1.0  0.7090187458774296  0.5207401091254269  0.6733791794690235  1.0000
  H   H21       1.0  0.9869430469346698  0.4028907636924828  0.1809297271024803  1.0000
  H   H22       1.0  0.5843736812114031  0.5969226617016616  0.3188015754930618  1.0000
  H   H23       1.0  0.013115400816097654  0.5971541771479068  0.8190738151330237  1.0000
  H   H24       1.0  0.41568644517350617  0.40308036685966897  0.6812153023217746  1.0000
  H   H25       1.0  0.770822826268308  0.4460584153042078  0.24406411454309307  1.0000
  H   H26       1.0  0.32472947459694984  0.5537340539504001  0.2557745037475527  1.0000
  H   H27       1.0  0.22923397754920674  0.5539266508518068  0.7559590437592334  1.0000
  H   H28       1.0  0.6753597734122324  0.4462819474592052  0.7442369863755758  1.0000
  H   H29       1.0  0.8395224932304544  0.3322136883445523  0.336365634822215  1.0000
  H   H30       1.0  0.5078452524196422  0.66833320193318  0.1634930943832131  1.0000
  H   H31       1.0  0.16039134432586621  0.6677683840772417  0.6636274938477271  1.0000
  H   H32       1.0  0.49209526095796013  0.3316758140965844  0.8364869041732276  1.0000
  H   H33       1.0  0.8806211944651708  0.5230452844738736  0.4356058096524862  1.0000
  H   H34       1.0  0.35811771296418027  0.4773409420674497  0.0643169808962938  1.0000
  H   H35       1.0  0.11928576719830632  0.47692680883385913  0.5643925666991336  1.0000
  H   H36       1.0  0.6417914031629692  0.5226580948482535  0.9356806299493742  1.0000
  H   H37       1.0  0.0995864332967358  0.3305531637645487  0.4815797165542932  1.0000
  H   H38       1.0  0.7688643279457423  0.6693490757447477  0.018322844976161382  1.0000
  H   H39       1.0  0.9003597129753231  0.6693690339728774  0.5184305552609558  1.0000
  H   H40       1.0  0.2310478425433971  0.3306409799682939  0.9816647996292502  1.0000
  H   H41       1.0  0.08811831554055521  0.154640343158718  0.3787892276931117  1.0000
  H   H42       1.0  0.9334585809551187  0.8455253449618283  0.12101446070205671  1.0000
  H   H43       1.0  0.9118224401620694  0.8453087981866716  0.621203462749925  1.0000
  H   H44       1.0  0.06647111383627902  0.1544846689793431  0.8789666452144119  1.0000
  Pb  Pb1       1.0  0.4588251221627928  0.9999661058392987  0.2500733386012612  1.0000
  Pb  Pb2       1.0  0.5412129286674912  2.29519623431e-05  0.7499107257226144  1.0000
  C   C1        1.0  0.1525719946553679  0.1609521328032741  0.14477196328967074  1.0000
  C   C2        1.0  0.9923743440445492  0.8390638686063383  0.3552227109671975  1.0000
  C   C3        1.0  0.8475046581048816  0.8390688581633654  0.8552124210696802  1.0000
  C   C4        1.0  0.007663147241025615  0.1609391599549923  0.6447788347342822  1.0000
  C   C5        1.0  0.3551803346234479  0.264901570258516  0.1814972797329233  1.0000
  C   C6        1.0  0.09066607602373715  0.7350016671621872  0.3184518909133303  1.0000
  C   C7        1.0  0.6448611973840812  0.7351284019107851  0.8185044896312091  1.0000
  C   C8        1.0  0.90940248372565  0.2649993655763296  0.6815513967425062  1.0000
  C   C9        1.0  0.5805430473799121  0.3161393314126144  0.1502078877731066  1.0000
  C   C10       1.0  0.2649973419846888  0.683732970754491  0.3496485937646483  1.0000
  C   C11       1.0  0.4194832849658426  0.6838866491110522  0.8498057734328767  1.0000
  C   C12       1.0  0.735037374711247  0.31627205362964617  0.6503561558254916  1.0000
  C   C13       1.0  0.6000713359940093  0.2600916372803681  0.0811422466530587  1.0000
  C   C14       1.0  0.3410414888193145  0.7397796669753305  0.4186893874781745  1.0000
  C   C15       1.0  0.399996214261499  0.7399413286231464  0.9188697689713834  1.0000
  C   C16       1.0  0.658932758016185  0.2602213657631864  0.5813252756166066  1.0000
  C   C17       1.0  0.3997031983919399  0.1566501367309101  0.043963711139589606  1.0000
  C   C18       1.0  0.2445106525594626  0.8433229544882294  0.45592597485703124  1.0000
  C   C19       1.0  0.6004058495456804  0.8433828291726044  0.9560329723714959  1.0000
  C   C20       1.0  0.755467756160499  0.1566750845160669  0.5440863553262645  1.0000
  C   C21       1.0  0.1758220359571396  0.107349321616347  0.0758905447037534  1.0000
  C   C22       1.0  0.06991705414485247  0.8927315440346674  0.4240677939928474  1.0000
  C   C23       1.0  0.8242835192362747  0.8926766589073196  0.9240934414441142  1.0000
  C   C24       1.0  0.9300649079005653  0.1072585116783813  0.575939633984639  1.0000
  C   C25       1.0  0.9124210710711937  0.10611590311821568  0.1788301715623817  1.0000
  C   C26       1.0  0.8067956397809583  0.89395099177311  0.32128230650936723  1.0000
  C   C27       1.0  0.0876085954089235  0.8938941108229486  0.8211494506011833  1.0000
  C   C28       1.0  0.1932197759499985  0.10603806602853179  0.6787146170063494  1.0000
  C   C29       1.0  0.7982697151707046  0.4271809252321006  0.18935091459450604  1.0000
  C   C30       1.0  0.37139926005021107  0.572660441681407  0.3104564012533118  1.0000
  C   C31       1.0  0.20175501068913354  0.5728380699117253  0.8106629084401078  1.0000
  C   C32       1.0  0.6286614143124538  0.42736254510803917  0.6895514649510801  1.0000
  C   C33       1.0  0.6793150368477187  0.3372461555662909  0.3699756709125452  1.0000
  C   C34       1.0  0.34245500477366875  0.6631700083172234  0.1298932935999488  1.0000
  C   C35       1.0  0.32060651591852013  0.662724939830035  0.630025060169153  1.0000
  C   C36       1.0  0.657472085604887  0.3368310244212864  0.8700946619425308  1.0000
  C   C37       1.0  0.7009336109579323  0.4433430983677908  0.42629852734877005  1.0000
  C   C38       1.0  0.25799366539490626  0.5569632952610348  0.0736063999529009  1.0000
  C   C39       1.0  0.2989736910591532  0.5566070408890056  0.5737007108816173  1.0000
  C   C40       1.0  0.7419327068290897  0.4430287562748205  0.9263903835527926  1.0000
  C   C41       1.0  0.492734350253791  0.4454826204228013  0.4692899484585382  1.0000
  C   C42       1.0  0.04731318882072345  0.5545742953544632  0.030670004902589195  1.0000
  C   C43       1.0  0.5071945889357039  0.5544655230111815  0.5307135046477214  1.0000
  C   C44       1.0  0.9525914366353093  0.4454157603585783  0.9693250584673477  1.0000
  C   C45       1.0  0.2698088686442546  0.3382091400733245  0.4511847352817425  1.0000
  C   C46       1.0  0.931644536094588  0.6618567569065945  0.04870456707843121  1.0000
  C   C47       1.0  0.7301330551620853  0.6617310200694106  0.5488251910576452  1.0000
  C   C48       1.0  0.0682705185797445  0.33813529462926073  0.9512867759999395  1.0000
  C   C49       1.0  0.2631941307103816  0.23704387544152888  0.39338653183313  1.0000
  C   C50       1.0  0.026219568042634547  0.7631467604641671  0.10644978640576849  1.0000
  C   C51       1.0  0.7367469047645941  0.7628982805240128  0.6066102771129493  1.0000
  C   C52       1.0  0.9737170632228569  0.23685826391997009  0.8935416094082242  1.0000
  N   N1        1.0  0.4647938924708016  0.2353354511140253  0.3532094119135039  1.0000
  N   N2        1.0  0.22970236612923156  0.7650308171991753  0.14662446255395173  1.0000
  N   N3        1.0  0.5351465834594649  0.7646206756112051  0.6467875679596204  1.0000
  N   N4        1.0  0.7702291053248872  0.2349752050963687  0.8533601272712374  1.0000
  O   O1        1.0  0.7340486338668272  0.0098723375420704  0.1442688275841917  1.0000
  O   O2        1.0  0.7248137364536121  0.9901686116526988  0.3559192164145273  1.0000
  O   O3        1.0  0.2659970715921247  0.9901207119051917  0.855709279909455  1.0000
  O   O4        1.0  0.27519086069114  0.0098214440603499  0.6440793090455301  1.0000
  O   O5        1.0  0.8964705404827598  0.1567189926179466  0.2420964026751093  1.0000
  O   O6        1.0  0.7398798388843418  0.8433758437927565  0.25802284684664306  1.0000
  O   O7        1.0  0.10350336599913128  0.8433039941715065  0.7578837668083693  1.0000
  O   O8        1.0  0.26019470842652487  0.1566371638826283  0.741968505330135  1.0000
