data_image0
_chemical_formula_structural       Cd2H40C44S2N8O14
_chemical_formula_sum              "Cd2 H40 C44 S2 N8 O14"
_cell_length_a       10.670978065982633
_cell_length_b       10.592969221216206
_cell_length_c       11.672810726580334
_cell_angle_alpha    78.47830997129279
_cell_angle_beta     72.89934989826128
_cell_angle_gamma    82.05914593810172

_space_group_name_H-M_alt    "P 1"
_space_group_IT_number       1

loop_
  _space_group_symop_operation_xyz
  'x, y, z'

loop_
  _atom_site_type_symbol
  _atom_site_label
  _atom_site_symmetry_multiplicity
  _atom_site_fract_x
  _atom_site_fract_y
  _atom_site_fract_z
  _atom_site_occupancy
  Cd  Cd1       1.0  0.27654483646361433  0.23915114544945482  0.7304235371747296  1.0000
  Cd  Cd2       1.0  0.7234329714586493  0.7608570862401365  0.26959109894704625  1.0000
  H   H1        1.0  0.43793020010348027  0.2771738891020518  0.5022127470297378  1.0000
  H   H2        1.0  0.5620757646896452  0.7228114983957283  0.49781981909050904  1.0000
  H   H3        1.0  0.3393820050902648  0.20605922883839156  0.46258492587644906  1.0000
  H   H4        1.0  0.6606138217683863  0.7939576050275079  0.5374272982890747  1.0000
  H   H5        1.0  0.09315361196244962  0.04111932664892491  0.901735037961821  1.0000
  H   H6        1.0  0.9068392182934913  0.9588828205149227  0.09827832729085634  1.0000
  H   H7        1.0  0.4422650873002284  0.9665972085807935  0.6442289635206251  1.0000
  H   H8        1.0  0.5577316792018294  0.0334245708023531  0.3557739889678899  1.0000
  H   H9        1.0  0.46106122317133474  0.7341300446876388  0.7405861983669982  1.0000
  H   H10       1.0  0.5389274326976761  0.2658850404452551  0.25940932686256  1.0000
  H   H11       1.0  0.0992390271195021  0.8126774481271256  0.014453279455764762  1.0000
  H   H12       1.0  0.9007433800934875  0.18732148027265796  0.9855574862966422  1.0000
  H   H13       1.0  0.29522238815224  0.3945944738130081  0.06233792012930911  1.0000
  H   H14       1.0  0.70477974006171  0.60540414310762  0.9376327551299967  1.0000
  H   H15       1.0  0.3755576602845353  0.43642300935783157  0.16200761922648607  1.0000
  H   H16       1.0  0.6244417249909874  0.5635778898501653  0.8379846540440212  1.0000
  H   H17       1.0  0.491767209536647  0.6422121453444802  0.08862078499971911  1.0000
  H   H18       1.0  0.5082415863219937  0.35779091916317185  0.911345353574767  1.0000
  H   H19       1.0  0.48306424393333464  0.7360237984777526  0.9470048800692864  1.0000
  H   H20       1.0  0.5169431167059955  0.2639789727064183  0.05297718178819371  1.0000
  H   H21       1.0  0.35991247792273373  0.0331271913452866  0.165514343180412  1.0000
  H   H22       1.0  0.6400961472918213  0.9668791455857498  0.8344828242864114  1.0000
  H   H23       1.0  0.013430400279631301  0.30555121171174454  0.1951130843781783  1.0000
  H   H24       1.0  0.9865524537406358  0.6944516473324072  0.8049068699658123  1.0000
  H   H25       1.0  0.06577135778507429  0.3449618859133565  0.9703694095194068  1.0000
  H   H26       1.0  0.9342113608207614  0.6550272582038446  0.029651583337837847  1.0000
  H   H27       1.0  0.3984366197929674  0.0866677539341225  0.9380569511566395  1.0000
  H   H28       1.0  0.601552124362975  0.9133305506506062  0.06193863766987563  1.0000
  H   H29       1.0  0.9084344297276985  0.5404639555169481  0.5706786619816809  1.0000
  H   H30       1.0  0.0915641787794428  0.4595267724106691  0.4292639668467261  1.0000
  H   H31       1.0  0.6703876849630249  0.5210817219254693  0.5525162133886143  1.0000
  H   H32       1.0  0.32962738762232396  0.4788628642401351  0.4474292389497379  1.0000
  H   H33       1.0  0.9963201748796779  0.0353352510552796  0.2874464807242775  1.0000
  H   H34       1.0  0.0037137856809579053  0.9646479648517072  0.7125659459242045  1.0000
  H   H35       1.0  0.874247491790456  0.10099588024966977  0.40657828770111587  1.0000
  H   H36       1.0  0.12579333747211047  0.8989895908919084  0.5934275439716075  1.0000
  H   H37       1.0  0.1315329028955432  0.1353019538938653  0.5566373577839486  1.0000
  H   H38       1.0  0.8684848352081218  0.8646879972862039  0.44338249119502393  1.0000
  H   H39       1.0  0.9585081267325748  0.15875759253662386  0.5760008460354842  1.0000
  H   H40       1.0  0.041527234413159406  0.8412328421573819  0.4240145092848736  1.0000
  C   C1        1.0  0.1724552709323106  0.9689826899845144  0.8704754829392132  1.0000
  C   C2        1.0  0.8275336170025442  0.03102122098011509  0.129535816176613  1.0000
  C   C3        1.0  0.3674728114650919  0.9279255994668528  0.725168223620635  1.0000
  C   C4        1.0  0.6325139652623051  0.07208848728440388  0.2748271677777012  1.0000
  C   C5        1.0  0.37728576108779777  0.7984799531483304  0.7796356790739978  1.0000
  C   C6        1.0  0.6226993601993486  0.2015300696000821  0.2203586035768127  1.0000
  C   C7        1.0  0.2807209639939147  0.7553288278574185  0.8858299960802186  1.0000
  C   C8        1.0  0.7192722423971958  0.24468553682380192  0.11417749897754699  1.0000
  C   C9        1.0  0.17538017142972254  0.8425135527903721  0.9310609095694676  1.0000
  C   C10       1.0  0.8246065654889849  0.15749094636517208  0.06895593240481893  1.0000
  C   C11       1.0  0.2780066189482255  0.6186605322176318  0.9524621913131315  1.0000
  C   C12       1.0  0.721983486129318  0.38134429621128163  0.047539099575964  1.0000
  C   C13       1.0  0.38140974918990617  0.4367065159977344  0.06612211717808952  1.0000
  C   C14       1.0  0.6185880741067677  0.5632900517185035  0.9338665123207691  1.0000
  C   C15       1.0  0.4913121734366826  0.6371127625094815  0.9954994772095777  1.0000
  C   C16       1.0  0.5086886470581433  0.3628884300220108  0.004476872777935666  1.0000
  C   C17       1.0  0.17269078699293774  0.1539067654545647  0.3308607120534717  1.0000
  C   C18       1.0  0.8272934559127235  0.8461271498771125  0.6691447519214223  1.0000
  C   C19       1.0  0.29291200037241794  0.10274464470818148  0.12502912632798063  1.0000
  C   C20       1.0  0.7070737997878428  0.8972581345163348  0.8749901188006677  1.0000
  C   C21       1.0  0.18382194065053176  0.16616827602490497  0.19810941453327766  1.0000
  C   C22       1.0  0.8161628203299358  0.8338512211913596  0.8019091583954961  1.0000
  C   C23       1.0  0.0990310290337888  0.25267267766396634  0.1427668010740959  1.0000
  C   C24       1.0  0.9009666146588629  0.7473453329095108  0.8572472469387338  1.0000
  C   C25       1.0  0.1284591266167467  0.2760491677233291  0.016107495568128606  1.0000
  C   C26       1.0  0.8715357356648639  0.7239503064210736  0.9839086469982024  1.0000
  C   C27       1.0  0.314006505423464  0.1310217448760369  0.9997988234435483  1.0000
  C   C28       1.0  0.6859786728516043  0.8689626938343056  0.00021504499748911082  1.0000
  C   C29       1.0  0.6658454973157149  0.3409100864646177  0.6805743697285109  1.0000
  C   C30       1.0  0.33416828566852536  0.6590720547700997  0.31939944732267384  1.0000
  C   C31       1.0  0.8888446317743827  0.3576951842353608  0.6967601790151009  1.0000
  C   C32       1.0  0.11115083396936142  0.6423154981575011  0.3032124343079517  1.0000
  C   C33       1.0  0.8476195560502475  0.4620316939979077  0.6199887354986302  1.0000
  C   C34       1.0  0.1523821423758136  0.5379645604899821  0.37996889440375275  1.0000
  C   C35       1.0  0.720138919080064  0.45246848945774326  0.6108786017969196  1.0000
  C   C36       1.0  0.27987123312113477  0.5475145239480455  0.3890846990370278  1.0000
  C   C37       1.0  0.018070483405900006  0.31980829227701685  0.7220443737006833  1.0000
  C   C38       1.0  0.9819220383421696  0.6802068647556395  0.27795189592450953  1.0000
  C   C39       1.0  0.5360044278542729  0.29445629416584757  0.6966017649980929  1.0000
  C   C40       1.0  0.46400116731425106  0.7055221577530871  0.30339311866235624  1.0000
  C   C41       1.0  0.9680505423460277  0.04046451568045481  0.38458356852270736  1.0000
  C   C42       1.0  0.031988580418136806  0.9595121868233888  0.6154327246985006  1.0000
  C   C43       1.0  0.04817011401209471  0.09622452390766509  0.5433765940641139  1.0000
  C   C44       1.0  0.9518588966517143  0.9037581300891941  0.45663978800063665  1.0000
  S   S1        1.0  0.7709664659651735  0.24824239272387424  0.7574888084240786  1.0000
  S   S2        1.0  0.2290379201201205  0.7517548803762538  0.24250661631938905  1.0000
  N   N1        1.0  0.2672504306940199  0.01197122749346141  0.7704162452934967  1.0000
  N   N2        1.0  0.7327390145289031  0.9880379148382518  0.22959785062445792  1.0000
  N   N3        1.0  0.37842559710794876  0.5697258819922125  0.0021300332277363375  1.0000
  N   N4        1.0  0.6215740203786169  0.4302727357003846  0.9978593367438011  1.0000
  N   N5        1.0  0.2345599875210098  0.21730098835880093  0.9459472078696436  1.0000
  N   N6        1.0  0.7654257197732834  0.7826919964678325  0.05406343385892836  1.0000
  N   N7        1.0  0.06914147440812708  0.09856571835130272  0.41365817126091303  1.0000
  N   N8        1.0  0.9308837887716734  0.9014290104611291  0.5863602846602873  1.0000
  O   O1        1.0  0.1822027234453216  0.5582695645650517  0.9627486799621111  1.0000
  O   O2        1.0  0.8177842145306259  0.44173274223805936  0.03726610372123671  1.0000
  O   O3        1.0  0.2608301249626166  0.19922066269047892  0.35727620963668033  1.0000
  O   O4        1.0  0.7391815053643358  0.8008011450484247  0.6427178883603235  1.0000
  O   O5        1.0  0.11572905440915093  0.3863417009816957  0.6646245304427796  1.0000
  O   O6        1.0  0.8842654314322472  0.6136734028378683  0.3353712663721853  1.0000
  O   O7        1.0  0.0270413118452382  0.21541077087528046  0.7968348620036709  1.0000
  O   O8        1.0  0.9729425549252539  0.784610926939031  0.20317647216612766  1.0000
  O   O9        1.0  0.4504898234982804  0.3727786047971478  0.6546861403222124  1.0000
  O   O10       1.0  0.5495147131815514  0.6272017094288741  0.3453076580021205  1.0000
  O   O11       1.0  0.5150019185708173  0.18026222756601132  0.7531360960074595  1.0000
  O   O12       1.0  0.48500083457312854  0.8197212156096184  0.24687798054834084  1.0000
  O   O13       1.0  0.39164452362700797  0.199034954272399  0.5216625183801042  1.0000
  O   O14       1.0  0.6083448088255993  0.8009595998635747  0.478353699425739  1.0000
