data_image0
_chemical_formula_structural       Ag2H30C36S4Br4N4O8
_chemical_formula_sum              "Ag2 H30 C36 S4 Br4 N4 O8"
_cell_length_a       7.685787942387639
_cell_length_b       11.446446113887419
_cell_length_c       12.26678490350197
_cell_angle_alpha    84.39370339528237
_cell_angle_beta     80.06440034972937
_cell_angle_gamma    72.75922137753699

_space_group_name_H-M_alt    "P 1"
_space_group_IT_number       1

loop_
  _space_group_symop_operation_xyz
  'x, y, z'

loop_
  _atom_site_type_symbol
  _atom_site_label
  _atom_site_symmetry_multiplicity
  _atom_site_fract_x
  _atom_site_fract_y
  _atom_site_fract_z
  _atom_site_occupancy
  Ag  Ag1       1.0  0.2197447630359334  0.5981183851377593  0.41905670070087825  1.0000
  Ag  Ag2       1.0  0.7802391248169301  0.4018816971151578  0.5809480907906277  1.0000
  H   H1        1.0  0.02238413434739776  0.5809695764223333  0.21920001247706014  1.0000
  H   H2        1.0  0.9776240822120813  0.41903233990364425  0.7808034986741818  1.0000
  H   H3        1.0  0.10290189459970385  0.6465315621223764  0.020850704764136228  1.0000
  H   H4        1.0  0.8971062301795669  0.3534767906457785  0.9791537600345493  1.0000
  H   H5        1.0  0.4578091971560168  0.2809948077583754  0.9598418841912634  1.0000
  H   H6        1.0  0.5421753596915266  0.7190096326010574  0.04015013742863261  1.0000
  H   H7        1.0  0.3786738208901569  0.2174002780671883  0.15747593323842315  1.0000
  H   H8        1.0  0.6213198379990602  0.78260140671761  0.8425153667896553  1.0000
  H   H9        1.0  0.6371860001590549  0.05685050056613509  0.4913277971303032  1.0000
  H   H10       1.0  0.36281628296591606  0.9431558389102505  0.5086669353562456  1.0000
  H   H11       1.0  0.5964388033241262  0.9481251182704469  0.675023080484884  1.0000
  H   H12       1.0  0.40356807420588586  0.051876596155835786  0.3249691871123943  1.0000
  H   H13       1.0  0.22792470721994107  0.28431719318603393  0.8085753389824505  1.0000
  H   H14       1.0  0.7720777719949222  0.7156764186144073  0.19142562255741075  1.0000
  H   H15       1.0  0.2685963300131462  0.39296052088226924  0.6239824554901148  1.0000
  H   H16       1.0  0.7313962663379953  0.6070376924949982  0.3760199330034837  1.0000
  H   H17       1.0  0.9591234626210792  0.8643746504305267  0.47435035988220164  1.0000
  H   H18       1.0  0.04087177795940283  0.13562357468337172  0.5256525475791634  1.0000
  H   H19       1.0  0.863603240276852  0.06943386217542977  0.37370142934741324  1.0000
  H   H20       1.0  0.1363978256696114  0.9305661874592982  0.6263006331734218  1.0000
  H   H21       1.0  0.21160148572631954  0.9073723917434786  0.08142084806150512  1.0000
  H   H22       1.0  0.7884024708701247  0.092624051619822  0.9185845382108868  1.0000
  H   H23       1.0  0.30110247120452976  0.7116543192498738  0.19322311484827995  1.0000
  H   H24       1.0  0.6988988436684734  0.2883421414184823  0.8067833797259852  1.0000
  H   H25       1.0  0.8233875817099158  0.16929101877624217  0.17491994630351132  1.0000
  H   H26       1.0  0.17662258126642186  0.8307062172004789  0.8250781400862268  1.0000
  H   H27       1.0  0.016866935778963896  0.12010984935715638  0.0675609030788067  1.0000
  H   H28       1.0  0.983149302742845  0.8798856366948652  0.9324415840586515  1.0000
  H   H29       1.0  0.03648047907758205  0.19145387883431653  0.18587853563003165  1.0000
  H   H30       1.0  0.9635291545091388  0.8085416432198969  0.8141263154447033  1.0000
  C   C1        1.0  0.1949914273297964  0.39588895619607456  0.19916273966642  1.0000
  C   C2        1.0  0.8050058175159834  0.6041137853614982  0.8008362005728458  1.0000
  C   C3        1.0  0.11774638937966847  0.5164954607698672  0.16156151549157022  1.0000
  C   C4        1.0  0.8822595702291237  0.4835054845162714  0.8384390899238953  1.0000
  C   C5        1.0  0.1634555728771475  0.5530547145935854  0.05135604774133639  1.0000
  C   C6        1.0  0.836549749273509  0.4469507644412829  0.9486416987538888  1.0000
  C   C7        1.0  0.2869572855089615  0.4678574370397114  0.9796405523407473  1.0000
  C   C8        1.0  0.7130433806293652  0.5321434266897923  0.020355760599898097  1.0000
  C   C9        1.0  0.3630590920762344  0.34692145584162387  0.01667777251388  1.0000
  C   C10       1.0  0.6369337922556679  0.6530821475495613  0.9833183010502324  1.0000
  C   C11       1.0  0.31722469398960845  0.31077941497036216  0.12729783454315685  1.0000
  C   C12       1.0  0.6827705378202324  0.6892187084976412  0.8726993774744688  1.0000
  C   C13       1.0  0.4559900942330941  0.23043450862967055  0.5471099081076362  1.0000
  C   C14       1.0  0.5440034288099013  0.7695645755336357  0.4528898380115224  1.0000
  C   C15       1.0  0.5489719199052487  0.10650208944800707  0.5611372136626471  1.0000
  C   C16       1.0  0.4510267935514776  0.8935033820265371  0.43886045586539524  1.0000
  C   C17       1.0  0.5255262948987819  0.04514140814018219  0.6641559952744345  1.0000
  C   C18       1.0  0.47448175950257354  0.9548576026266173  0.3358388756366538  1.0000
  C   C19       1.0  0.4076495402227422  0.11105442053212038  0.7507779842993544  1.0000
  C   C20       1.0  0.5923537726508173  0.8889464839757006  0.24922047487869756  1.0000
  C   C21       1.0  0.31575490900655007  0.2352873324464539  0.738218125930544  1.0000
  C   C22       1.0  0.6842463945899198  0.7647089975343134  0.26178104593033424  1.0000
  C   C23       1.0  0.3401848371874364  0.2960392997936481  0.6352115607220341  1.0000
  C   C24       1.0  0.6598088392430486  0.7039625882829411  0.3647911301935379  1.0000
  C   C25       1.0  0.014146818150813173  0.8784402417411239  0.38745708612069063  1.0000
  C   C26       1.0  0.9858523868942516  0.12155797919646716  0.6125453793400907  1.0000
  C   C27       1.0  0.9608930481504672  0.9916281358423473  0.3312655221686073  1.0000
  C   C28       1.0  0.0391095831989432  0.008368265350526401  0.6687375705328407  1.0000
  C   C29       1.0  0.029281794873746506  0.006542070333090099  0.21870208440348196  1.0000
  C   C30       1.0  0.9707213783947497  0.9934561899907092  0.7813023799611897  1.0000
  C   C31       1.0  0.15305085170308538  0.9028975195957254  0.16874504926444445  1.0000
  C   C32       1.0  0.8469557453638574  0.09709889194168399  0.831258415071254  1.0000
  C   C33       1.0  0.20309390536037605  0.7929184536377388  0.2303557186486814  1.0000
  C   C34       1.0  0.7969070147162828  0.20707887920875828  0.7696482808846741  1.0000
  C   C35       1.0  0.9730464283036538  0.1279464774878818  0.15719386671855065  1.0000
  C   C36       1.0  0.02696373968448289  0.872050816572205  0.8428074742104741  1.0000
  S   S1        1.0  0.14451567886557373  0.3557733444286625  0.34245914915417336  1.0000
  S   S2        1.0  0.8554889881749974  0.6442119109310906  0.6575359378686869  1.0000
  S   S3        1.0  0.4917480725745379  0.3074593984697741  0.4157800180710042  1.0000
  S   S4        1.0  0.5082439504316413  0.6925526180533692  0.5842250372158589  1.0000
  Br  Br1       1.0  0.3485612196856707  0.5186205982571365  0.8296122990368033  1.0000
  Br  Br2       1.0  0.651434310128522  0.48138303139153743  0.17038510712989563  1.0000
  Br  Br3       1.0  0.37465959536210397  0.031324616970373094  0.8930881344454279  1.0000
  Br  Br4       1.0  0.6253479221319508  0.968672592748874  0.10690861934172353  1.0000
  N   N1        1.0  0.2904188812647988  0.3986908587613696  0.39936972687266353  1.0000
  N   N2        1.0  0.7095667153549171  0.6013082627962375  0.600632530517295  1.0000
  N   N3        1.0  0.13473343629880216  0.7793389888466745  0.3382425129983205  1.0000
  N   N4        1.0  0.8652674825249068  0.22065832947898648  0.6617606729002077  1.0000
  O   O1        1.0  0.9643164773558085  0.43684955851956886  0.382067323467048  1.0000
  O   O2        1.0  0.03566592810367552  0.5631476340871158  0.6179297887526475  1.0000
  O   O3        1.0  0.16961863765128268  0.22456971080561056  0.35584773395873276  1.0000
  O   O4        1.0  0.8303812439061532  0.7754329553635483  0.6441468434393728  1.0000
  O   O5        1.0  0.6030103999141192  0.3878964636127192  0.4261650301116262  1.0000
  O   O6        1.0  0.3969657677396087  0.6121155986573468  0.5738434204471973  1.0000
  O   O7        1.0  0.5652765104688485  0.2152548673386859  0.3335938739882424  1.0000
  O   O8        1.0  0.4347257751620148  0.7847515011793786  0.6664024857679467  1.0000
