data_image0
_chemical_formula_structural       Zn2H42C58N2Cl12O22
_chemical_formula_sum              "Zn2 H42 C58 N2 Cl12 O22"
_cell_length_a       13.68288664533516
_cell_length_b       18.664040792803693
_cell_length_c       19.55193586099066
_cell_angle_alpha    90.72097595140247
_cell_angle_beta     89.69850846970287
_cell_angle_gamma    98.7381320741697

_space_group_name_H-M_alt    "P 1"
_space_group_IT_number       1

loop_
  _space_group_symop_operation_xyz
  'x, y, z'

loop_
  _atom_site_type_symbol
  _atom_site_label
  _atom_site_symmetry_multiplicity
  _atom_site_fract_x
  _atom_site_fract_y
  _atom_site_fract_z
  _atom_site_occupancy
  Zn  Zn1       1.0  0.4992692832393857  0.41967374678345243  0.4996599641088793  1.0000
  Zn  Zn2       1.0  0.49989600540673257  0.5804539496719413  0.49555030395743666  1.0000
  H   H1        1.0  0.023280815524003583  0.3230742384715626  0.5434035923354017  1.0000
  H   H2        1.0  0.02905047827533738  0.3161875286399365  0.4519016043168236  1.0000
  H   H3        1.0  0.9154176590537728  0.28403938729123007  0.49618598537092146  1.0000
  H   H4        1.0  0.9787493809212222  0.6502167715001903  0.5465628666726374  1.0000
  H   H5        1.0  0.9649444428835424  0.660255100390117  0.4562543476594669  1.0000
  H   H6        1.0  0.08268386708976998  0.6902608390408744  0.4962546862461537  1.0000
  H   H7        1.0  0.506662567508954  0.1578861807649758  0.3274141360369072  1.0000
  H   H8        1.0  0.4260981189316624  0.2255084253074031  0.32690519780480537  1.0000
  H   H9        1.0  0.3794525519720082  0.1333008270827989  0.3031748494204933  1.0000
  H   H10       1.0  0.49127416789590933  0.9104714654474931  0.35842544686358474  1.0000
  H   H11       1.0  0.4883081383001624  0.8263207898876033  0.3117066525149709  1.0000
  H   H12       1.0  0.5893880471477857  0.8986445283432829  0.3001932465531709  1.0000
  H   H13       1.0  0.2646468363747089  0.3127031040277544  0.3828200824092249  1.0000
  H   H14       1.0  0.2659590743064442  0.30021861003361044  0.4734190916768243  1.0000
  H   H15       1.0  0.26761301118251885  0.22325794016478548  0.4159108236244435  1.0000
  H   H16       1.0  0.542049575370683  0.7019760785258741  0.3156635576301738  1.0000
  H   H17       1.0  0.6422910091494316  0.6520530308978678  0.3230544743785444  1.0000
  H   H18       1.0  0.6670260928198457  0.7499022430646534  0.3249037516753219  1.0000
  H   H19       1.0  0.2626392527173635  0.956925868450782  0.41386247242147084  1.0000
  H   H20       1.0  0.3165808879343146  0.8774681615055118  0.3914112193194157  1.0000
  H   H21       1.0  0.2020413694154541  0.8686963478768989  0.4379571839611387  1.0000
  H   H22       1.0  0.6730688758425528  0.12332638254360262  0.39081572588560926  1.0000
  H   H23       1.0  0.7371651761103308  0.047573047923819396  0.406541095163476  1.0000
  H   H24       1.0  0.7914720724974129  0.1374775982394141  0.4320890815927497  1.0000
  H   H25       1.0  0.5348308244765648  0.33097233104341944  0.8525580449331471  1.0000
  H   H26       1.0  0.4330171572633502  0.30898983301132427  0.9110765617761983  1.0000
  H   H27       1.0  0.5226972630719331  0.3878351754149848  0.9259289473110924  1.0000
  H   H28       1.0  0.32700071474232567  0.6888596846350907  0.2048462952562389  1.0000
  H   H29       1.0  0.25505314403260115  0.6032651098041059  0.1823109695399268  1.0000
  H   H30       1.0  0.2908660744702729  0.6688234438709557  0.117361189091703  1.0000
  H   H31       1.0  0.5218865587133762  0.32814057173760597  0.7113390181084114  1.0000
  H   H32       1.0  0.4111457010776576  0.29441315906264265  0.6656981908690439  1.0000
  H   H33       1.0  0.4088775702373723  0.2975278834836885  0.7576309984269187  1.0000
  H   H34       1.0  0.30478022316309245  0.6449203260342031  0.3675066279576029  1.0000
  H   H35       1.0  0.31527077603939796  0.5515787756713522  0.3720503110995494  1.0000
  H   H36       1.0  0.2383453641853706  0.5822168971528543  0.307378869660063  1.0000
  H   H37       1.0  0.4900261366546417  0.0988076851590876  0.6427761909772514  1.0000
  H   H38       1.0  0.5220333493531228  0.18297099010280252  0.6890977726144951  1.0000
  H   H39       1.0  0.6007647433320287  0.11428906634958483  0.6931212293003952  1.0000
  H   H40       1.0  0.5359212194961813  0.8667182186263176  0.6568055875852608  1.0000
  H   H41       1.0  0.46668458479541647  0.7801464436285032  0.678746138489501  1.0000
  H   H42       1.0  0.4195602254173565  0.8620625707873304  0.7011738042723932  1.0000
  C   C1        1.0  0.4706576563636417  0.4998193535431881  0.3668592414166412  1.0000
  C   C2        1.0  0.5123390742753031  0.5085578413527616  0.6281380812529846  1.0000
  C   C3        1.0  0.4641117618098817  0.4515083826023343  0.7417914546936116  1.0000
  C   C4        1.0  0.4217139703610968  0.5551325227635859  0.25649963815692434  1.0000
  C   C5        1.0  0.509479153932567  0.512512135932056  0.7054925276394497  1.0000
  C   C6        1.0  0.45810664872450957  0.49782356662186084  0.28984713731292544  1.0000
  C   C7        1.0  0.396252409573485  0.511333845268723  0.956591178910365  1.0000
  C   C8        1.0  0.5642672071550903  0.5245708212294458  0.0392744999822625  1.0000
  C   C9        1.0  0.3864805513553122  0.5053955347503984  0.027963003445925894  1.0000
  C   C10       1.0  0.5740079425433037  0.5238274221386162  0.9677918595336337  1.0000
  C   C11       1.0  0.470164763717598  0.5122713979515794  0.0701504734408473  1.0000
  C   C12       1.0  0.4902083653798854  0.5181281429904487  0.9255706702112789  1.0000
  C   C13       1.0  0.569899932277437  0.2745933984386539  0.5478678429601587  1.0000
  C   C14       1.0  0.43956443362794306  0.7267546781375314  0.5424782925654198  1.0000
  C   C15       1.0  0.5605412938877947  0.19882558810143544  0.5540561186879032  1.0000
  C   C16       1.0  0.44735990063117725  0.8025038357327928  0.5466463882125225  1.0000
  C   C17       1.0  0.503371062836713  0.15476371575284986  0.5053486091632067  1.0000
  C   C18       1.0  0.4965785792301602  0.8437594509081594  0.4935495656366484  1.0000
  C   C19       1.0  0.4517036408773479  0.1885206758884621  0.45639810660198776  1.0000
  C   C20       1.0  0.542598753416847  0.8079983512133778  0.44171982829396933  1.0000
  C   C21       1.0  0.452359050652653  0.26388810801778834  0.4617763623270505  1.0000
  C   C22       1.0  0.5453643967705446  0.733060815904942  0.4482273165885288  1.0000
  C   C23       1.0  0.3111671428556875  0.4695971026351344  0.5083245549843696  1.0000
  C   C24       1.0  0.6847849452386967  0.5176505374691088  0.4840122890199012  1.0000
  C   C25       1.0  0.4121147617351467  0.026953025805369204  0.5059135988005109  1.0000
  C   C26       1.0  0.5901058192561024  0.9714837694806278  0.49729272475879327  1.0000
  C   C27       1.0  0.4107871845743175  0.9520209164280402  0.4977863892570084  1.0000
  C   C28       1.0  0.5909758947788075  0.0469729743967733  0.4969597973805264  1.0000
  C   C29       1.0  0.5004263882568694  0.9234414080317778  0.4951149795393732  1.0000
  C   C30       1.0  0.5015337799571853  0.0753488732052645  0.5031082836298779  1.0000
  C   C31       1.0  0.790769866844137  0.5233961523596379  0.48213366879580377  1.0000
  C   C32       1.0  0.2049436646963088  0.45684239999413734  0.5055465991208904  1.0000
  C   C33       1.0  0.9812073333127174  0.5205503918497384  0.4863955481607504  1.0000
  C   C34       1.0  0.01454819600768787  0.4542549095795322  0.49157052512680366  1.0000
  C   C35       1.0  0.11526298148744017  0.4513451640576561  0.49899258402493263  1.0000
  C   C36       1.0  0.8802638049698146  0.5245726869631183  0.4835047195281064  1.0000
  C   C37       1.0  0.548181696738446  0.5758965567827232  0.7418712191018669  1.0000
  C   C38       1.0  0.49119816835426616  0.4426614875125026  0.2502056824662162  1.0000
  C   C39       1.0  0.5402419281202383  0.5784560015672466  0.813484439320149  1.0000
  C   C40       1.0  0.4903150587826346  0.44584002203944095  0.17852232741374505  1.0000
  C   C41       1.0  0.49987725437743796  0.5165291695070025  0.8499839764438305  1.0000
  C   C42       1.0  0.4613907545331486  0.5054468506366732  0.1454907869374722  1.0000
  C   C43       1.0  0.46383727262453067  0.4523954876086194  0.8137958717898143  1.0000
  C   C44       1.0  0.4257907574016713  0.5598137963044394  0.18456979881725025  1.0000
  C   C45       1.0  0.9814324433389104  0.3254184219804728  0.49576878852443673  1.0000
  C   C46       1.0  0.01617341217711038  0.6493289057191518  0.49668893226118627  1.0000
  C   C47       1.0  0.4305830025059905  0.16828140819013976  0.33663020167904273  1.0000
  C   C48       1.0  0.5364041780946492  0.8713872328831516  0.3372411638769961  1.0000
  C   C49       1.0  0.2916615607160864  0.2816411530750215  0.4239034002421321  1.0000
  C   C50       1.0  0.6148414157211872  0.7018009813868248  0.3389695686747203  1.0000
  C   C51       1.0  0.27383911964833624  0.902630083623464  0.43045474925511235  1.0000
  C   C52       1.0  0.7219193529169488  0.1002297274749111  0.4263479885180388  1.0000
  C   C53       1.0  0.48190147961089025  0.3532474553463913  0.8864037524276895  1.0000
  C   C54       1.0  0.31365062878109023  0.646350766902529  0.165264571616845  1.0000
  C   C55       1.0  0.4409075281023575  0.32471504519992317  0.7113379773921122  1.0000
  C   C56       1.0  0.30724578270081077  0.5955959260985111  0.3369431004216494  1.0000
  C   C57       1.0  0.5515519225701199  0.1397941215020282  0.660359746946682  1.0000
  C   C58       1.0  0.4612442359233383  0.8357355592437729  0.6628912984313756  1.0000
  N   N1        1.0  0.5134026096411333  0.3059262309146789  0.5046886496150123  1.0000
  N   N2        1.0  0.49070974713812626  0.6934461622924105  0.49619378208521425  1.0000
  Cl  Cl1       1.0  0.30192136861328567  0.05790160681849701  0.5229041061055851  1.0000
  Cl  Cl2       1.0  0.7013683973498174  0.9396790168393209  0.50446265744214  1.0000
  Cl  Cl3       1.0  0.6084806386866859  0.6509221367969148  0.7002807286806599  1.0000
  Cl  Cl4       1.0  0.5409944317302688  0.373152543538218  0.2874351387328105  1.0000
  Cl  Cl5       1.0  0.5767232238833202  0.6588004284750326  0.857342417463279  1.0000
  Cl  Cl6       1.0  0.5244965027285174  0.3757973539408184  0.12990142842712518  1.0000
  Cl  Cl7       1.0  0.29300801118922226  0.5105551514976625  0.9068495944747994  1.0000
  Cl  Cl8       1.0  0.6682619566884681  0.5394138808093628  0.08957504923431259  1.0000
  Cl  Cl9       1.0  0.2704642869056926  0.4878116801072494  0.0641266349020384  1.0000
  Cl  Cl10      1.0  0.6892525993178891  0.5269627741674229  0.9313888849874274  1.0000
  Cl  Cl11      1.0  0.6575108752013179  0.32807844247044227  0.5951766748484175  1.0000
  Cl  Cl12      1.0  0.358923048247391  0.6758434206484483  0.5961179320002826  1.0000
  O   O1        1.0  0.4481376056164805  0.4414762351448617  0.3989025648664039  1.0000
  O   O2        1.0  0.4880265177694553  0.5627835914109058  0.5978934866121364  1.0000
  O   O3        1.0  0.5045603327895164  0.5615777297261104  0.3923097563969691  1.0000
  O   O4        1.0  0.537728144378093  0.45251047668902794  0.6003888829286197  1.0000
  O   O5        1.0  0.35475690101733187  0.416700999472198  0.5258760780422447  1.0000
  O   O6        1.0  0.6486984317534947  0.573973396891688  0.5016273880504727  1.0000
  O   O7        1.0  0.3506536319198545  0.5331414360306255  0.4916621485892279  1.0000
  O   O8        1.0  0.6379817827612371  0.45508203849965406  0.4680392513619864  1.0000
  O   O9        1.0  0.9449751383141063  0.3929565156534665  0.49000691139236346  1.0000
  O   O10       1.0  0.051190907981272495  0.581576667110383  0.4849930076301803  1.0000
  O   O11       1.0  0.400439657568917  0.14798036559396624  0.4056534623132819  1.0000
  O   O12       1.0  0.5947195955023332  0.8446666322253903  0.3893737034172701  1.0000
  O   O13       1.0  0.3982861906453437  0.2994306094566141  0.4204033652523052  1.0000
  O   O14       1.0  0.6055668646115677  0.6963797080878609  0.4124612547871748  1.0000
  O   O15       1.0  0.32296009533389036  0.9056505366443944  0.4956082635919756  1.0000
  O   O16       1.0  0.678335725958476  0.0936544648935183  0.4935896023474697  1.0000
  O   O17       1.0  0.4182677199678508  0.3918808400048519  0.8474655122511052  1.0000
  O   O18       1.0  0.40291131921387086  0.6175913167119164  0.1489508837151661  1.0000
  O   O19       1.0  0.413334293286276  0.3953684453110853  0.7050822338270847  1.0000
  O   O20       1.0  0.3901070174942943  0.6119772358303803  0.2909335188657849  1.0000
  O   O21       1.0  0.6115693442931658  0.16965191962472662  0.6037670434187632  1.0000
  O   O22       1.0  0.4066000781491467  0.8360389528650246  0.599771559969703  1.0000
