data_image0
_chemical_formula_structural       Mo4H28C28N4O16
_chemical_formula_sum              "Mo4 H28 C28 N4 O16"
_cell_length_a       7.401584576504493
_cell_length_b       8.307687165686735
_cell_length_c       14.051407113185807
_cell_angle_alpha    90.00017992754294
_cell_angle_beta     90.00043611813675
_cell_angle_gamma    113.97212181561727

_space_group_name_H-M_alt    "P 1"
_space_group_IT_number       1

loop_
  _space_group_symop_operation_xyz
  'x, y, z'

loop_
  _atom_site_type_symbol
  _atom_site_label
  _atom_site_symmetry_multiplicity
  _atom_site_fract_x
  _atom_site_fract_y
  _atom_site_fract_z
  _atom_site_occupancy
  Mo  Mo1       1.0  0.7633763212814699  0.0960646985613778  0.7476100138320804  1.0000
  Mo  Mo2       1.0  0.23662168144256418  0.40393205411626104  0.2476094953560377  1.0000
  Mo  Mo3       1.0  0.23662604274567664  0.9039334734616132  0.2523888325498547  1.0000
  Mo  Mo4       1.0  0.7633787342895958  0.5960647944772646  0.7523900626932941  1.0000
  H   H1        1.0  0.08281890597815081  0.028116689420315304  0.6068483118745293  1.0000
  H   H2        1.0  0.9171723408074401  0.4718756211411658  0.10684707887944  1.0000
  H   H3        1.0  0.9171782076735726  0.9718788296606535  0.3931569395469765  1.0000
  H   H4        1.0  0.082824013394884  0.5281212090941666  0.893150344144267  1.0000
  H   H5        1.0  0.9222186803671092  0.25532938170916714  0.49836284098385153  1.0000
  H   H6        1.0  0.07776968867451471  0.24466787323213876  0.9983630257573353  1.0000
  H   H7        1.0  0.07777734404220385  0.7446727055820972  0.5016360053889883  1.0000
  H   H8        1.0  0.9222266655711737  0.7553289570304287  0.0016386673013642  1.0000
  H   H9        1.0  0.9305128867233705  0.4409318203917394  0.5656295997956136  1.0000
  H   H10       1.0  0.0694812544857015  0.05906523987221139  0.0656292071669569  1.0000
  H   H11       1.0  0.06948974196970441  0.5590729260017896  0.43436995826535  1.0000
  H   H12       1.0  0.930521109541445  0.9409329321507798  0.934369639214978  1.0000
  H   H13       1.0  0.5843250276675465  0.3349959097105568  0.4306451769803417  1.0000
  H   H14       1.0  0.41566180084488735  0.1650031100603755  0.9306394499821026  1.0000
  H   H15       1.0  0.4156669352914406  0.6650061592724369  0.5693593627643521  1.0000
  H   H16       1.0  0.5843351478235875  0.8349950374940959  0.0693579730439922  1.0000
  H   H17       1.0  0.22070958244583488  0.0078472054244898  0.794256846163023  1.0000
  H   H18       1.0  0.7792887733480285  0.4921488248495508  0.2942550991105719  1.0000
  H   H19       1.0  0.7792943003789147  0.9921483442262441  0.20574769359953385  1.0000
  H   H20       1.0  0.2207134257537008  0.507851975683252  0.7057416122559346  1.0000
  H   H21       1.0  0.25263413722770894  0.8290931295877402  0.7408836455211086  1.0000
  H   H22       1.0  0.7473663445687037  0.6709049732574853  0.24088260781918786  1.0000
  H   H23       1.0  0.7473668729706093  0.17090503632492474  0.2591159125306106  1.0000
  H   H24       1.0  0.25263839729417004  0.32909846802392906  0.7591133918823162  1.0000
  H   H25       1.0  0.22368669234596442  0.2037929037215918  0.457375467284912  1.0000
  H   H26       1.0  0.7763049055887877  0.29620384680249157  0.9573728444219398  1.0000
  H   H27       1.0  0.7763081431960828  0.7962065489722291  0.5426297841356273  1.0000
  H   H28       1.0  0.2236935618194736  0.7037916783434142  0.04262457860480139  1.0000
  C   C1        1.0  0.2408167125236744  0.08491251772922938  0.5925141719758428  1.0000
  C   C2        1.0  0.7591767858210261  0.4150822507481137  0.0925093571869411  1.0000
  C   C3        1.0  0.7591814251421811  0.9150882645043765  0.407489656107515  1.0000
  C   C4        1.0  0.2408234649857165  0.5849172263552306  0.9074880658469695  1.0000
  C   C5        1.0  0.6455728313423776  0.22862368537930416  0.5619843617787552  1.0000
  C   C6        1.0  0.35442150049428284  0.2713799027698158  0.06198549546602549  1.0000
  C   C7        1.0  0.3544236226510479  0.771382347768153  0.4380166196160431  1.0000
  C   C8        1.0  0.6455773964764051  0.7286195682186616  0.9380119275651706  1.0000
  C   C9        1.0  0.8669453481438011  0.295816705937952  0.5630018454608532  1.0000
  C   C10       1.0  0.1330445132659861  0.2041829309852758  0.0630005484255705  1.0000
  C   C11       1.0  0.1330526245821844  0.7041867047963918  0.43699842426208585  1.0000
  C   C12       1.0  0.8669516760326063  0.7958165277734821  0.9369968746002044  1.0000
  C   C13       1.0  0.3712449748573832  0.06562608455077881  0.6582089032858676  1.0000
  C   C14       1.0  0.6287483392518284  0.4343721442107906  0.1582071608160831  1.0000
  C   C15       1.0  0.6287572243166297  0.9343747160274134  0.341794924805626  1.0000
  C   C16       1.0  0.3712544543232852  0.5656299736456987  0.8417902622253165  1.0000
  C   C17       1.0  0.5241960397290555  0.25638436582923413  0.49418381736882816  1.0000
  C   C18       1.0  0.47579419268356565  0.24361415922155064  0.9941798975261804  1.0000
  C   C19       1.0  0.47579981981989766  0.7436203500126835  0.5058192990410646  1.0000
  C   C20       1.0  0.5242033504510742  0.7563853056520669  0.0058175255023087  1.0000
  C   C21       1.0  0.32576268283236953  0.9728356248227712  0.7526115739396315  1.0000
  C   C22       1.0  0.6742341405862504  0.5271599807263172  0.252609981578928  1.0000
  C   C23       1.0  0.6742423888957916  0.0271625594480938  0.24739011913771947  1.0000
  C   C24       1.0  0.3257641619038196  0.4728381729339405  0.7473860181048834  1.0000
  C   C25       1.0  0.3200579923577394  0.1826645735208032  0.5101155543796025  1.0000
  C   C26       1.0  0.6799354507440825  0.3173357245722741  0.0101152261773692  1.0000
  C   C27       1.0  0.6799387914720683  0.8173362025979428  0.489888273701048  1.0000
  C   C28       1.0  0.320066153905941  0.6826637586504629  0.9898829085317544  1.0000
  N   N1        1.0  0.5660013250917475  0.13502304330595646  0.6406004431775328  1.0000
  N   N2        1.0  0.4339929851666114  0.36497496699483634  0.1405985073645226  1.0000
  N   N3        1.0  0.4339987608690949  0.8649790623571223  0.3594026732384279  1.0000
  N   N4        1.0  0.5660071007436258  0.6350271386364738  0.8593996273439544  1.0000
  O   O1        1.0  0.5037066461909205  0.0159379157151704  0.8046556659096781  1.0000
  O   O2        1.0  0.49629505808852076  0.4840622052662483  0.3046556197998029  1.0000
  O   O3        1.0  0.49629740148697027  0.9840550053803624  0.1953438921433275  1.0000
  O   O4        1.0  0.5037096837960391  0.5159412360287803  0.6953425149191901  1.0000
  O   O5        1.0  0.9280684688619872  0.23286860229573136  0.6452926010845914  1.0000
  O   O6        1.0  0.07192804993489688  0.26712816277070317  0.14529259803637018  1.0000
  O   O7        1.0  0.0719335653577034  0.767134826774118  0.354706245301486  1.0000
  O   O8        1.0  0.928072530715447  0.7328660573084702  0.8547083833558914  1.0000
  O   O9        1.0  0.9201341756519525  0.1670747177432474  0.8452127166163237  1.0000
  O   O10       1.0  0.07986987122173166  0.33292329809103893  0.3452135770687192  1.0000
  O   O11       1.0  0.07986937730751022  0.832926088918036  0.15478612977039313  1.0000
  O   O12       1.0  0.9201380730822707  0.6670722698861197  0.6547881160119857  1.0000
  O   O13       1.0  0.7577814439691224  0.8910353035181728  0.7177589136382139  1.0000
  O   O14       1.0  0.24221721428187246  0.6089624983026596  0.21776072576304983  1.0000
  O   O15       1.0  0.24222871325241613  0.10896816223176131  0.2822385094191304  1.0000
  O   O16       1.0  0.7577771916543767  0.3910330085213616  0.7822402556180421  1.0000
