data_image0
_chemical_formula_structural       Zn4H32C36O24
_chemical_formula_sum              "Zn4 H32 C36 O24"
_cell_length_a       6.786620822006501
_cell_length_b       8.020449056551431
_cell_length_c       17.52473895838159
_cell_angle_alpha    94.05869517840483
_cell_angle_beta     90.00010979691152
_cell_angle_gamma    89.99987846987912

_space_group_name_H-M_alt    "P 1"
_space_group_IT_number       1

loop_
  _space_group_symop_operation_xyz
  'x, y, z'

loop_
  _atom_site_type_symbol
  _atom_site_label
  _atom_site_symmetry_multiplicity
  _atom_site_fract_x
  _atom_site_fract_y
  _atom_site_fract_z
  _atom_site_occupancy
  Zn  Zn1       1.0  0.5647623885401459  0.5573526110904722  0.7706990047437546  1.0000
  Zn  Zn2       1.0  0.0647618649192694  0.9426484067155485  0.7293004171059183  1.0000
  Zn  Zn3       1.0  0.43523723557253663  0.4426475765282946  0.2293008096542836  1.0000
  Zn  Zn4       1.0  0.935237759196248  0.0573517660311182  0.2707005380339994  1.0000
  H   H1        1.0  0.36313067838387525  0.26125759799911924  0.742293718409343  1.0000
  H   H2        1.0  0.8631306840466664  0.23874237003683874  0.7577053809037868  1.0000
  H   H3        1.0  0.6368689457273932  0.7387425970556976  0.2577055256177588  1.0000
  H   H4        1.0  0.1368689400674725  0.7612565676562824  0.24229438961105398  1.0000
  H   H5        1.0  0.2443498959356774  0.3916436354208201  0.8004936405267532  1.0000
  H   H6        1.0  0.7443499403303805  0.10835526878240388  0.6995064738409486  1.0000
  H   H7        1.0  0.7556497281784617  0.6083553022722936  0.19950612998808748  1.0000
  H   H8        1.0  0.2556496837837586  0.8916436689107172  0.3004932966738993  1.0000
  H   H9        1.0  0.6975791514583917  0.6645591114051612  0.04986413539579363  1.0000
  H   H10       1.0  0.19757998677329172  0.8354386932288947  0.45013634813207676  1.0000
  H   H11       1.0  0.3024204726600743  0.3354373190006186  0.9501361177236096  1.0000
  H   H12       1.0  0.8024196373436753  0.1645602295921265  0.5498645631246435  1.0000
  H   H13       1.0  0.4848105737461666  0.8118088894658868  0.1447468479517157  1.0000
  H   H14       1.0  0.9848097141860495  0.6881909290544569  0.35525392115774695  1.0000
  H   H15       1.0  0.5151905238567808  0.18818879830033816  0.8552528786804461  1.0000
  H   H16       1.0  0.0151899099294681  0.3118092436922168  0.6447470339821708  1.0000
  H   H17       1.0  0.17523208167150983  0.9503495726874859  0.10511168239333564  1.0000
  H   H18       1.0  0.6752302909686421  0.5496507844811588  0.3948877327677495  1.0000
  H   H19       1.0  0.8247690159327875  0.04965059262189439  0.8948898431180301  1.0000
  H   H20       1.0  0.32476785965381083  0.450350660500547  0.6051115551420383  1.0000
  H   H21       1.0  0.09568063082173242  0.9438892088454408  0.9650401182243376  1.0000
  H   H22       1.0  0.5956785197090682  0.5561130065770427  0.5349593688013174  1.0000
  H   H23       1.0  0.904318993295199  0.056110956465182896  0.03496140728651651  1.0000
  H   H24       1.0  0.40431815742601873  0.4438884384059136  0.4650399191079588  1.0000
  H   H25       1.0  0.7953180604247693  0.4859731736228881  0.968640672760522  1.0000
  H   H26       1.0  0.2953161579330371  0.014028144200310098  0.5313595644745848  1.0000
  H   H27       1.0  0.2046815636864565  0.5140282639215242  0.03135918552071361  1.0000
  H   H28       1.0  0.7046834661796453  0.9859720434184567  0.46864024992345343  1.0000
  H   H29       1.0  0.9138126708301544  0.6748107168403691  0.944375388875479  1.0000
  H   H30       1.0  0.4138101097593464  0.8251884530479926  0.5556247998515718  1.0000
  H   H31       1.0  0.0861884267698869  0.325189470777147  0.05562442552306382  1.0000
  H   H32       1.0  0.5861880408659773  0.17481173457201749  0.4443750145459619  1.0000
  C   C1        1.0  0.5139287988867594  0.7163952373109483  0.9528060559843471  1.0000
  C   C2        1.0  0.013926300204261102  0.7836058590659718  0.5471939012265781  1.0000
  C   C3        1.0  0.48607082522595857  0.28360370781821587  0.04719314415956432  1.0000
  C   C4        1.0  0.9860733239112565  0.2163943136807021  0.4528070539133397  1.0000
  C   C5        1.0  0.563453370744675  0.7224621860923931  0.030495430190434502  1.0000
  C   C6        1.0  0.06345297309019321  0.7775358529059702  0.469504390593869  1.0000
  C   C7        1.0  0.4365477268568228  0.2775367515994773  0.9695043403249175  1.0000
  C   C8        1.0  0.9365481245127187  0.2224630773498575  0.5304959502924192  1.0000
  C   C9        1.0  0.44235189381955564  0.8065937211393007  0.08475065825116701  1.0000
  C   C10       1.0  0.9423527910274957  0.6934049341617836  0.4152488969926155  1.0000
  C   C11       1.0  0.557650677269301  0.19340521655132653  0.9152491122646969  1.0000
  C   C12       1.0  0.057649780065688105  0.3065914962414952  0.5847513561277966  1.0000
  C   C13       1.0  0.2698653115080205  0.8845420706721326  0.06271440720070841  1.0000
  C   C14       1.0  0.7698650390672913  0.6154593763110441  0.4372851170178367  1.0000
  C   C15       1.0  0.7301343126074971  0.115458102074534  0.9372865479392023  1.0000
  C   C16       1.0  0.23013458504393475  0.3845420612333684  0.562714741263399  1.0000
  C   C17       1.0  0.22389479097498827  0.8793096845510392  0.9853716060824741  1.0000
  C   C18       1.0  0.7238938913725762  0.6206923139450635  0.5146279692444795  1.0000
  C   C19       1.0  0.7761077801152823  0.12068924570354508  0.014628734804325902  1.0000
  C   C20       1.0  0.27610573273864963  0.3793091235993558  0.4853718890367562  1.0000
  C   C21       1.0  0.34222905013817956  0.7971855522088801  0.9286914804054764  1.0000
  C   C22       1.0  0.8422267515490632  0.7028162535148823  0.5713076060466593  1.0000
  C   C23       1.0  0.6577705739731173  0.20281340035633377  0.07130714936749882  1.0000
  C   C24       1.0  0.15777139907480384  0.29718518403078054  0.42869225223406476  1.0000
  C   C25       1.0  0.28254080468086334  0.8126018761565418  0.8476306154064733  1.0000
  C   C26       1.0  0.7825404185201067  0.6873987657543167  0.6523695267978058  1.0000
  C   C27       1.0  0.7174588194346541  0.1873982965901249  0.15237033973343736  1.0000
  C   C28       1.0  0.21745920559398974  0.3126014144283999  0.3476308579711756  1.0000
  C   C29       1.0  0.8175409767952999  0.571653886165244  0.9229550735834811  1.0000
  C   C30       1.0  0.31754121042905586  0.9283454540387482  0.577044478471443  1.0000
  C   C31       1.0  0.1824586473173824  0.4283463014535229  0.07704474081455714  1.0000
  C   C32       1.0  0.6824569401962677  0.0716547335812692  0.42295533592609075  1.0000
  C   C33       1.0  0.9165180306994147  0.47253969302078497  0.8569375016024099  1.0000
  C   C34       1.0  0.41651369935652144  0.0274526553947823  0.6430636526615959  1.0000
  C   C35       1.0  0.08347864643712911  0.5274605020365256  0.14306174242368294  1.0000
  C   C36       1.0  0.5834859247561611  0.9725475322239916  0.3569361617364423  1.0000
  O   O1        1.0  0.35500724195334504  0.38047780850943275  0.7619377962618405  1.0000
  O   O2        1.0  0.855004501868372  0.11952217327288388  0.7380612974557512  1.0000
  O   O3        1.0  0.6449938556466962  0.6195223791080906  0.23806201813670932  1.0000
  O   O4        1.0  0.144995122244346  0.8804767718562873  0.2619379026881604  1.0000
  O   O5        1.0  0.8183055697423925  0.43687059722897464  0.7951650819197202  1.0000
  O   O6        1.0  0.31830734820328394  0.0631282041554257  0.7048333722689153  1.0000
  O   O7        1.0  0.18169552785765572  0.5631295903885417  0.20483473247882247  1.0000
  O   O8        1.0  0.681692275912276  0.9368707261016452  0.2951669686168686  1.0000
  O   O9        1.0  0.08952628313662812  0.4261795069967888  0.8684420740485027  1.0000
  O   O10       1.0  0.5895319722720344  0.07381841665791457  0.6315573194402548  1.0000
  O   O11       1.0  0.9104762879550634  0.5738194158217381  0.13155883720923364  1.0000
  O   O12       1.0  0.4104676518406408  0.9261817709608524  0.3684424949577832  1.0000
  O   O13       1.0  0.37486799546553584  0.7429684533611152  0.7906078166478071  1.0000
  O   O14       1.0  0.8748677167428199  0.7570332971391521  0.7093912922834138  1.0000
  O   O15       1.0  0.625130155159745  0.2570329767484978  0.20939261200386036  1.0000
  O   O16       1.0  0.12513190736986252  0.2429668904796145  0.29060852211462423  1.0000
  O   O17       1.0  0.13180290721197002  0.9048761607217272  0.8374688912657438  1.0000
  O   O18       1.0  0.6318028020821134  0.5951234937325295  0.6625305328715714  1.0000
  O   O19       1.0  0.8681952434161533  0.09512525451578568  0.16253267812779634  1.0000
  O   O20       1.0  0.3681968220319903  0.40487668645018726  0.33746985189741013  1.0000
  O   O21       1.0  0.6327920435499977  0.6355259026466628  0.8981940164776891  1.0000
  O   O22       1.0  0.1327910857800489  0.8644762425500473  0.6018060664778774  1.0000
  O   O23       1.0  0.3672061070752904  0.3644755274629502  0.10180641217397833  1.0000
  O   O24       1.0  0.8672085383311768  0.13552519499436497  0.3981937918033581  1.0000
