data_image0
_chemical_formula_structural       Zn2H20C58N8O8F8
_chemical_formula_sum              "Zn2 H20 C58 N8 O8 F8"
_cell_length_a       17.120216728718177
_cell_length_b       18.387886515326066
_cell_length_c       19.600665867305793
_cell_angle_alpha    91.17215428993046
_cell_angle_beta     90.23834885367853
_cell_angle_gamma    94.79394015286442

_space_group_name_H-M_alt    "P 1"
_space_group_IT_number       1

loop_
  _space_group_symop_operation_xyz
  'x, y, z'

loop_
  _atom_site_type_symbol
  _atom_site_label
  _atom_site_symmetry_multiplicity
  _atom_site_fract_x
  _atom_site_fract_y
  _atom_site_fract_z
  _atom_site_occupancy
  Zn  Zn1       1.0  0.4997212955495342  0.4225396293255271  0.4896541634523499  1.0000
  Zn  Zn2       1.0  0.5025021677790278  0.5779402703256267  0.4968611230947601  1.0000
  H   H1        1.0  0.2698432804687485  0.5995583823846005  0.5646996468841294  1.0000
  H   H2        1.0  0.7376122128034694  0.4043615232519853  0.5418918310086625  1.0000
  H   H3        1.0  0.600458429678902  0.43884563275945965  0.9314621970991794  1.0000
  H   H4        1.0  0.3938145383875947  0.5613684587952151  0.0553666389373078  1.0000
  H   H5        1.0  0.5674633963532116  0.315224876026079  0.5718648749986315  1.0000
  H   H6        1.0  0.43906878993237797  0.6867746292880028  0.4126351859871278  1.0000
  H   H7        1.0  0.5718100515682352  0.1789368856151441  0.5785649646156941  1.0000
  H   H8        1.0  0.43427848183412  0.8230532882609153  0.40773788197012806  1.0000
  H   H9        1.0  0.5522729216588614  0.9319164133410563  0.3965482442549657  1.0000
  H   H10       1.0  0.44933573421115364  0.0688331410716074  0.5933194896470724  1.0000
  H   H11       1.0  0.01169899782726698  0.585225693905748  0.5748209213881736  1.0000
  H   H12       1.0  0.9955593278114061  0.41842128279184  0.5932100441959562  1.0000
  H   H13       1.0  0.8766827358268755  0.409277687307572  0.5780819439070441  1.0000
  H   H14       1.0  0.13131167033906618  0.5932574182273455  0.6028954130642106  1.0000
  H   H15       1.0  0.5033781424651663  0.6070350443151753  0.7072674098805932  1.0000
  H   H16       1.0  0.49667899988775593  0.38947131897452175  0.27759304437830673  1.0000
  H   H17       1.0  0.49793665903277423  0.37854278951686376  0.8393312025419276  1.0000
  H   H18       1.0  0.4957234436317464  0.6202931277727329  0.1498663492749159  1.0000
  H   H19       1.0  0.500852634662749  0.3729412463400336  0.7114143675387723  1.0000
  H   H20       1.0  0.4950151366774944  0.6234845568744942  0.2776460286817297  1.0000
  C   C1        1.0  0.49733579772234277  0.5074466993154232  0.3619757515564146  1.0000
  C   C2        1.0  0.5037473970762604  0.4871725093546928  0.6255228553493595  1.0000
  C   C3        1.0  0.5015618391274899  0.5568588713789495  0.7359645601822534  1.0000
  C   C4        1.0  0.4967796137322863  0.44022217710778455  0.24998001600244626  1.0000
  C   C5        1.0  0.49916519266974285  0.5585962103786527  0.8065399115743757  1.0000
  C   C6        1.0  0.4967415057738407  0.4397746027495871  0.17936156657038538  1.0000
  C   C7        1.0  0.49793506575449  0.49540663108271576  0.8454856122907087  1.0000
  C   C8        1.0  0.49666009674701417  0.5036256788375795  0.14146736935359877  1.0000
  C   C9        1.0  0.4995263267011436  0.428384043695253  0.8099031172634098  1.0000
  C   C10       1.0  0.49517243151442597  0.5698832335220912  0.1783465917920282  1.0000
  C   C11       1.0  0.5011791448862651  0.4250024550065631  0.7389779792501514  1.0000
  C   C12       1.0  0.49503889867889234  0.5718805665636708  0.2493877598525884  1.0000
  C   C13       1.0  0.5022397287523219  0.4893286897245089  0.7017923386991072  1.0000
  C   C14       1.0  0.4962705544455375  0.5070149692540653  0.28556179168639056  1.0000
  C   C15       1.0  0.5541684022287754  0.46504395592481257  0.9579737907282392  1.0000
  C   C16       1.0  0.44015825278087556  0.535175620738407  0.028917049838199198  1.0000
  C   C17       1.0  0.5532936942344336  0.467185328192791  0.028678008995562696  1.0000
  C   C18       1.0  0.44117993918016646  0.5331954127015236  0.9581745261575989  1.0000
  C   C19       1.0  0.49682054252870234  0.5015638060582006  0.0661882994636329  1.0000
  C   C20       1.0  0.4974245556104506  0.498517885320588  0.9207194381849249  1.0000
  C   C21       1.0  0.5362601555278628  0.27761662405745813  0.5355348104301639  1.0000
  C   C22       1.0  0.468189590763231  0.7237631313779148  0.4506865642323135  1.0000
  C   C23       1.0  0.35072026312557364  0.4953318195880596  0.5129514095412233  1.0000
  C   C24       1.0  0.6529176125379337  0.5108598909552099  0.5048785965004967  1.0000
  C   C25       1.0  0.5374717535721912  0.20265580995943816  0.5391304847385712  1.0000
  C   C26       1.0  0.46674673646645454  0.7987800938631009  0.4481054832884226  1.0000
  C   C27       1.0  0.49576122242915927  0.15715296275998009  0.49058995035629493  1.0000
  C   C28       1.0  0.5057235143154911  0.8436233967208364  0.4987403962176629  1.0000
  C   C29       1.0  0.45304389555496266  0.19068152784009124  0.44130281131460686  1.0000
  C   C30       1.0  0.5457144477003978  0.809302188341185  0.5493422718245567  1.0000
  C   C31       1.0  0.4547883575860466  0.2668941209679403  0.44127585002069486  1.0000
  C   C32       1.0  0.5437345723004796  0.7330522909503685  0.5486168715167209  1.0000
  C   C33       1.0  0.5262887625597868  0.03738116111821909  0.4362362856702546  1.0000
  C   C34       1.0  0.4753676533161835  0.9633903593499229  0.5536308752317822  1.0000
  C   C35       1.0  0.5289510213459321  0.961513871581367  0.4395809443028327  1.0000
  C   C36       1.0  0.47276829155320127  0.0393024955484265  0.5502946517264035  1.0000
  C   C37       1.0  0.5040019644365614  0.9238183021723854  0.49767456855719416  1.0000
  C   C38       1.0  0.49763803127433437  0.07694669300280307  0.4921781653311966  1.0000
  C   C39       1.0  0.2686570422479164  0.48585585159039374  0.5402209761312589  1.0000
  C   C40       1.0  0.7370167135766791  0.5191015700131203  0.5282045831158513  1.0000
  C   C41       1.0  0.23387048082471296  0.5478046398601889  0.5641053825506005  1.0000
  C   C42       1.0  0.7729768064580184  0.45633446567347125  0.5459563230268927  1.0000
  C   C43       1.0  0.1565433509020977  0.5438860193783909  0.5849429525527512  1.0000
  C   C44       1.0  0.8506671554170707  0.45966001858954536  0.5662902712272454  1.0000
  C   C45       1.0  0.10934292192699499  0.47744291875206807  0.581427073717073  1.0000
  C   C46       1.0  0.8971846056346349  0.5265154823954319  0.5694509046336123  1.0000
  C   C47       1.0  0.14598056950822516  0.41321567421520905  0.5633659258333381  1.0000
  C   C48       1.0  0.8603385258447601  0.5909160218140882  0.5545900714562961  1.0000
  C   C49       1.0  0.22564818088046928  0.41716251169565055  0.5427212506475385  1.0000
  C   C50       1.0  0.7804852694827318  0.5875089182815856  0.5338107062505344  1.0000
  C   C51       1.0  0.024596637359664407  0.47326810890851334  0.5886758096439806  1.0000
  C   C52       1.0  0.9814854241821963  0.5309797243609677  0.5804875598558397  1.0000
  C   C53       1.0  0.5555253401134692  0.0743080743564306  0.377050641087223  1.0000
  C   C54       1.0  0.4454750037382168  0.9265789227083729  0.6126603286719714  1.0000
  C   C55       1.0  0.748512242761663  0.6549244586801706  0.518877348707953  1.0000
  C   C56       1.0  0.2582295786237836  0.3501793354563105  0.5248403958035012  1.0000
  C   C57       1.0  0.10040446818617707  0.34462656427236726  0.5634271236178279  1.0000
  C   C58       1.0  0.9053369209706899  0.6597301628779988  0.5595650955505889  1.0000
  N   N1        1.0  0.4955805927323239  0.30902311368398466  0.48648376777853747  1.0000
  N   N2        1.0  0.5061906351278793  0.6915810939513418  0.5009899775054975  1.0000
  N   N3        1.0  0.5802643539410113  0.10456020428982532  0.32891035208248093  1.0000
  N   N4        1.0  0.42005537536174126  0.8964362635736902  0.660617730165839  1.0000
  N   N5        1.0  0.7299699786973903  0.713486161500711  0.5087406935233219  1.0000
  N   N6        1.0  0.2781382253460619  0.2920212110557828  0.5129535724689873  1.0000
  N   N7        1.0  0.06025484688197478  0.2900255836008156  0.5645595391354731  1.0000
  N   N8        1.0  0.9448878437227817  0.7145603640895785  0.5647749883708286  1.0000
  O   O1        1.0  0.5055628636236379  0.44664294445195923  0.3899699806224888  1.0000
  O   O2        1.0  0.5088691324624648  0.5486570737717642  0.5963247771166066  1.0000
  O   O3        1.0  0.49023684062054673  0.5680169814599267  0.3933841809444729  1.0000
  O   O4        1.0  0.4995564819738902  0.4248634202572319  0.5955066325505243  1.0000
  O   O5        1.0  0.38216606163096145  0.4375031289465807  0.4963593179985394  1.0000
  O   O6        1.0  0.6215906203736168  0.5690933306771271  0.4913904930742418  1.0000
  O   O7        1.0  0.38133464863714284  0.5605201784797416  0.5089871508098085  1.0000
  O   O8        1.0  0.6204373621419988  0.44612791862663664  0.5016137945256673  1.0000
  F   F1        1.0  0.6116870697052191  0.4368133097441244  0.06251398372553038  1.0000
  F   F2        1.0  0.3830606626360975  0.5638954464067751  0.9242001998106203  1.0000
  F   F3        1.0  0.40937090782956176  0.1513641094171874  0.3942685546291926  1.0000
  F   F4        1.0  0.5870275480728323  0.8477438237241441  0.5983523588853501  1.0000
  F   F5        1.0  0.4146032280924743  0.29898517315962175  0.3937967052235364  1.0000
  F   F6        1.0  0.5800387292122409  0.7003251541262331  0.5981378571711247  1.0000
  F   F7        1.0  0.5006337080509552  0.6247234958656733  0.8392813455113313  1.0000
  F   F8        1.0  0.49450428139146385  0.3741932078324481  0.145524347330948  1.0000
