data_image0
_chemical_formula_structural       Cd2H24C32N12
_chemical_formula_sum              "Cd2 H24 C32 N12"
_cell_length_a       8.358498486567882
_cell_length_b       9.42723502998225
_cell_length_c       10.594579172457955
_cell_angle_alpha    77.1691351415154
_cell_angle_beta     84.42803077837766
_cell_angle_gamma    71.9359052915281

_space_group_name_H-M_alt    "P 1"
_space_group_IT_number       1

loop_
  _space_group_symop_operation_xyz
  'x, y, z'

loop_
  _atom_site_type_symbol
  _atom_site_label
  _atom_site_symmetry_multiplicity
  _atom_site_fract_x
  _atom_site_fract_y
  _atom_site_fract_z
  _atom_site_occupancy
  Cd  Cd1       1.0  0.7392666727822784  0.503512667229174  0.5668924194745201  1.0000
  Cd  Cd2       1.0  0.26073004087842827  0.49648840201544425  0.4331066661306409  1.0000
  H   H1        1.0  0.4395673103050016  0.46270343288455973  0.8079309916408092  1.0000
  H   H2        1.0  0.5604353753141494  0.537278257239578  0.1920707118159868  1.0000
  H   H3        1.0  0.4131992485460216  0.3112311099625131  0.03227492755197402  1.0000
  H   H4        1.0  0.5868092583373326  0.6887550291287424  0.9677273501132503  1.0000
  H   H5        1.0  0.6788559767796087  0.13321432964772129  0.1393355274899406  1.0000
  H   H6        1.0  0.32115376628529907  0.866783193028624  0.8606699946296814  1.0000
  H   H7        1.0  0.9547723673336608  0.12197629751076992  0.021878975326323758  1.0000
  H   H8        1.0  0.04523694280210574  0.878030334386814  0.9781275407584289  1.0000
  H   H9        1.0  0.20992911940365394  0.1714633902530592  0.9244743477822439  1.0000
  H   H10       1.0  0.7900787319468067  0.8285407892945713  0.07551766791181785  1.0000
  H   H11       1.0  0.39574809121446464  0.2758440093498393  0.7145654598413884  1.0000
  H   H12       1.0  0.6042491831116125  0.724155742765788  0.28542158528304645  1.0000
  H   H13       1.0  0.9868384170469043  0.6402027764474738  0.7092225714992608  1.0000
  H   H14       1.0  0.01316055510257999  0.3598027544927831  0.2907735554684052  1.0000
  H   H15       1.0  0.9766276593604745  0.8697271551358554  0.7944150378482391  1.0000
  H   H16       1.0  0.02336813076105671  0.13027285222864293  0.2055881051628887  1.0000
  H   H17       1.0  0.6969660068174477  0.07414566381778802  0.7995638795699804  1.0000
  H   H18       1.0  0.3030306906643788  0.925855419118072  0.20043614833529227  1.0000
  H   H19       1.0  0.4468536925392926  0.041026538863739914  0.7119975824961884  1.0000
  H   H20       1.0  0.5531458383252997  0.9589733051686197  0.28799872805966936  1.0000
  H   H21       1.0  0.22171377354860775  0.009202258891356499  0.6139361327071811  1.0000
  H   H22       1.0  0.7782767648628734  0.9907990323722872  0.38607088522304184  1.0000
  H   H23       1.0  0.07444262221225978  0.8482658101095665  0.49797707310030154  1.0000
  H   H24       1.0  0.9255501440250384  0.15173206861004468  0.5020323789073657  1.0000
  C   C1        1.0  0.5503936846975537  0.3849227617017803  0.8594049763646936  1.0000
  C   C2        1.0  0.4496089021535497  0.6150669121919349  0.1405988727780283  1.0000
  C   C3        1.0  0.5360138966011334  0.30034544350933595  0.9836205107611988  1.0000
  C   C4        1.0  0.46399230156202986  0.6996441765821401  0.016384044327118406  1.0000
  C   C5        1.0  0.6835005525860609  0.2026139746315252  0.0429084325419709  1.0000
  C   C6        1.0  0.31650487848685327  0.7973858801328505  0.9570959647906746  1.0000
  C   C7        1.0  0.8374838506394938  0.19594728212256737  0.9779024352205781  1.0000
  C   C8        1.0  0.16252048087687138  0.8040560311442134  0.02210416075032376  1.0000
  C   C9        1.0  0.8422573317398658  0.2869580841263186  0.8539364934475415  1.0000
  C   C10       1.0  0.157747032134246  0.7130452017579856  0.14606821792313704  1.0000
  C   C11       1.0  0.0004537838090214876  0.2926143814254587  0.7849408887376298  1.0000
  C   C12       1.0  0.9995450912672011  0.7073912316622283  0.21506089203069223  1.0000
  C   C13       1.0  0.16638461104042082  0.2365977914370276  0.8296561663450461  1.0000
  C   C14       1.0  0.8336217597505425  0.7634031115162331  0.17034323128152806  1.0000
  C   C15       1.0  0.2617631654798771  0.2893996250320825  0.7247236850956114  1.0000
  C   C16       1.0  0.7382393730900743  0.7106023613364059  0.2752672587638045  1.0000
  C   C17       1.0  0.8694210395731473  0.7319390773263095  0.7124511477986459  1.0000
  C   C18       1.0  0.13057745645040336  0.26806417044350184  0.2875435921950285  1.0000
  C   C19       1.0  0.8624147855722056  0.8592064902881733  0.761493444151732  1.0000
  C   C20       1.0  0.13758588974052094  0.14079338601131747  0.2385065568197149  1.0000
  C   C21       1.0  0.7079696703896655  0.9721753041896475  0.7627644575450603  1.0000
  C   C22       1.0  0.29202721759363476  0.0278291462946001  0.237232978713088  1.0000
  C   C23       1.0  0.5685295942359048  0.9543816403955461  0.7140074311225179  1.0000
  C   C24       1.0  0.4314664672814815  0.04562166606115169  0.2859884087409341  1.0000
  C   C25       1.0  0.5856728648771539  0.8243962182412474  0.663927454302211  1.0000
  C   C26       1.0  0.4143300851032308  0.17560810606264002  0.3360686457316362  1.0000
  C   C27       1.0  0.444486481198027  0.801875140481961  0.6084713672099369  1.0000
  C   C28       1.0  0.5555105504449003  0.1981248170022312  0.3915298124161311  1.0000
  C   C29       1.0  0.2775771994590316  0.8973648153736774  0.5904570805711272  1.0000
  C   C30       1.0  0.7224232853522282  0.10263169337741829  0.40954551204744394  1.0000
  C   C31       1.0  0.2020534459251877  0.8175759904300152  0.5309305554924748  1.0000
  C   C32       1.0  0.7979381920428495  0.18242184233123032  0.4690742637994916  1.0000
  N   N1        1.0  0.6981457904323704  0.3775361026116002  0.7955110683658759  1.0000
  N   N2        1.0  0.30185383555522094  0.6224592894944222  0.20449181245822248  1.0000
  N   N3        1.0  0.0010574228451573507  0.3715924675791059  0.6608356095850142  1.0000
  N   N4        1.0  0.9989394004226358  0.6284120376700955  0.33916559587355977  1.0000
  N   N5        1.0  0.16074873331327663  0.3697474685245794  0.6244372738049222  1.0000
  N   N6        1.0  0.8392464693804417  0.6302547212870522  0.37555885426406377  1.0000
  N   N7        1.0  0.7354551500174795  0.7148684068666425  0.664945842002183  1.0000
  N   N8        1.0  0.2645453816356209  0.28513596243289635  0.3350504156013372  1.0000
  N   N9        1.0  0.4638025647716971  0.6735182280226655  0.5626596515610345  1.0000
  N   N10       1.0  0.5361974745765893  0.3264838717976629  0.4373361613685987  1.0000
  N   N11       1.0  0.3153964163422956  0.6835958273649396  0.5150655635100704  1.0000
  N   N12       1.0  0.6846022071620015  0.31640294109606504  0.4849338621516353  1.0000
