data_image0
_chemical_formula_structural       Zn6H30C90O36
_chemical_formula_sum              "Zn6 H30 C90 O36"
_cell_length_a       17.220881228053074
_cell_length_b       17.036786371754378
_cell_length_c       16.923283845925646
_cell_angle_alpha    66.99037393113858
_cell_angle_beta     60.55488674602339
_cell_angle_gamma    57.71705398098214

_space_group_name_H-M_alt    "P 1"
_space_group_IT_number       1

loop_
  _space_group_symop_operation_xyz
  'x, y, z'

loop_
  _atom_site_type_symbol
  _atom_site_label
  _atom_site_symmetry_multiplicity
  _atom_site_fract_x
  _atom_site_fract_y
  _atom_site_fract_z
  _atom_site_occupancy
  Zn  Zn1       1.0  0.975798768767362  0.5796160497890382  0.013437553092884996  1.0000
  Zn  Zn2       1.0  0.024026003089034062  0.4203474027718954  0.9868926448545352  1.0000
  Zn  Zn3       1.0  0.58134388978835  0.9825970975489965  0.0009263539319520106  1.0000
  Zn  Zn4       1.0  0.41878027738113854  0.017305443623726418  0.9988928890348062  1.0000
  Zn  Zn5       1.0  0.9803301035772666  0.013254558502701613  0.5777659898539937  1.0000
  Zn  Zn6       1.0  0.019718310473599798  0.9867500336923811  0.42223246987630614  1.0000
  H   H1        1.0  0.9402406809760112  0.7285147195751092  0.3698474551976929  1.0000
  H   H2        1.0  0.6154983073538319  0.150524511878764  0.3434073265130024  1.0000
  H   H3        1.0  0.7009859939522942  0.28817782451521606  0.9317777416840797  1.0000
  H   H4        1.0  0.29900363932176083  0.711750158402559  0.06796932153472571  1.0000
  H   H5        1.0  0.9806763188013438  0.7449000595699643  0.7411991145175847  1.0000
  H   H6        1.0  0.01923891305541051  0.2551497433935879  0.2591712449139507  1.0000
  H   H7        1.0  0.6952409819545199  0.7051405112176781  0.0656418138663142  1.0000
  H   H8        1.0  0.30460371854742635  0.2948496165038604  0.9343553113367661  1.0000
  H   H9        1.0  0.7278694135659981  0.019717844751894916  0.7170412076846944  1.0000
  H   H10       1.0  0.2725105216057742  0.9800487961766892  0.2826511510938303  1.0000
  H   H11       1.0  0.8650979714263017  0.8651691475550506  0.41939706766577706  1.0000
  H   H12       1.0  0.05992076220348962  0.27151387824596185  0.6303765278889201  1.0000
  H   H13       1.0  0.13511720951935763  0.13486252544715435  0.5807694277341113  1.0000
  H   H14       1.0  0.793444150172377  0.2998563657311877  0.11632159172840768  1.0000
  H   H15       1.0  0.20640279079202634  0.7001106707999513  0.8835877178398733  1.0000
  H   H16       1.0  0.5079019993774169  0.8069900324271442  0.8304530740117996  1.0000
  H   H17       1.0  0.49211100754773446  0.1930434292554963  0.1694830880091871  1.0000
  H   H18       1.0  0.12658499011553206  0.5735812868227653  0.14271290625877953  1.0000
  H   H19       1.0  0.8732724345421803  0.4265334646193394  0.8574584141998755  1.0000
  H   H20       1.0  0.3041197931515924  0.7937220175182278  0.639992105593663  1.0000
  H   H21       1.0  0.6957536469648389  0.20639059509351657  0.3599705885289026  1.0000
  H   H22       1.0  0.7207150577850218  0.20216176420746018  0.8462923575861226  1.0000
  H   H23       1.0  0.7090565539221033  0.3099390691345576  0.04450089943241411  1.0000
  H   H24       1.0  0.27922014071970835  0.7977573428442639  0.1535457669488167  1.0000
  H   H25       1.0  0.2909474742174821  0.6900453028772163  0.9552487545458845  1.0000
  H   H26       1.0  0.45731334775663884  0.8477054817251783  0.7145241415425758  1.0000
  H   H27       1.0  0.5425781770915208  0.15241647010803652  0.2854709609283503  1.0000
  H   H28       1.0  0.05063340311730264  0.6279560014558856  0.2751032930321244  1.0000
  H   H29       1.0  0.9493309824914108  0.3721461098971233  0.7250943673763074  1.0000
  H   H30       1.0  0.38430851504220703  0.8496328508442589  0.6565846296060869  1.0000
  C   C1        1.0  0.9544201020318823  0.6948262181212217  0.43407668267527544  1.0000
  C   C2        1.0  0.6144155344025819  0.10550640388424158  0.41045717896937356  1.0000
  C   C3        1.0  0.6229190218915902  0.32219973450599343  0.9415946691524724  1.0000
  C   C4        1.0  0.3770687468013493  0.6777626565629544  0.058142044802806894  1.0000
  C   C5        1.0  0.1829036745304577  0.46619253618077755  0.9439059951101072  1.0000
  C   C6        1.0  0.8169483778634404  0.5337445125143175  0.056215789959502195  1.0000
  C   C7        1.0  0.4213973740098282  0.02460397812838978  0.16783367118681977  1.0000
  C   C8        1.0  0.5789726528069111  0.9752086908286729  0.8319902937633259  1.0000
  C   C9        1.0  0.01521476348779062  0.15963907197851768  0.42543587375158864  1.0000
  C   C10       1.0  0.9847352119074347  0.8404390447854265  0.5750079783895927  1.0000
  C   C11       1.0  0.8152505566066139  0.0565186491699094  0.5410294339085484  1.0000
  C   C12       1.0  0.04573328607768448  0.30520455040285555  0.5661454764302221  1.0000
  C   C13       1.0  0.18491357877653772  0.9433819924852928  0.4585517570435655  1.0000
  C   C14       1.0  0.5257558848191412  0.8249455840065493  0.05595236232078799  1.0000
  C   C15       1.0  0.47408755085778875  0.17503668007972112  0.9438879696878786  1.0000
  C   C16       1.0  0.9824801589731393  0.5808765008691452  0.83997531621376  1.0000
  C   C17       1.0  0.017392097201700096  0.41919432187708594  0.1603498286991822  1.0000
  C   C18       1.0  0.9328954397421539  0.7508216785286734  0.48918098730463566  1.0000
  C   C19       1.0  0.06723722063169657  0.24921743747545827  0.5110508713594442  1.0000
  C   C20       1.0  0.7056374050019442  0.4223019327878744  0.07447705130282152  1.0000
  C   C21       1.0  0.2943100578808427  0.5776786517127591  0.9253308084675639  1.0000
  C   C22       1.0  0.5404155322323234  0.8982775651974678  0.724242856314241  1.0000
  C   C23       1.0  0.6745239896553343  0.3861825960304727  0.0413951384059033  1.0000
  C   C24       1.0  0.4596179239181239  0.10172801801605401  0.2756676852772629  1.0000
  C   C25       1.0  0.06370216200493671  0.5055336070845655  0.2537122888524763  1.0000
  C   C26       1.0  0.9362699176012653  0.4945373629545317  0.7465343427849901  1.0000
  C   C27       1.0  0.33454000173485815  0.8938519696174295  0.5477770366933967  1.0000
  C   C28       1.0  0.6653989546459584  0.10621066597879286  0.4521410458759759  1.0000
  C   C29       1.0  0.5902899305415304  0.2863945328092611  0.9099223493549502  1.0000
  C   C30       1.0  0.4096628441064924  0.7135609546309707  0.0898575411215248  1.0000
  C   C31       1.0  0.9769661585799766  0.5585733519666717  0.5566753538113433  1.0000
  C   C32       1.0  0.02316947711356224  0.44145763677151  0.4435361352623346  1.0000
  C   C33       1.0  0.5331103824906411  0.5370698860269767  0.03322455843127159  1.0000
  C   C34       1.0  0.32546874069829107  0.613802716115373  0.9583582242530326  1.0000
  C   C35       1.0  0.46690561714740414  0.46290538392736397  0.9664858930355607  1.0000
  C   C36       1.0  0.5524080048141191  0.0004369958184894229  0.543777702467608  1.0000
  C   C37       1.0  0.44750196216789834  0.9996408448391564  0.456181536941088  1.0000
  C   C38       1.0  0.9875280272941682  0.4642271477671187  0.5949897743208011  1.0000
  C   C39       1.0  0.012565367153349905  0.535825840986391  0.405233061488623  1.0000
  C   C40       1.0  0.43977361181701013  0.5920934709210997  0.022887364867948207  1.0000
  C   C41       1.0  0.5602487959434013  0.407887058246935  0.9768079944526847  1.0000
  C   C42       1.0  0.5584079740074374  0.05218208262816392  0.4529127499746083  1.0000
  C   C43       1.0  0.4414735869470762  0.947928966311821  0.5470621326582759  1.0000
  C   C44       1.0  0.01588055206785555  0.4039442738952133  0.5369563116272715  1.0000
  C   C45       1.0  0.4937806734367812  0.8947646202675371  0.6799771953960488  1.0000
  C   C46       1.0  0.984263364041951  0.5960936792906253  0.46325597237962773  1.0000
  C   C47       1.0  0.5055587706884452  0.05196560046230306  0.4088524221746397  1.0000
  C   C48       1.0  0.49432017785647275  0.9481441035746772  0.5911245287147582  1.0000
  C   C49       1.0  0.40871810752963017  0.5564685303158898  0.9854120489359204  1.0000
  C   C50       1.0  0.591298360076557  0.4435036700239865  0.014299653103258014  1.0000
  C   C51       1.0  0.9546103389033295  0.709097200718176  0.5725843937686221  1.0000
  C   C52       1.0  0.04542820478047824  0.2909508910570437  0.42768691787735946  1.0000
  C   C53       1.0  0.6652801917320872  0.5228072461012092  0.06823360432781561  1.0000
  C   C54       1.0  0.33466907144138985  0.477173485161792  0.9316031837227284  1.0000
  C   C55       1.0  0.5893075454622407  0.95905662593529  0.6828937646472754  1.0000
  C   C56       1.0  0.5061461448572047  0.10532969690613213  0.3199857953946932  1.0000
  C   C57       1.0  0.41079975345521547  0.04088742172482536  0.316991546392849  1.0000
  C   C58       1.0  0.0447353002953363  0.42262247241446  0.2946615848923316  1.0000
  C   C59       1.0  0.9552451453171287  0.5774359454793657  0.7056099042995854  1.0000
  C   C60       1.0  0.3328925085635036  0.9500313305244251  0.4591557968872664  1.0000
  C   C61       1.0  0.6671355009025035  0.049941390058720024  0.5407115194968881  1.0000
  C   C62       1.0  0.48685269834946643  0.3266788034162359  0.9256891625622217  1.0000
  C   C63       1.0  0.5130961793442312  0.6732819725727665  0.07410893725298  1.0000
  C   C64       1.0  0.9641644963344194  0.7549331873004304  0.6197137868392275  1.0000
  C   C65       1.0  0.03578456849223953  0.24514129619254285  0.3806265195887875  1.0000
  C   C66       1.0  0.7102466762392439  0.5706599151685907  0.07152591526906352  1.0000
  C   C67       1.0  0.039966332086258737  0.5632796052501092  0.30817971859176646  1.0000
  C   C68       1.0  0.28963880568011297  0.42931259838161395  0.9284324829629471  1.0000
  C   C69       1.0  0.6249157119745234  0.9769519200798273  0.73074644220425  1.0000
  C   C70       1.0  0.3753482163342953  0.02288565322719178  0.2690743944733853  1.0000
  C   C71       1.0  0.03661360831739561  0.37477237614801595  0.2484411650681153  1.0000
  C   C72       1.0  0.963332885173081  0.6252847094304315  0.7518550799425512  1.0000
  C   C73       1.0  0.27844708851083766  0.9552894170085724  0.414289531426526  1.0000
  C   C74       1.0  0.7217274754471817  0.04458424771306821  0.5854676033006072  1.0000
  C   C75       1.0  0.43882498455403873  0.2799697366903545  0.9261439884148004  1.0000
  C   C76       1.0  0.5610800016050278  0.720002253263431  0.07371885240854682  1.0000
  C   C77       1.0  0.9690715764860517  0.7114517080041906  0.7073128128271122  1.0000
  C   C78       1.0  0.960039673163685  0.4367978855963698  0.6920409800747791  1.0000
  C   C79       1.0  0.0308594763810817  0.28861049761220403  0.29302944408775744  1.0000
  C   C80       1.0  0.6575536492246388  0.6675421407829485  0.07129416253042818  1.0000
  C   C81       1.0  0.3423255401892151  0.3324393972583124  0.9286488528359271  1.0000
  C   C82       1.0  0.6941793636924631  0.013913658860068946  0.6807622345711408  1.0000
  C   C83       1.0  0.3060989670054683  0.9859129582444058  0.3189972157509118  1.0000
  C   C84       1.0  0.9617527103229193  0.6150927740020011  0.6116620088679738  1.0000
  C   C85       1.0  0.03831334854962173  0.3849485739446692  0.3885843617050071  1.0000
  C   C86       1.0  0.5701287246122746  0.5772170787363534  0.05952485918231791  1.0000
  C   C87       1.0  0.42985181662160715  0.4227491897952405  0.9402376599741942  1.0000
  C   C88       1.0  0.603772697457707  0.002381321937164702  0.5884165497446645  1.0000
  C   C89       1.0  0.3854494834898647  0.8946158244467809  0.5895046767994572  1.0000
  C   C90       1.0  0.3962281742327747  0.9976280271349864  0.4114906493248967  1.0000
  O   O1        1.0  0.11974555613377907  0.5444457572200675  0.9724380487124833  1.0000
  O   O2        1.0  0.551251680718949  0.12088268049303953  0.964136940237772  1.0000
  O   O3        1.0  0.022265561816929867  0.4913069650181898  0.8585610976365032  1.0000
  O   O4        1.0  0.9775741282298183  0.5087674619238742  0.14178207217837982  1.0000
  O   O5        1.0  0.9616154943683317  0.6362122163115345  0.8889223970425277  1.0000
  O   O6        1.0  0.03823305302330479  0.36386545403631493  0.11140486420592312  1.0000
  O   O7        1.0  0.5811762901531168  0.8529819964591779  0.056455235050052004  1.0000
  O   O8        1.0  0.4185924052616273  0.14707333250213844  0.9434135506010436  1.0000
  O   O9        1.0  0.8368894783403958  0.07448495429112975  0.5924350949399512  1.0000
  O   O10       1.0  0.16334194536290175  0.9255461355546544  0.40700157867402714  1.0000
  O   O11       1.0  0.032032721035108146  0.11099033689205844  0.37204990702649343  1.0000
  O   O12       1.0  0.8801254898750772  0.45544832920025147  0.027776151258393597  1.0000
  O   O13       1.0  0.9678373613483305  0.8890879952612564  0.6284610441566727  1.0000
  O   O14       1.0  0.36768076190904253  0.03964218270996868  0.1265880869156888  1.0000
  O   O15       1.0  0.6327267987239299  0.9601699817460557  0.8731965004917939  1.0000
  O   O16       1.0  0.16184356344138  0.4105130200035845  0.9330857110814038  1.0000
  O   O17       1.0  0.837987336421442  0.5893851285719833  0.0671259977940082  1.0000
  O   O18       1.0  0.8843469485954218  0.8465193917609714  0.47165262455681056  1.0000
  O   O19       1.0  0.11583985789984302  0.15351517166170237  0.5285331636284027  1.0000
  O   O20       1.0  0.7699574981221532  0.36505073613981387  0.11980010716556679  1.0000
  O   O21       1.0  0.2299042994531177  0.6349135445243591  0.8800998365868011  1.0000
  O   O22       1.0  0.547396975211875  0.8417913146697699  0.806145619244667  1.0000
  O   O23       1.0  0.5136146752285172  0.002047286924053462  0.1321312422027106  1.0000
  O   O24       1.0  0.45269673436397545  0.1581701953213042  0.193729607861016  1.0000
  O   O25       1.0  0.11154416536565752  0.5200592025304118  0.16071568218294632  1.0000
  O   O26       1.0  0.8883820240543939  0.4799998353643887  0.8395176098391631  1.0000
  O   O27       1.0  0.28889632779119995  0.835308432274381  0.5855649716814141  1.0000
  O   O28       1.0  0.7110068411248562  0.16477651782659558  0.4143753731948578  1.0000
  O   O29       1.0  0.6533796083379572  0.2176019399982252  0.8573591675675516  1.0000
  O   O30       1.0  0.3465605716554238  0.7822924025531536  0.14249099732424497  1.0000
  O   O31       1.0  0.4867558994062904  0.9977882925873945  0.8677266960051925  1.0000
  O   O32       1.0  0.9788540662704789  0.14266978824625912  0.5130829311971752  1.0000
  O   O33       1.0  0.021199676279849256  0.8574028265453961  0.4873924277678228  1.0000
  O   O34       1.0  0.8726676091665341  0.037269067318483465  0.4598356119131779  1.0000
  O   O35       1.0  0.12743730821004817  0.9625719061932685  0.5397603005159368  1.0000
  O   O36       1.0  0.44860772139108485  0.8790626767175739  0.035667167976726005  1.0000
