data_image0
_chemical_formula_structural       Zn8C48O26F24
_chemical_formula_sum              "Zn8 C48 O26 F24"
_cell_length_a       18.547034980253912
_cell_length_b       18.546991569377198
_cell_length_c       18.546976452047787
_cell_angle_alpha    90.00006786589721
_cell_angle_beta     120.00006559390764
_cell_angle_gamma    120.00008275026218

_space_group_name_H-M_alt    "P 1"
_space_group_IT_number       1

loop_
  _space_group_symop_operation_xyz
  'x, y, z'

loop_
  _atom_site_type_symbol
  _atom_site_label
  _atom_site_symmetry_multiplicity
  _atom_site_fract_x
  _atom_site_fract_y
  _atom_site_fract_z
  _atom_site_occupancy
  Zn  Zn1       1.0  0.5865977082291706  0.6298944385997058  0.04329994241597737  1.0000
  Zn  Zn2       1.0  0.41340132133626645  0.45670096805679344  0.8701068362510398  1.0000
  Zn  Zn3       1.0  0.4134050614916518  0.45670228018177267  0.043297390770469145  1.0000
  Zn  Zn4       1.0  0.5865940889506336  0.45670260541172064  0.04329788244965007  1.0000
  Zn  Zn5       1.0  0.4134011532823791  0.8701057276853061  0.4567014223739888  1.0000
  Zn  Zn6       1.0  0.5865942570045207  0.0432978457832078  0.45670329632670087  1.0000
  Zn  Zn7       1.0  0.5865973751639403  0.04329866157461023  0.6298942703163702  1.0000
  Zn  Zn8       1.0  0.413404789315628  0.04329774066904686  0.4567025845325148  1.0000
  C   C1        1.0  0.5000005746322173  0.6376346711453065  0.8623666723425385  1.0000
  C   C2        1.0  0.224729210523826  0.3623650146499884  0.8623662709877776  1.0000
  C   C3        1.0  0.4999995086126248  0.6376349497733783  0.13763453497683273  1.0000
  C   C4        1.0  0.4999989558948101  0.36236531798837035  0.1376349390974879  1.0000
  C   C5        1.0  0.7752698797767297  0.6376351946009179  0.13763619868183952  1.0000
  C   C6        1.0  0.4999995816810526  0.3623652594746502  0.8623657780035854  1.0000
  C   C7        1.0  0.499998730313017  0.8623645939276868  0.36236544017587136  1.0000
  C   C8        1.0  0.7752673603516129  0.13763381004797276  0.6376337727642891  1.0000
  C   C9        1.0  0.4999981051098316  0.8623647786889065  0.6376342536880769  1.0000
  C   C10       1.0  0.500001498317829  0.1376341122746751  0.6376354419719235  1.0000
  C   C11       1.0  0.22472916408910507  0.8623658143831178  0.3623657964580786  1.0000
  C   C12       1.0  0.4999997400223322  0.13763418539553374  0.36236651505161876  1.0000
  C   C13       1.0  0.8898096218900662  0.6949058005646549  0.19490624922574537  1.0000
  C   C14       1.0  0.1101883591651073  0.8050948059533737  0.30509575367880604  1.0000
  C   C15       1.0  0.9467703400400751  0.659015969891584  0.2233860653500484  1.0000
  C   C16       1.0  0.05322826359584781  0.8409852592082384  0.27661570967486415  1.0000
  C   C17       1.0  0.05322769475129972  0.7122443474503654  0.2766152391755483  1.0000
  C   C18       1.0  0.9467702863055864  0.787756259068388  0.22338730290130107  1.0000
  C   C19       1.0  0.11018858794894731  0.3050948489171077  0.8050952410415562  1.0000
  C   C20       1.0  0.8898094859687833  0.19490415813178427  0.6949055542331876  1.0000
  C   C21       1.0  0.0532283220603489  0.2766145107916174  0.8409856187095741  1.0000
  C   C22       1.0  0.9467701920907319  0.22338427614292286  0.6590164750247779  1.0000
  C   C23       1.0  0.9467701624158098  0.22338466795273598  0.7877565815860593  1.0000
  C   C24       1.0  0.05322791150364022  0.27661433909687355  0.7122447528609823  1.0000
  C   C25       1.0  0.49999911936848224  0.694904258280765  0.19490467430710362  1.0000
  C   C26       1.0  0.4999986793255289  0.8050955055353625  0.3050945415582902  1.0000
  C   C27       1.0  0.4356302925934443  0.6590160260000599  0.2233871859486029  1.0000
  C   C28       1.0  0.5643673237514406  0.840982895119204  0.27661301708373975  1.0000
  C   C29       1.0  0.43562787517173973  0.7122426583168319  0.27661359788866235  1.0000
  C   C30       1.0  0.5643682381274076  0.7877560804500587  0.22338477527640055  1.0000
  C   C31       1.0  0.4999993483427262  0.3050953283847447  0.8050953273806483  1.0000
  C   C32       1.0  0.5000014737805288  0.19490510617939086  0.6949063028297998  1.0000
  C   C33       1.0  0.5643688097368909  0.27661423456734713  0.840984718226032  1.0000
  C   C34       1.0  0.43563050934406533  0.2233860176458505  0.6590161604617393  1.0000
  C   C35       1.0  0.5643704222201223  0.22338613696832246  0.7877568254710567  1.0000
  C   C36       1.0  0.4356297773206563  0.27661367501330136  0.7122444934467325  1.0000
  C   C37       1.0  0.49999956223690145  0.6949048897093418  0.8050954585704133  1.0000
  C   C38       1.0  0.4999992998577128  0.8050954028231772  0.6949055586378562  1.0000
  C   C39       1.0  0.43562910336516586  0.6590152504488173  0.7122447091751665  1.0000
  C   C40       1.0  0.5643697587311679  0.8409850420844194  0.7877568472054008  1.0000
  C   C41       1.0  0.435628836780651  0.7122442311198537  0.6590154915817619  1.0000
  C   C42       1.0  0.5643700253156824  0.7877560614133754  0.8409860647988053  1.0000
  C   C43       1.0  0.49999908783030383  0.3050955396559161  0.19490571263959566  1.0000
  C   C44       1.0  0.4999999727902421  0.19490564912387498  0.30509538469251385  1.0000
  C   C45       1.0  0.5643697707627384  0.2766156811228768  0.2233869595008287  1.0000
  C   C46       1.0  0.4356290319856199  0.22338657047316696  0.27661562641083026  1.0000
  C   C47       1.0  0.5643683519506766  0.22338567540187174  0.2766147952215973  1.0000
  C   C48       1.0  0.4356296458609209  0.27661511091262986  0.22338684904744352  1.0000
  O   O1        1.0  0.4999995448544469  0.5000000414999022  6.069490864020886e-08  1.0000
  O   O2        1.0  0.5612382953032267  0.6770947568307831  0.9453834002929822  1.0000
  O   O3        1.0  0.2682854089232337  0.384144448089458  0.8229048071240256  1.0000
  O   O4        1.0  0.43875955338452133  0.5546174323404995  0.11585464059446328  1.0000
  O   O5        1.0  0.43876144347525076  0.5546166898991132  0.8229050626232135  1.0000
  O   O6        1.0  0.5612394609448897  0.6770954805168826  0.1158574001810279  1.0000
  O   O7        1.0  0.2682867554916656  0.384142265687565  0.9453831255296166  1.0000
  O   O8        1.0  0.4387607945067202  0.3841444804943491  0.11585717144811981  1.0000
  O   O9        1.0  0.7317117385922818  0.5546167708506361  0.11585751049182133  1.0000
  O   O10       1.0  0.5612362197880858  0.3841424034099177  0.11585535617814458  1.0000
  O   O11       1.0  0.7317125921956277  0.6770959088234746  0.11585757514883706  1.0000
  O   O12       1.0  0.4387586156953206  0.38414297088220895  0.8229039415069365  1.0000
  O   O13       1.0  0.5612387896395391  0.384145415218178  0.9453826848737705  1.0000
  O   O14       1.0  0.49999913430110593  0.9999992820853688  0.5000001345728078  1.0000
  O   O15       1.0  0.43876064573160517  0.8229059309331529  0.3841445871942638  1.0000
  O   O16       1.0  0.731712381236733  0.11585714382732692  0.5546176619804939  1.0000
  O   O17       1.0  0.5612378588475554  0.9453833825168871  0.6770956355277632  1.0000
  O   O18       1.0  0.5612357549744404  0.9453798411434134  0.38414171258338553  1.0000
  O   O19       1.0  0.4387603844388224  0.8229046930034299  0.5546175257376331  1.0000
  O   O20       1.0  0.7317130296979003  0.11585624435532073  0.6770956313337209  1.0000
  O   O21       1.0  0.5612400808031666  0.11585665874847716  0.6770966258881685  1.0000
  O   O22       1.0  0.26828650033336005  0.945382772850422  0.3841424646608898  1.0000
  O   O23       1.0  0.4387623971871193  0.11585670474184441  0.5546185885196876  1.0000
  O   O24       1.0  0.2682853888612584  0.8229046976952786  0.3841449669280123  1.0000
  O   O25       1.0  0.5612398759873402  0.11585963884851216  0.384145809169226  1.0000
  O   O26       1.0  0.4387589229799006  0.11585420717432979  0.38414216470344087  1.0000
  F   F1        1.0  0.9018262562593905  0.5714617543304497  0.20091331979298105  1.0000
  F   F2        1.0  0.09817172478717867  0.9285388521839835  0.2990859872500735  1.0000
  F   F3        1.0  0.0981692217067333  0.669632618228533  0.2990859790101509  1.0000
  F   F4        1.0  0.9018293819326293  0.830368610872732  0.20091687435936476  1.0000
  F   F5        1.0  0.09817133497469405  0.2990858407570869  0.9285389625929382  1.0000
  F   F6        1.0  0.9018269968221021  0.20091210347843705  0.5714625007914621  1.0000
  F   F7        1.0  0.9018292499940515  0.20091453663030018  0.830368900294985  1.0000
  F   F8        1.0  0.09816856604805214  0.29908553323340203  0.6696323052147051  1.0000
  F   F9        1.0  0.3705502486283694  0.5714617525507393  0.20091816579552804  1.0000
  F   F10       1.0  0.6294503738028185  0.9285375332711183  0.29908407945447374  1.0000
  F   F11       1.0  0.37054550717436285  0.6696324094737419  0.2990844985387965  1.0000
  F   F12       1.0  0.6294494677859035  0.8303678323381046  0.20091276628659918  1.0000
  F   F13       1.0  0.6294516693886295  0.29908554689489353  0.9285389758422793  1.0000
  F   F14       1.0  0.37054933508546395  0.20091573036682323  0.5714622063735249  1.0000
  F   F15       1.0  0.6294525242930719  0.20091496549944302  0.8303690823067312  1.0000
  F   F16       1.0  0.3705459898528503  0.2990838214329371  0.6696313939107198  1.0000
  F   F17       1.0  0.37054617143535046  0.5714614281338156  0.6696324175564143  1.0000
  F   F18       1.0  0.6294535711190862  0.9285384241671223  0.8303690398818729  1.0000
  F   F19       1.0  0.37054575320970445  0.6696321501470379  0.5714621712380036  1.0000
  F   F20       1.0  0.6294531088849098  0.8303681423854739  0.9285388459702658  1.0000
  F   F21       1.0  0.6294527197742212  0.29908662660078983  0.2009168594211984  1.0000
  F   F22       1.0  0.3705483909549017  0.20091727262843756  0.2990879588280535  1.0000
  F   F23       1.0  0.6294510123699482  0.2009150996519651  0.29908442540736496  1.0000
  F   F24       1.0  0.37054698543993697  0.29908568666182594  0.20091667968937096  1.0000
