data_image0
_chemical_formula_structural       V4Co2H24C24N4O12
_chemical_formula_sum              "V4 Co2 H24 C24 N4 O12"
_cell_length_a       8.334489603978952
_cell_length_b       8.441866476862119
_cell_length_c       11.105296320647334
_cell_angle_alpha    94.2390633349961
_cell_angle_beta     93.249197235888
_cell_angle_gamma    106.81408549164351

_space_group_name_H-M_alt    "P 1"
_space_group_IT_number       1

loop_
  _space_group_symop_operation_xyz
  'x, y, z'

loop_
  _atom_site_type_symbol
  _atom_site_label
  _atom_site_symmetry_multiplicity
  _atom_site_fract_x
  _atom_site_fract_y
  _atom_site_fract_z
  _atom_site_occupancy
  V   V1        1.0  0.2603017804432356  0.7418826533800954  0.982892245124944  1.0000
  V   V2        1.0  0.7397017536736358  0.25812237563386015  0.017107431991206613  1.0000
  V   V3        1.0  0.42231223429428166  0.0914907934912463  0.1825846240788636  1.0000
  V   V4        1.0  0.5776870525920828  0.9085080135341174  0.8174136294941974  1.0000
  Co  Co1       1.0  0.1847084291537726  0.34316342407527856  0.057442194759374794  1.0000
  Co  Co2       1.0  0.8152906493306986  0.6568428312134459  0.9425528655150686  1.0000
  H   H1        1.0  0.3417893084698207  0.9812985814392334  0.5228973593318713  1.0000
  H   H2        1.0  0.6582072026937027  0.0186989757378484  0.47709980966573073  1.0000
  H   H3        1.0  0.12912698095868794  0.9583616952595051  0.48289770239181706  1.0000
  H   H4        1.0  0.8708678711418687  0.041638346397753906  0.517103139450171  1.0000
  H   H5        1.0  0.36578223905046064  0.5406746616561406  0.5171417758718277  1.0000
  H   H6        1.0  0.6342172281575172  0.4593328450247966  0.4828605742551487  1.0000
  H   H7        1.0  0.25797933723135463  0.7280678156444721  0.6392615151044936  1.0000
  H   H8        1.0  0.7420174584547327  0.27193471705651007  0.3607413470963294  1.0000
  H   H9        1.0  0.043796972887854245  0.7058044243705979  0.5993820715228892  1.0000
  H   H10       1.0  0.9561994497096649  0.29419686320601807  0.40061890465837285  1.0000
  H   H11       1.0  0.448194214375313  0.2202569622515398  0.6645345781998273  1.0000
  H   H12       1.0  0.5518063767262192  0.7797381224817811  0.3354644209810829  1.0000
  H   H13       1.0  0.982192684373615  0.7248441135110751  0.3526444648576827  1.0000
  H   H14       1.0  0.017808173009711905  0.2751559394336382  0.6473539230546521  1.0000
  H   H15       1.0  0.9594249475653528  0.8837103448750554  0.7115972542430455  1.0000
  H   H16       1.0  0.04057480879304622  0.11628598000906011  0.2884017800824097  1.0000
  H   H17       1.0  0.9975956606320368  0.5607356074051637  0.1621096435883445  1.0000
  H   H18       1.0  0.0024079776857774977  0.4392656974771114  0.8378916301771185  1.0000
  H   H19       1.0  0.3599198941047561  0.3755898059286976  0.3192631516552069  1.0000
  H   H20       1.0  0.6400843887950671  0.6244177143786231  0.6807411981388967  1.0000
  H   H21       1.0  0.9574615163517636  0.05412879657274059  0.9008415055822213  1.0000
  H   H22       1.0  0.04253824261246561  0.9458675293560218  0.099158429382058  1.0000
  H   H23       1.0  0.42379325543657853  0.3810219525064014  0.8573802656274124  1.0000
  H   H24       1.0  0.5762080714187833  0.6189756182970783  0.14261890303730954  1.0000
  C   C1        1.0  0.2052398082308642  0.03768445229222551  0.6694992518359371  1.0000
  C   C2        1.0  0.7947630917272976  0.9623143654752512  0.33050095180689  1.0000
  C   C3        1.0  0.17533269018424855  0.6492831602786424  0.452291672903442  1.0000
  C   C4        1.0  0.8246649298216724  0.35071812809297137  0.5477075515975329  1.0000
  C   C5        1.0  0.21563172129449995  0.9368740603084478  0.5544830396159313  1.0000
  C   C6        1.0  0.78436479508067  0.0631234989579212  0.44551593065932593  1.0000
  C   C7        1.0  0.2819687056363521  0.548673613594147  0.44026515213381145  1.0000
  C   C8        1.0  0.718035572051818  0.45133390462389394  0.5597373963826371  1.0000
  C   C9        1.0  0.17114954149812436  0.7494143033514007  0.5687282746139601  1.0000
  C   C10       1.0  0.8288473479656133  0.2505845010393344  0.431272581680858  1.0000
  C   C11       1.0  0.33531006614481385  0.1807619212146676  0.7129586929288507  1.0000
  C   C12       1.0  0.6646868207131008  0.8192368821314203  0.2870412627271435  1.0000
  C   C13       1.0  0.07019791036378113  0.6513622568846102  0.3498240300769453  1.0000
  C   C14       1.0  0.9298045305456312  0.3486390472026741  0.6501789953688046  1.0000
  C   C15       1.0  0.06621372218537405  0.9929524875663631  0.7385352760649297  1.0000
  C   C16       1.0  0.9337880871711518  0.007042606319075198  0.2614691765463206  1.0000
  C   C17       1.0  0.07764214471057328  0.5593118502045583  0.2427338687387817  1.0000
  C   C18       1.0  0.9223598084860357  0.4406919287114802  0.7572620714827849  1.0000
  C   C19       1.0  0.28089626249133204  0.4577609438244679  0.3300701387299938  1.0000
  C   C20       1.0  0.719108943717629  0.5422416059325246  0.6699303687359119  1.0000
  C   C21       1.0  0.06363970695388592  0.0876572373622295  0.8454887669698365  1.0000
  C   C22       1.0  0.936362454644609  0.9123390932904413  0.1545103665503476  1.0000
  C   C23       1.0  0.3233436412197078  0.2706162974143851  0.8206107243535925  1.0000
  C   C24       1.0  0.6766600856641034  0.7293812770683558  0.1793867422282034  1.0000
  N   N1        1.0  0.18954713130419523  0.22476901875947422  0.8866519211272318  1.0000
  N   N2        1.0  0.8104505902968527  0.7752285444358121  0.11334799938421723  1.0000
  N   N3        1.0  0.18127617130090104  0.4635193404509295  0.2316839738932757  1.0000
  N   N4        1.0  0.8187333785220334  0.5364857040290546  0.7683168518485316  1.0000
  O   O1        1.0  0.28773799750705104  0.5550010950727254  0.003336578231177608  1.0000
  O   O2        1.0  0.7122639556895508  0.4450026838433061  0.9966593619903817  1.0000
  O   O3        1.0  0.36382742212999386  0.8240400482272393  0.8552168569886548  1.0000
  O   O4        1.0  0.6361725041267264  0.17596497213389029  0.1447826713353919  1.0000
  O   O5        1.0  0.9464336994332143  0.2799787732453892  0.04236730837384071  1.0000
  O   O6        1.0  0.05356681091979001  0.7200200450213784  0.9576381999072225  1.0000
  O   O7        1.0  0.41821875894245863  0.10183682260675651  0.3295073055703597  1.0000
  O   O8        1.0  0.5817753417693156  0.898160726712497  0.6704879629548444  1.0000
  O   O9        1.0  0.343317545112285  0.8782336194214792  0.11561360791082362  1.0000
  O   O10       1.0  0.6566805521831541  0.1217651899428134  0.8843890992590175  1.0000
  O   O11       1.0  0.30405843008590244  0.20480600299165994  0.1250179968745755  1.0000
  O   O12       1.0  0.6959384567720123  0.7951928003544352  0.8749819587814188  1.0000
