data_image0
_chemical_formula_structural       Cd2H44C74Br8N4O8
_chemical_formula_sum              "Cd2 H44 C74 Br8 N4 O8"
_cell_length_a       8.97449358158789
_cell_length_b       16.048145701989196
_cell_length_c       17.299699230158243
_cell_angle_alpha    115.87175670598934
_cell_angle_beta     90.64415748689157
_cell_angle_gamma    92.10701405807094

_space_group_name_H-M_alt    "P 1"
_space_group_IT_number       1

loop_
  _space_group_symop_operation_xyz
  'x, y, z'

loop_
  _atom_site_type_symbol
  _atom_site_label
  _atom_site_symmetry_multiplicity
  _atom_site_fract_x
  _atom_site_fract_y
  _atom_site_fract_z
  _atom_site_occupancy
  Cd  Cd1       1.0  0.5395970248368728  0.7355797074264248  0.980506417199614  1.0000
  Cd  Cd2       1.0  0.46040291483738827  0.26442606536506474  0.01948909978827369  1.0000
  H   H1        1.0  0.6341181896648679  0.5344889122429066  0.9530300170791153  1.0000
  H   H2        1.0  0.3658831984552222  0.4655217598797847  0.046971501119308784  1.0000
  H   H3        1.0  0.7838497902134023  0.40320087168473157  0.8570821408411362  1.0000
  H   H4        1.0  0.21615696471363322  0.5968085095719645  0.14292758563217944  1.0000
  H   H5        1.0  0.9328730156366023  0.4209641779647556  0.7410752592146894  1.0000
  H   H6        1.0  0.0671329527133011  0.5790347771327333  0.2589280161082499  1.0000
  H   H7        1.0  0.7677128589882116  0.6956457671914223  0.8305220214988724  1.0000
  H   H8        1.0  0.2323000337525941  0.3043551761466857  0.1694751673667056  1.0000
  H   H9        1.0  0.9013119023726192  0.6048400416687018  0.557721105647218  1.0000
  H   H10       1.0  0.0986929325891452  0.39515893555197584  0.44228390244088445  1.0000
  H   H11       1.0  0.04543755078204012  0.6545315160595069  0.46272069855689335  1.0000
  H   H12       1.0  0.9545626491598043  0.34546465293488643  0.5372796862402468  1.0000
  H   H13       1.0  0.34879734310277405  0.8197153440295751  0.6739618859317816  1.0000
  H   H14       1.0  0.6512140308485996  0.1802807755979572  0.3260356899807278  1.0000
  H   H15       1.0  0.20853968560214042  0.7651459421368758  0.7679346793442009  1.0000
  H   H16       1.0  0.7914728630913999  0.2348508623607231  0.23206260051434674  1.0000
  H   H17       1.0  0.27882793954250223  0.5653158590344705  0.4109455992514414  1.0000
  H   H18       1.0  0.7211687297779719  0.4346782622243239  0.5890562544582566  1.0000
  H   H19       1.0  0.7564828089838331  0.5381313923059922  0.3919917955849997  1.0000
  H   H20       1.0  0.2435208005020826  0.4618654516850925  0.6080077313812569  1.0000
  H   H21       1.0  0.7973418575126985  0.7097323097943901  0.4671637950568056  1.0000
  H   H22       1.0  0.20265528972208097  0.29026730929462025  0.5328361950768896  1.0000
  H   H23       1.0  0.7796251727756102  0.8922726332928621  0.5533016314915928  1.0000
  H   H24       1.0  0.2203716274271059  0.10772209871475981  0.4466935284198002  1.0000
  H   H25       1.0  0.7047961701552694  0.054165463725226515  0.6308505573312077  1.0000
  H   H26       1.0  0.2952050646921123  0.945828534667797  0.3691414615644463  1.0000
  H   H27       1.0  0.23955236522726858  0.9619367851070705  0.5986277944692873  1.0000
  H   H28       1.0  0.7604506177743815  0.0380647962235372  0.40136377671744583  1.0000
  H   H29       1.0  0.35499972395381013  0.7123026375589776  0.32937842566808234  1.0000
  H   H30       1.0  0.6449935648121611  0.28769002608924404  0.6706164609038296  1.0000
  H   H31       1.0  0.21666897161951942  0.751727932015257  0.22520782925321478  1.0000
  H   H32       1.0  0.7833077695098112  0.24826758209676572  0.7747926618603602  1.0000
  H   H33       1.0  0.8913943959576257  0.887141473209155  0.41574583382464425  1.0000
  H   H34       1.0  0.10860273507731932  0.1128589147445282  0.5842608197763682  1.0000
  H   H35       1.0  0.03362208876490061  0.8520422104757657  0.5211536619697341  1.0000
  H   H36       1.0  0.966377127430377  0.14795607412318654  0.4788504427234629  1.0000
  H   H37       1.0  0.7740613163909702  0.7885874675016782  0.13884634332294624  1.0000
  H   H38       1.0  0.22593794158363076  0.2114100207341849  0.8611487749002082  1.0000
  H   H39       1.0  0.6353978677067856  0.9392692374604864  0.010593951198039525  1.0000
  H   H40       1.0  0.3646085977420483  0.060735194843403006  0.9894057182968511  1.0000
  H   H41       1.0  0.7778983076830671  0.0826333168369331  0.1138236164357451  1.0000
  H   H42       1.0  0.22210241451189458  0.9173698052217958  0.8861812627118726  1.0000
  H   H43       1.0  0.9274128686979568  0.0750958532235799  0.23580234366868072  1.0000
  H   H44       1.0  0.07258075729512113  0.9249024594961031  0.7642034558421714  1.0000
  C   C1        1.0  0.7012498077521627  0.5397568173510479  0.9029210325366465  1.0000
  C   C2        1.0  0.2987579215417639  0.4602497069348247  0.09708063357601304  1.0000
  C   C3        1.0  0.785383618725305  0.46678365456025966  0.8490245437079269  1.0000
  C   C4        1.0  0.2146252755058313  0.5332243165857521  0.15098290906741607  1.0000
  C   C5        1.0  0.867167071253114  0.476725758185765  0.7855615373786834  1.0000
  C   C6        1.0  0.1328380250478602  0.5232759438889191  0.21444050629403225  1.0000
  C   C7        1.0  0.8639854159921825  0.56043910739227  0.7789010967157709  1.0000
  C   C8        1.0  0.1360208900101156  0.439563993420336  0.22110266836487116  1.0000
  C   C9        1.0  0.7763411951159966  0.6304009441864621  0.8351230841675845  1.0000
  C   C10       1.0  0.22366410838041162  0.3696027894981596  0.16487571987991598  1.0000
  C   C11       1.0  0.9516236940227785  0.5714961990323317  0.711470680490031  1.0000
  C   C12       1.0  0.04838120488771842  0.4285027094423271  0.2885285200912762  1.0000
  C   C13       1.0  0.04581763563491138  0.6849507226505976  0.6684421434166127  1.0000
  C   C14       1.0  0.9541872918398725  0.315048906566524  0.331559655377248  1.0000
  C   C15       1.0  0.998669573607593  0.6522924246571195  0.5829243027236048  1.0000
  C   C16       1.0  0.0013352200001435148  0.34770584557030315  0.4170792686532965  1.0000
  C   C17       1.0  0.07973182205302722  0.6814154974482778  0.5302172102306885  1.0000
  C   C18       1.0  0.9202674674706441  0.3185834597709204  0.4697854274203125  1.0000
  C   C19       1.0  0.20487641490908  0.7429103423632809  0.562168460088131  1.0000
  C   C20       1.0  0.7951272137614466  0.2570864810040021  0.4378293246260868  1.0000
  C   C21       1.0  0.2499056348803563  0.773583601783173  0.6482663350410293  1.0000
  C   C22       1.0  0.7500993309636642  0.22641598618633202  0.35173197924876126  1.0000
  C   C23       1.0  0.1709880865014952  0.7442923841585272  0.7016665538583172  1.0000
  C   C24       1.0  0.8290222623492981  0.25570514408030226  0.29833330523904084  1.0000
  C   C25       1.0  0.29857542018398686  0.7667718730116775  0.5007509361923965  1.0000
  C   C26       1.0  0.7014237772519608  0.23322492885473173  0.4992444875716019  1.0000
  C   C27       1.0  0.4153238027490573  0.693099205803911  0.46382292227556843  1.0000
  C   C28       1.0  0.5846767732144117  0.3069010676579822  0.5361744677752045  1.0000
  C   C29       1.0  0.39102386421739505  0.597416806705219  0.4223063933458918  1.0000
  C   C30       1.0  0.6089732160838679  0.4025821328889379  0.5776944830793198  1.0000
  C   C31       1.0  0.5160205590858383  0.5432196084865808  0.3976243422291646  1.0000
  C   C32       1.0  0.4839773297409096  0.4567751495200696  0.6023731501718218  1.0000
  C   C33       1.0  0.6615767894306472  0.582430873274312  0.4125283972830048  1.0000
  C   C34       1.0  0.3384200043772054  0.4175638656079174  0.5874673433790606  1.0000
  C   C35       1.0  0.6840977370954989  0.6788057922251057  0.4546767057227613  1.0000
  C   C36       1.0  0.31589923832829214  0.32119100576547055  0.5453181183167999  1.0000
  C   C37       1.0  0.5608853640730161  0.7342875887519824  0.481535550559265  1.0000
  C   C38       1.0  0.439112983483419  0.2657126877086783  0.5184618205177501  1.0000
  C   C39       1.0  0.551132138116472  0.8346671260528639  0.5302549819370413  1.0000
  C   C40       1.0  0.4488650824467015  0.16533316565639214  0.4697435411544575  1.0000
  C   C41       1.0  0.6615437080428136  0.9062234731541354  0.5619464728750075  1.0000
  C   C42       1.0  0.33845638062668837  0.09377056111128472  0.43804844028716877  1.0000
  C   C43       1.0  0.6200452737866939  0.997804997671942  0.6064042859829827  1.0000
  C   C44       1.0  0.37996274476438435  0.0021911402029531025  0.39359442297026004  1.0000
  C   C45       1.0  0.4688845353879216  0.016157565411610605  0.618950077114022  1.0000
  C   C46       1.0  0.531123575676169  0.9838392244597217  0.38104542254498613  1.0000
  C   C47       1.0  0.3565871419727956  0.9458140779541324  0.588376910271741  1.0000
  C   C48       1.0  0.6434167829960985  0.0541861841350055  0.41161992748897813  1.0000
  C   C49       1.0  0.39959152024879774  0.8551223243883826  0.5441847359213413  1.0000
  C   C50       1.0  0.6004033030811443  0.14487589746208585  0.4558135233175521  1.0000
  C   C51       1.0  0.2036846073498495  0.7786027517164841  0.4323716644368503  1.0000
  C   C52       1.0  0.7963104453449291  0.22139822936099313  0.567626534140061  1.0000
  C   C53       1.0  0.2528246071832926  0.7497161811117368  0.34858072779854166  1.0000
  C   C54       1.0  0.7471667111047751  0.2502799655047241  0.6514166773501914  1.0000
  C   C55       1.0  0.1752174467127361  0.7708549958718578  0.2895202795259735  1.0000
  C   C56       1.0  0.8247671957338838  0.22914190110718383  0.7104814091661  1.0000
  C   C57       1.0  0.046247547784488995  0.819940497787016  0.3146784999774753  1.0000
  C   C58       1.0  0.9537451775953798  0.18005984116738466  0.6853234696705928  1.0000
  C   C59       1.0  0.9929123991317752  0.8488597064687156  0.39738726927785717  1.0000
  C   C60       1.0  0.0070827042966996965  0.15114272296828093  0.602616706474855  1.0000
  C   C61       1.0  0.07287477793184392  0.8282513298802672  0.4558437265968964  1.0000
  C   C62       1.0  0.9271200070288544  0.17174693321781123  0.5441580171460743  1.0000
  C   C63       1.0  0.9512486312485394  0.9262144668200492  0.26644382168300507  1.0000
  C   C64       1.0  0.0487382937488974  0.073783120404272  0.7335581611926616  1.0000
  C   C65       1.0  0.8650495737322501  0.9306541951411307  0.19464826845069183  1.0000
  C   C66       1.0  0.13495065178908314  0.0693419463548537  0.8053497933437372  1.0000
  C   C67       1.0  0.7805759734670802  0.8543766500144943  0.13457141880932974  1.0000
  C   C68       1.0  0.2194189709401542  0.1456229445748747  0.8654262293478967  1.0000
  C   C69       1.0  0.702636265117988  0.9397059738882306  0.06382033949807206  1.0000
  C   C70       1.0  0.29737136867813524  0.06029915016032561  0.9361796146935434  1.0000
  C   C71       1.0  0.7832145007978185  0.018809918193262797  0.12127842634590283  1.0000
  C   C72       1.0  0.21678739613930992  0.9811938887355326  0.8787261567477602  1.0000
  C   C73       1.0  0.8649408398881492  0.014569913095989801  0.18817350621342405  1.0000
  C   C74       1.0  0.1350584909895503  0.9854297511164631  0.8118305681487784  1.0000
  Br  Br1       1.0  0.4422369059670785  0.6716258455366313  0.08215669369575795  1.0000
  Br  Br2       1.0  0.5577221972094648  0.32839940881417823  0.9178473301678097  1.0000
  Br  Br3       1.0  0.45276118978053864  0.8032827568303065  0.8800185684951745  1.0000
  Br  Br4       1.0  0.547243098420239  0.19672162347553276  0.11997643602053644  1.0000
  Br  Br5       1.0  0.4880469609404302  0.41144974453924726  0.3425564974024909  1.0000
  Br  Br6       1.0  0.5119590483382126  0.588551420907841  0.6574586378128873  1.0000
  Br  Br7       1.0  0.4129588993461724  0.14135497025232266  0.6804273680246241  1.0000
  Br  Br8       1.0  0.587047215660519  0.8586453300856576  0.31957297321392286  1.0000
  N   N1        1.0  0.6966870150281039  0.6199611529236578  0.8957402722779338  1.0000
  N   N2        1.0  0.3033185400025644  0.3800460676050364  0.10426165007081784  1.0000
  N   N3        1.0  0.7010170769147878  0.8591808030830567  0.07065731805514021  1.0000
  N   N4        1.0  0.29898495090459676  0.1408236145945665  0.9293405712402107  1.0000
  O   O1        1.0  0.006562145230795109  0.5075965246967513  0.651475236495159  1.0000
  O   O2        1.0  0.9934359857505441  0.49240097878769973  0.34852103374248605  1.0000
  O   O3        1.0  0.9642931150986346  0.6620874886603404  0.7261900950002984  1.0000
  O   O4        1.0  0.0357163297288636  0.3379128209286932  0.2738114362002407  1.0000
  O   O5        1.0  0.9687283175945608  0.836452559424302  0.2519622433530415  1.0000
  O   O6        1.0  0.03126209667021129  0.1635463685423559  0.7480368338988657  1.0000
  O   O7        1.0  0.0012101663806020997  0.9938623757397452  0.32956998166690715  1.0000
  O   O8        1.0  0.9987758004497703  0.006137299590719204  0.6704333981020982  1.0000
