data_image0
_chemical_formula_structural       Gd2CuH18C14S2N2O22
_chemical_formula_sum              "Gd2 Cu1 H18 C14 S2 N2 O22"
_cell_length_a       6.3141998679907205
_cell_length_b       9.88391533567538
_cell_length_c       9.940311267154097
_cell_angle_alpha    95.45659899615201
_cell_angle_beta     92.89388937362416
_cell_angle_gamma    98.52843107600307

_space_group_name_H-M_alt    "P 1"
_space_group_IT_number       1

loop_
  _space_group_symop_operation_xyz
  'x, y, z'

loop_
  _atom_site_type_symbol
  _atom_site_label
  _atom_site_symmetry_multiplicity
  _atom_site_fract_x
  _atom_site_fract_y
  _atom_site_fract_z
  _atom_site_occupancy
  Gd  Gd1       1.0  0.06982952952262166  0.46579830919383614  0.7433058518552187  1.0000
  Gd  Gd2       1.0  0.9301655033755125  0.53421998383034  0.25669228055883053  1.0000
  Cu  Cu1       1.0  0.5000039671075311  0.9999942447399233  0.999998019535866  1.0000
  H   H1        1.0  0.3337900074564998  0.7879695475285331  0.78822004485297  1.0000
  H   H2        1.0  0.6662444351246463  0.21202362368133265  0.2117765220639711  1.0000
  H   H3        1.0  0.46841080237293653  0.2145618428675603  0.8031487391464864  1.0000
  H   H4        1.0  0.531581121018405  0.7854327678851047  0.19684913493684056  1.0000
  H   H5        1.0  0.1907434302000154  0.9818522827274591  0.43171887166489137  1.0000
  H   H6        1.0  0.8092364844746598  0.018145544255610005  0.5682848094868547  1.0000
  H   H7        1.0  0.6069478068906378  0.46599624187911803  0.6432645229113376  1.0000
  H   H8        1.0  0.3930416746695896  0.5339942559122618  0.3567248251587856  1.0000
  H   H9        1.0  0.7200612839326863  0.6231709412993496  0.640458812259368  1.0000
  H   H10       1.0  0.27992289055646313  0.37682478008829173  0.3595428511098646  1.0000
  H   H11       1.0  0.5572188257859735  0.5566669876483485  0.8219277602152246  1.0000
  H   H12       1.0  0.44276962355255006  0.44332043857273357  0.178069315429596  1.0000
  H   H13       1.0  0.4290595807675642  0.5865820936087613  0.9572639396672571  1.0000
  H   H14       1.0  0.5709780650497223  0.41325440784767414  0.0427759865442781  1.0000
  H   H15       1.0  0.20096197184211206  0.09454572158576009  0.0991745510615303  1.0000
  H   H16       1.0  0.7991110677649756  0.9055079742306871  0.9008683865581872  1.0000
  H   H17       1.0  0.2671180693404906  0.2015798220121283  0.9950586883113318  1.0000
  H   H18       1.0  0.732878866916778  0.7984198698241016  0.004921750175690012  1.0000
  C   C1        1.0  0.3276892963319469  0.879075864278498  0.7360166377005939  1.0000
  C   C2        1.0  0.6723250968419877  0.12091956107882137  0.2639802705134002  1.0000
  C   C3        1.0  0.40078267299807635  0.11746335431914896  0.7451800291902586  1.0000
  C   C4        1.0  0.5992156540532676  0.8825322370351075  0.2548252537757634  1.0000
  C   C5        1.0  0.31542524995850835  0.2463112789456972  0.5477683515230254  1.0000
  C   C6        1.0  0.6845656323734772  0.7536854038541136  0.452229664367664  1.0000
  C   C7        1.0  0.17002023655021492  0.727685176472974  0.528817810982801  1.0000
  C   C8        1.0  0.8299735703317237  0.27232177745837294  0.47117320863553397  1.0000
  C   C9        1.0  0.3214672711507376  0.11467303653580531  0.6111543770050574  1.0000
  C   C10       1.0  0.6785279050695436  0.8853287727043906  0.3888523365067797  1.0000
  C   C11       1.0  0.24867959102817128  0.867502008272758  0.6012270883816199  1.0000
  C   C12       1.0  0.7513234258909164  0.13249354148153705  0.3987804062404053  1.0000
  C   C13       1.0  0.24771097618227583  0.987264437863693  0.5376114275372217  1.0000
  C   C14       1.0  0.7522807536381676  0.012730185100423301  0.46239348241235223  1.0000
  S   S1        1.0  0.9227416675738526  0.28150122337622463  0.9659052678907473  1.0000
  S   S2        1.0  0.077252461166239  0.7184954241308076  0.0340898669010343  1.0000
  N   N1        1.0  0.4022058032098243  0.001420121927601801  0.805850605201897  1.0000
  N   N2        1.0  0.5977977329187352  0.9985764406350056  0.1941479477781556  1.0000
  O   O1        1.0  0.7898218129578111  0.368067408333509  0.8923894378201281  1.0000
  O   O2        1.0  0.21013413800229588  0.6319048590455764  0.10760385717341589  1.0000
  O   O3        1.0  0.1357365366461778  0.2986711695351616  0.9002259699366347  1.0000
  O   O4        1.0  0.8642737744196649  0.7013769047508231  0.09979261494311939  1.0000
  O   O5        1.0  0.8287835575711214  0.13561521904655643  0.9523369945514659  1.0000
  O   O6        1.0  0.17127694807143695  0.8643725209701427  0.04764109397034838  1.0000
  O   O7        1.0  0.3263647771290791  0.1473619291005335  0.064528777697312  1.0000
  O   O8        1.0  0.6736798549085847  0.8526620509412409  0.9354528982812269  1.0000
  O   O9        1.0  0.9616480707307317  0.335357358259337  0.11085735427690221  1.0000
  O   O10       1.0  0.038286434054434375  0.6646305894368325  0.8891434694805938  1.0000
  O   O11       1.0  0.33692548332036404  0.3587659606873287  0.6277019879339178  1.0000
  O   O12       1.0  0.6630732310963622  0.6412378859780148  0.3723110995362688  1.0000
  O   O13       1.0  0.11704063070582287  0.7207767174786213  0.4030419445986837  1.0000
  O   O14       1.0  0.8829504918889696  0.27923337297218603  0.5969613156475759  1.0000
  O   O15       1.0  0.1620340744936897  0.6243089283261725  0.5961598052040741  1.0000
  O   O16       1.0  0.8379507236196346  0.37568884484547727  0.40383905173744244  1.0000
  O   O17       1.0  0.2887157699312866  0.2378198882712894  0.42079986098151073  1.0000
  O   O18       1.0  0.7112802814304401  0.7621798593887091  0.5792127414654544  1.0000
  O   O19       1.0  0.7240110290871228  0.5358234078041022  0.6877746520901056  1.0000
  O   O20       1.0  0.275984266359174  0.46416497110669036  0.3122137504574241  1.0000
  O   O21       1.0  0.41496477756066946  0.5520785069632622  0.8614614840467496  1.0000
  O   O22       1.0  0.585012381382853  0.4480594867998349  0.1384963625469453  1.0000
