data_image0
_chemical_formula_structural       Cd2H16C16Br4N8O4
_chemical_formula_sum              "Cd2 H16 C16 Br4 N8 O4"
_cell_length_a       3.9431254211156133
_cell_length_b       7.604590369205939
_cell_length_c       20.399033599227167
_cell_angle_alpha    89.99915873001393
_cell_angle_beta     91.04193289148009
_cell_angle_gamma    90.00014541944444

_space_group_name_H-M_alt    "P 1"
_space_group_IT_number       1

loop_
  _space_group_symop_operation_xyz
  'x, y, z'

loop_
  _atom_site_type_symbol
  _atom_site_label
  _atom_site_symmetry_multiplicity
  _atom_site_fract_x
  _atom_site_fract_y
  _atom_site_fract_z
  _atom_site_occupancy
  Cd  Cd1       1.0  0.49999102083882724  0.5000002922914036  0.4999979672994784  1.0000
  Cd  Cd2       1.0  0.5000008020083156  3.665314594e-07  1.2128434291993676e-06  1.0000
  H   H1        1.0  0.19838087296912482  0.5042282142311265  0.3454756419090756  1.0000
  H   H2        1.0  0.8016536474261001  0.0042265487546658  0.1545311136246426  1.0000
  H   H3        1.0  0.8016010524599296  0.49577237031272864  0.6545222530297538  1.0000
  H   H4        1.0  0.19836862649627557  0.995771405745991  0.8454709345112833  1.0000
  H   H5        1.0  0.6893224004675956  0.10737537128270698  0.45189835650787563  1.0000
  H   H6        1.0  0.31070744194721556  0.607377157123551  0.048107810524157905  1.0000
  H   H7        1.0  0.3106672210921245  0.8926291582807477  0.5480981117610142  1.0000
  H   H8        1.0  0.6892996141118887  0.392626057348565  0.9518941504061759  1.0000
  H   H9        1.0  0.5165601900978274  0.8844957504469805  0.36491236160157575  1.0000
  H   H10       1.0  0.48348319070000656  0.38449964907505324  0.135095805689879  1.0000
  H   H11       1.0  0.4834445912109402  0.11550877910642751  0.6350851740285821  1.0000
  H   H12       1.0  0.5165213290443518  0.6155022504002688  0.8649061407121366  1.0000
  H   H13       1.0  0.16789836010662632  0.9753239635061917  0.2767061724992317  1.0000
  H   H14       1.0  0.8321350776314204  0.4753248759288483  0.22330389448205076  1.0000
  H   H15       1.0  0.8321038267555424  0.024675306045281804  0.7232923287832379  1.0000
  H   H16       1.0  0.16786693485531856  0.5246730785689806  0.7766975473138089  1.0000
  C   C1        1.0  0.2730016263780329  0.366307547943812  0.3493662058193934  1.0000
  C   C2        1.0  0.7270340758875663  0.866307193761472  0.15064201653339643  1.0000
  C   C3        1.0  0.7269904442973996  0.6336917216111077  0.6506317472505572  1.0000
  C   C4        1.0  0.27297047291642684  0.13369339072836786  0.8493594397872145  1.0000
  C   C5        1.0  0.5425143755117932  0.14400926417043544  0.4083361107392919  1.0000
  C   C6        1.0  0.4575077947034814  0.6440174279235933  0.0916732445871205  1.0000
  C   C7        1.0  0.4574751879135661  0.8559900053926557  0.5916613377137949  1.0000
  C   C8        1.0  0.5424967250383615  0.3559831565565048  0.908328701818462  1.0000
  C   C9        1.0  0.15819551060725703  0.2452158125302191  0.2989874446226395  1.0000
  C   C10       1.0  0.8418296121929388  0.7452228341176906  0.2010208862503262  1.0000
  C   C11       1.0  0.8418013711156362  0.7547742519736501  0.7010149483007738  1.0000
  C   C12       1.0  0.1581925454858606  0.2547777503344619  0.7989831222183525  1.0000
  C   C13       1.0  0.4488715906704854  0.0228951192061473  0.3614956584649534  1.0000
  C   C14       1.0  0.5511705810387325  0.5229041930843935  0.1385115294785209  1.0000
  C   C15       1.0  0.5511279726980404  0.9771067803049864  0.6385042985334124  1.0000
  C   C16       1.0  0.4488364750178491  0.4770977063924988  0.8614904314553868  1.0000
  Br  Br1       1.0  0.9867720553316345  0.7169982296449859  0.44885285905121464  1.0000
  Br  Br2       1.0  0.013225786627494098  0.2170047672862125  0.05114321288883869  1.0000
  Br  Br3       1.0  0.013217624334785695  0.28299709497138553  0.5511426290727002  1.0000
  Br  Br4       1.0  0.9867763130608012  0.7830010772121556  0.9488567586307113  1.0000
  N   N1        1.0  0.44852801648043794  0.31551494871011004  0.4016974367606281  1.0000
  N   N2        1.0  0.551510056844869  0.8155229870825951  0.0983105854948789  1.0000
  N   N3        1.0  0.5514715468830501  0.6844843208105756  0.5983025202448644  1.0000
  N   N4        1.0  0.44849959364572806  0.18447759742012693  0.9016904098045374  1.0000
  N   N5        1.0  0.2618967182047314  0.07379160289961109  0.3087492834615517  1.0000
  N   N6        1.0  0.7381378358524131  0.5737962294726843  0.1912610154511185  1.0000
  N   N7        1.0  0.738095410587455  0.9262037216891131  0.6912476894491635  1.0000
  N   N8        1.0  0.26186408945038403  0.42620303999115094  0.8087418965960751  1.0000
  O   O1        1.0  0.9716934239744932  0.28391373729156305  0.2503628698698961  1.0000
  O   O2        1.0  0.028326570819651  0.7839189530762383  0.24964865265705072  1.0000
  O   O3        1.0  0.028281008761467795  0.7160842172960856  0.7496330211405252  1.0000
  O   O4        1.0  0.9716907757840119  0.2160763714795237  0.7503509159973873  1.0000
