data_image0
_chemical_formula_structural       Cd4B20H36C8N8O36
_chemical_formula_sum              "Cd4 B20 H36 C8 N8 O36"
_cell_length_a       6.672532883702676
_cell_length_b       11.277790405285375
_cell_length_c       14.354023726004895
_cell_angle_alpha    90.00009140053254
_cell_angle_beta     90.00002377247583
_cell_angle_gamma    92.02608320989964

_space_group_name_H-M_alt    "P 1"
_space_group_IT_number       1

loop_
  _space_group_symop_operation_xyz
  'x, y, z'

loop_
  _atom_site_type_symbol
  _atom_site_label
  _atom_site_symmetry_multiplicity
  _atom_site_fract_x
  _atom_site_fract_y
  _atom_site_fract_z
  _atom_site_occupancy
  Cd  Cd1       1.0  0.8873049111868949  0.2912322079398351  0.2673803463123221  1.0000
  Cd  Cd2       1.0  0.6126974694454076  0.20876623440305758  0.7673808353614433  1.0000
  Cd  Cd3       1.0  0.1126932542135748  0.7087670695982881  0.7326201203854553  1.0000
  Cd  Cd4       1.0  0.3873066927538956  0.7912330847383869  0.23261893466815314  1.0000
  B   B1        1.0  0.29710892736232347  0.42781189781975143  0.44199831391564  1.0000
  B   B2        1.0  0.2028942577847914  0.0721860034967463  0.9420000402532553  1.0000
  B   B3        1.0  0.7028936647452682  0.5721856365362328  0.5580014561126846  1.0000
  B   B4        1.0  0.7971114036143162  0.9278133260457083  0.05799972977649051  1.0000
  B   B5        1.0  0.42114308603480305  0.3275586191554893  0.30597925878068116  1.0000
  B   B6        1.0  0.07885399595814849  0.17243985136347115  0.8059796955278105  1.0000
  B   B7        1.0  0.5788535447199052  0.6724397607893949  0.6940212079163859  1.0000
  B   B8        1.0  0.9211470969500012  0.8275576725922066  0.1940207711691357  1.0000
  B   B9        1.0  0.1982500906034872  0.48587188415375243  0.2818446421036073  1.0000
  B   B10       1.0  0.3017514638301931  0.014126568531189302  0.781848403410315  1.0000
  B   B11       1.0  0.801749538549373  0.5141265165903164  0.7181530379186827  1.0000
  B   B12       1.0  0.6982541975703566  0.9858727610141005  0.21815415329449916  1.0000
  B   B13       1.0  0.8998320229272634  0.6070675299686954  0.22753666730169195  1.0000
  B   B14       1.0  0.6001671190381754  0.8929290739241227  0.7275387804723084  1.0000
  B   B15       1.0  0.10016600068792055  0.39292819879768354  0.7724610127187648  1.0000
  B   B16       1.0  0.3998340093166631  0.10706933722520519  0.27246307956273347  1.0000
  B   B17       1.0  0.5455853006454133  0.5234099490797279  0.24155425352845583  1.0000
  B   B18       1.0  0.9544123921785611  0.9765875600854415  0.7415544487313426  1.0000
  B   B19       1.0  0.4544142576166195  0.47658667728200743  0.7584455164990092  1.0000
  B   B20       1.0  0.045587201530160805  0.0234099534699368  0.2584467146342179  1.0000
  H   H1        1.0  0.33062512003127853  0.3832910197474107  0.5738567862554333  1.0000
  H   H2        1.0  0.16938392624759757  0.11671238547109651  0.073857428937238  1.0000
  H   H3        1.0  0.669383468876596  0.6167065562147371  0.42614507377977173  1.0000
  H   H4        1.0  0.8306202005042919  0.8832860464752912  0.9261395544167287  1.0000
  H   H5        1.0  0.6877156423253722  0.42420374176494857  0.09378936534648832  1.0000
  H   H6        1.0  0.8122792740134412  0.0757996189951839  0.5937876333348486  1.0000
  H   H7        1.0  0.3122827711960737  0.5758017461173424  0.9062097080177125  1.0000
  H   H8        1.0  0.18771589298670927  0.9241996377395055  0.4062114400251033  1.0000
  H   H9        1.0  0.5340458775934848  0.29412065223437617  0.10464754805907012  1.0000
  H   H10       1.0  0.965947444528524  0.20588005861370823  0.6046480994084646  1.0000
  H   H11       1.0  0.46594646823648117  0.7058830196587139  0.8953508286346477  1.0000
  H   H12       1.0  0.0340492571177364  0.7941200957149236  0.3953516706209683  1.0000
  H   H13       1.0  0.5182782348318752  0.37160306225224116  0.9451018285509748  1.0000
  H   H14       1.0  0.9817199398141624  0.12839837158634274  0.445102544343108  1.0000
  H   H15       1.0  0.4817276037955622  0.6284007032485235  0.05489515480653041  1.0000
  H   H16       1.0  0.01827833192381691  0.8716035675277496  0.5548972256875971  1.0000
  H   H17       1.0  0.7815360620652141  0.3790526965724725  0.9341836649373293  1.0000
  H   H18       1.0  0.7184620657511616  0.12094782788579292  0.4341815354715807  1.0000
  H   H19       1.0  0.21846967022652558  0.6209484073558541  0.06581749843107332  1.0000
  H   H20       1.0  0.28153470678665826  0.8790541008265861  0.5658175378902115  1.0000
  H   H21       1.0  0.9689027308929639  0.28732080946763017  0.07449576014719383  1.0000
  H   H22       1.0  0.5310875613960916  0.21267981931132598  0.5744962389129001  1.0000
  H   H23       1.0  0.0310895440469068  0.7126810880445476  0.9255060998892263  1.0000
  H   H24       1.0  0.4689076056047837  0.7873194374247703  0.425504227784586  1.0000
  H   H25       1.0  0.8097789650920361  0.1752084570661125  0.10258048230793551  1.0000
  H   H26       1.0  0.6902159249668214  0.32479403436735055  0.6025811327019072  1.0000
  H   H27       1.0  0.1902149508307431  0.8247969996145702  0.8974199843933592  1.0000
  H   H28       1.0  0.3097807412334816  0.6752052327690451  0.3974186373269576  1.0000
  H   H29       1.0  0.5546167940689486  0.15129824033348171  0.9565716470748316  1.0000
  H   H30       1.0  0.9453858192409327  0.34870147362796905  0.4565705449475531  1.0000
  H   H31       1.0  0.44538601071438677  0.8487046171758619  0.04342812295688251  1.0000
  H   H32       1.0  0.05461388080565401  0.6512987015040894  0.5434306184197057  1.0000
  H   H33       1.0  0.7935017123245628  0.1724860864992692  0.9315828708090593  1.0000
  H   H34       1.0  0.706499517518445  0.3275171150539791  0.4315816972617412  1.0000
  H   H35       1.0  0.20650112790509215  0.8275176582030144  0.0684175958919866  1.0000
  H   H36       1.0  0.29350025341969393  0.6724848344618337  0.5684187694378835  1.0000
  C   C1        1.0  0.6713472543024109  0.3310157882512286  0.07189370218293333  1.0000
  C   C2        1.0  0.828647639210537  0.1689875280187607  0.571892787857827  1.0000
  C   C3        1.0  0.3286481253742082  0.6689887916382348  0.928106764517942  1.0000
  C   C4        1.0  0.171350526189201  0.8310117495179488  0.4281062855024161  1.0000
  C   C5        1.0  0.6560144024275444  0.3279966999361222  0.9660053601411536  1.0000
  C   C6        1.0  0.8439853286558829  0.17200567397003405  0.4660054087479112  1.0000
  C   C7        1.0  0.34399147164693744  0.6720079527589959  0.03399371322321091  1.0000
  C   C8        1.0  0.15601140843597253  0.8279953675501162  0.5339936646133127  1.0000
  N   N1        1.0  0.8404613548178187  0.2652982613250074  0.1105009693957726  1.0000
  N   N2        1.0  0.6595363292215949  0.23469894385034004  0.6105008033493463  1.0000
  N   N3        1.0  0.15953670424514144  0.7346983546371318  0.8895001939690773  1.0000
  N   N4        1.0  0.3404603369790776  0.7653003232867662  0.389499663348282  1.0000
  N   N5        1.0  0.6547854717430751  0.2087053829394065  0.9243695723776284  1.0000
  N   N6        1.0  0.8452142159346464  0.2912969063642024  0.4243690755495849  1.0000
  N   N7        1.0  0.3452188676860146  0.7912983721631835  0.07563019765479592  1.0000
  N   N8        1.0  0.15478255660426038  0.7087050223502942  0.5756320878185052  1.0000
  O   O1        1.0  0.2659562726725326  0.4432557903116532  0.5371988043598606  1.0000
  O   O2        1.0  0.23404534573167976  0.0567501499960628  0.037204259891851214  1.0000
  O   O3        1.0  0.7340406416454782  0.5567496871625579  0.462793302316527  1.0000
  O   O4        1.0  0.7659605637913031  0.9432553898962299  0.9627996901544479  1.0000
  O   O5        1.0  0.4019421348596949  0.3334088536540565  0.4099396573354853  1.0000
  O   O6        1.0  0.09805648382050688  0.16658806412486626  0.9099407869299939  1.0000
  O   O7        1.0  0.5980559242021712  0.6665877623059586  0.5900594160230668  1.0000
  O   O8        1.0  0.9019461437330419  0.8334103574233396  0.090058983098892  1.0000
  O   O9        1.0  0.23432589628276893  0.36076559011448234  0.2619128728861142  1.0000
  O   O10       1.0  0.2656741027255832  0.1392319244755313  0.761915392484376  1.0000
  O   O11       1.0  0.7656752320706203  0.6392328210320102  0.7380862004738589  1.0000
  O   O12       1.0  0.7343300240277628  0.8607665074736915  0.23808437754465936  1.0000
  O   O13       1.0  0.21190278677449467  0.5095860870384571  0.3847154650815271  1.0000
  O   O14       1.0  0.28810021081668674  0.9904117355784621  0.8847184334063913  1.0000
  O   O15       1.0  0.7880983415785252  0.49041232410732516  0.6152829116096826  1.0000
  O   O16       1.0  0.7119039513837038  0.009587583565114202  0.11528342662950311  1.0000
  O   O17       1.0  0.9956735515045239  0.5056369680155798  0.24807789062410285  1.0000
  O   O18       1.0  0.5043256827679058  0.994361452002032  0.7480815076346945  1.0000
  O   O19       1.0  0.004324543003306806  0.49436053513667144  0.7519211827350106  1.0000
  O   O20       1.0  0.4956769802330497  0.0056378567412381  0.2519210490698285  1.0000
  O   O21       1.0  0.999744711825329  0.7137374687744894  0.2211448082124221  1.0000
  O   O22       1.0  0.5002545298143771  0.786261783706891  0.7211467677024644  1.0000
  O   O23       1.0  0.0002534181284588013  0.2862609215699905  0.7788542651472596  1.0000
  O   O24       1.0  0.49974517023112236  0.21373839142304266  0.2788523056584965  1.0000
  O   O25       1.0  0.6940044602430075  0.6031782660207412  0.21119140303144235  1.0000
  O   O26       1.0  0.8059947001291617  0.8968191918529417  0.7111949528928394  1.0000
  O   O27       1.0  0.3059950271238421  0.3968165859501697  0.7888020969759993  1.0000
  O   O28       1.0  0.19400635733557436  0.10317744491546678  0.2888103904849047  1.0000
  O   O29       1.0  0.35419608380604467  0.5642883684569284  0.23608053503802756  1.0000
  O   O30       1.0  0.14580236757160486  0.9357117825149716  0.736084104220794  1.0000
  O   O31       1.0  0.6458021170392952  0.4357117962712992  0.7639178416540205  1.0000
  O   O32       1.0  0.8542017946280607  0.0642875366271838  0.2639163624775733  1.0000
  O   O33       1.0  0.5866289841363255  0.4147191877309879  0.27648585717592067  1.0000
  O   O34       1.0  0.9133674446337493  0.08528011869913853  0.7764834593726989  1.0000
  O   O35       1.0  0.4133676820654343  0.5852800794082427  0.7235166995280055  1.0000
  O   O36       1.0  0.0866321490749655  0.9147173948562397  0.2235177039928615  1.0000
