data_image0
_chemical_formula_structural       Li6H26C28S4O32
_chemical_formula_sum              "Li6 H26 C28 S4 O32"
_cell_length_a       9.481332101823877
_cell_length_b       10.712196492549475
_cell_length_c       11.422552112636236
_cell_angle_alpha    103.3029976806179
_cell_angle_beta     106.12897978612126
_cell_angle_gamma    110.55166112722004

_space_group_name_H-M_alt    "P 1"
_space_group_IT_number       1

loop_
  _space_group_symop_operation_xyz
  'x, y, z'

loop_
  _atom_site_type_symbol
  _atom_site_label
  _atom_site_symmetry_multiplicity
  _atom_site_fract_x
  _atom_site_fract_y
  _atom_site_fract_z
  _atom_site_occupancy
  Li  Li1       1.0  0.008734895290544376  0.2753225361352349  0.38878274334745555  1.0000
  Li  Li2       1.0  0.9912656473049426  0.7246779479467731  0.6112180002001396  1.0000
  Li  Li3       1.0  0.38399096176350167  0.3624374330905979  0.38838024665448506  1.0000
  Li  Li4       1.0  0.6160074068311161  0.637563093095764  0.6116200125811702  1.0000
  Li  Li5       1.0  0.1403665437103142  0.83786905068915  0.08323521747428235  1.0000
  Li  Li6       1.0  0.8596318231284884  0.16213148155750187  0.9167641672256792  1.0000
  H   H1        1.0  0.0720507766721709  0.47806513400237066  0.2962942244080438  1.0000
  H   H2        1.0  0.9279508494121061  0.521935341148051  0.703705012224127  1.0000
  H   H3        1.0  0.8896402317854782  0.41235134662868217  0.2878528390278277  1.0000
  H   H4        1.0  0.11036087443033438  0.58765021378845  0.7121473961887687  1.0000
  H   H5        1.0  0.14309410309029155  0.7658607181262411  0.8640818218124194  1.0000
  H   H6        1.0  0.8569059161250862  0.23414086334306458  0.1359181712482069  1.0000
  H   H7        1.0  0.27118583073617214  0.9303683446323556  0.9261457936772856  1.0000
  H   H8        1.0  0.7288131032346005  0.06963325182884007  0.07385483176307163  1.0000
  H   H9        1.0  0.6106631285350803  0.31741232256397467  0.530609743875381  1.0000
  H   H10       1.0  0.38933410228396786  0.6825860873138794  0.46938628480809536  1.0000
  H   H11       1.0  0.2978906281541995  0.7830777962510139  0.6741264605208955  1.0000
  H   H12       1.0  0.7021104378213964  0.2169215904436967  0.3258750335136682  1.0000
  H   H13       1.0  0.769054946312096  0.68152971506791  0.8626751716370507  1.0000
  H   H14       1.0  0.23094507641492615  0.3184718542808227  0.13732657049497027  1.0000
  H   H15       1.0  0.032287838970930044  0.6242296220723558  0.14759266951644173  1.0000
  H   H16       1.0  0.9677170008511454  0.37576864044027036  0.8524050542588099  1.0000
  H   H17       1.0  0.21542096415932832  0.1079008962608228  0.8438670901628385  1.0000
  H   H18       1.0  0.7845774061911116  0.8920996238652492  0.15613404360851763  1.0000
  H   H19       1.0  0.5437294880621835  0.037213435317674695  0.7615714171702949  1.0000
  H   H20       1.0  0.4562737431351707  0.9627859395741394  0.23842618849771915  1.0000
  H   H21       1.0  0.07218416454633558  0.8689268271512416  0.4482899586192061  1.0000
  H   H22       1.0  0.9278147291842134  0.13107259558753268  0.5517119256391183  1.0000
  H   H23       1.0  0.6433501575368583  0.33667399741462123  0.030210401725590027  1.0000
  H   H24       1.0  0.35665090843873765  0.6633253892800893  0.9697910923089734  1.0000
  H   H25       1.0  0.19384419113668372  0.24605842670030845  0.7254281968793491  1.0000
  H   H26       1.0  0.8061536138376084  0.753941023150922  0.27457257068730473  1.0000
  C   C1        1.0  0.26350011510718474  0.0531992681743105  0.44979158870246033  1.0000
  C   C2        1.0  0.7364976881112922  0.9468001877372101  0.5502083043284997  1.0000
  C   C3        1.0  0.429672521464056  0.15335172987911957  0.5122524083789911  1.0000
  C   C4        1.0  0.5703263669990334  0.8466477110405249  0.4877468522722451  1.0000
  C   C5        1.0  0.5315225694027178  0.1492783623903193  0.6271503832742694  1.0000
  C   C6        1.0  0.4684784930612338  0.8507210364249784  0.37284936168889976  1.0000
  C   C7        1.0  0.4658652332992546  0.04150888870495348  0.673839406750325  1.0000
  C   C8        1.0  0.5341369161651315  0.9584904890581639  0.3261605803688141  1.0000
  C   C9        1.0  0.30219423525831957  0.9408412205963754  0.6088625515854601  1.0000
  C   C10       1.0  0.6978057874687026  0.059160348752349996  0.3911391905465607  1.0000
  C   C11       1.0  0.20021964864260855  0.9476057838473863  0.49802222008101177  1.0000
  C   C12       1.0  0.7997803285767378  0.05239362995979489  0.5019781572618881  1.0000
  C   C13       1.0  0.7042962377060604  0.2620464645297957  0.6965582962575994  1.0000
  C   C14       1.0  0.29570321437734753  0.737954052724973  0.30344045606263853  1.0000
  C   C15       1.0  0.40583549697666405  0.4307908929528992  0.7556951511649288  1.0000
  C   C16       1.0  0.5941666559993594  0.5692084726896383  0.24430658502560473  1.0000
  C   C17       1.0  0.5749942859832871  0.5171972966753556  0.8247209864452216  1.0000
  C   C18       1.0  0.4250073453684492  0.4828031602941889  0.17528087379404403  1.0000
  C   C19       1.0  0.6593613665228376  0.4832632470339817  0.9264416061334018  1.0000
  C   C20       1.0  0.3406380488319982  0.516735084377778  0.07356015407619762  1.0000
  C   C21       1.0  0.5766951528973081  0.3622240223404845  0.952427511452221  1.0000
  C   C22       1.0  0.4233059130782877  0.6377753643542334  0.04757398258234247  1.0000
  C   C23       1.0  0.4099637948617244  0.2743093741751181  0.8789776899580914  1.0000
  C   C24       1.0  0.5900373148657323  0.7256921741214413  0.12102429432989949  1.0000
  C   C25       1.0  0.3246714902183712  0.3109957841519062  0.7814248904828247  1.0000
  C   C26       1.0  0.6753274017563627  0.6890036446471581  0.21857611923979908  1.0000
  C   C27       1.0  0.8334374182279234  0.5796586027874254  0.005973700303521004  1.0000
  C   C28       1.0  0.16656142648330524  0.4203386765303775  0.9940250700942882  1.0000
  S   S1        1.0  0.1359353029440697  0.05885125718363327  0.3054632839588862  1.0000
  S   S2        1.0  0.8640625020302295  0.9411481926675969  0.6945374836077673  1.0000
  S   S3        1.0  0.29368571255280057  0.4776754975152142  0.6365601425603842  1.0000
  S   S4        1.0  0.7063142681781827  0.5223239041713795  0.3634419838539102  1.0000
  O   O1        1.0  0.19228561188626977  0.020433188024092896  0.2017526260627065  1.0000
  O   O2        1.0  0.8077116714637428  0.9795673531541521  0.7982482655526795  1.0000
  O   O3        1.0  0.9800441949851689  0.38813383040420035  0.28397608076813435  1.0000
  O   O4        1.0  0.019956911230636247  0.6118677300129319  0.716024154448462  1.0000
  O   O5        1.0  0.9687862075390328  0.9601504063531863  0.28059355949562803  1.0000
  O   O6        1.0  0.0312115956794443  0.03984904955834169  0.719406333535332  1.0000
  O   O7        1.0  0.21713787836691273  0.8481513671731874  0.9473972960028262  1.0000
  O   O8        1.0  0.7828610538480307  0.15185023534829875  0.05260245490183029  1.0000
  O   O9        1.0  0.1577927304405264  0.2083516985095457  0.33703819231881477  1.0000
  O   O10       1.0  0.8422078121549605  0.7916487855724625  0.6629625512287803  1.0000
  O   O11       1.0  0.49005661011440793  0.2520294870929618  0.4620594401826991  1.0000
  O   O12       1.0  0.5099417549685725  0.7479710512139803  0.5379390699815687  1.0000
  O   O13       1.0  0.7515209242428826  0.3607913462941497  0.6504029057821725  1.0000
  O   O14       1.0  0.24847904419735306  0.6392080978144818  0.34959309888223805  1.0000
  O   O15       1.0  0.7995641954976236  0.25977936898572557  0.7989466794023201  1.0000
  O   O16       1.0  0.20043473144986018  0.7402222517166377  0.20105044789524845  1.0000
  O   O17       1.0  0.2314316143743723  0.8343565762332829  0.6532857536176594  1.0000
  O   O18       1.0  0.768571665842302  0.1656449420795028  0.3467149659108699  1.0000
  O   O19       1.0  0.3057492275333686  0.6178298381944742  0.7053698895885816  1.0000
  O   O20       1.0  0.6942507514417927  0.3821695695524098  0.2946313622900121  1.0000
  O   O21       1.0  0.12449577759026913  0.3645699722363602  0.5761976279979208  1.0000
  O   O22       1.0  0.8755041996290701  0.6354294415708139  0.42380274934497925  1.0000
  O   O23       1.0  0.3750923928842553  0.4862943914580669  0.5436138542996573  1.0000
  O   O24       1.0  0.6249081514670536  0.5137060865636582  0.4563877637836383  1.0000
  O   O25       1.0  0.6526564378682311  0.6294997572133171  0.7933119972069206  1.0000
  O   O26       1.0  0.347344106483078  0.37050072080840113  0.20668962087636802  1.0000
  O   O27       1.0  0.9084471403397318  0.5461771878035719  0.09985508536434654  1.0000
  O   O28       1.0  0.09155491459765129  0.4538178909970227  0.9001404231051495  1.0000
  O   O29       1.0  0.906803563241546  0.691084516624606  0.9850761347261567  1.0000
  O   O30       1.0  0.09319424173275342  0.3089149332266317  0.014924632840504246  1.0000
  O   O31       1.0  0.3327027168738326  0.15657811559948698  0.9051540497339587  1.0000
  O   O32       1.0  0.6672967369654046  0.8434223955949918  0.09484557712196569  1.0000
