data_image0
_chemical_formula_structural       Cd2H48C32Br4N24
_chemical_formula_sum              "Cd2 H48 C32 Br4 N24"
_cell_length_a       7.700991999
_cell_length_b       8.763921041830853
_cell_length_c       18.2237
_cell_angle_alpha    90.0
_cell_angle_beta     90.0
_cell_angle_gamma    113.53260213601727

_space_group_name_H-M_alt    "P 1"
_space_group_IT_number       1

loop_
  _space_group_symop_operation_xyz
  'x, y, z'

loop_
  _atom_site_type_symbol
  _atom_site_label
  _atom_site_symmetry_multiplicity
  _atom_site_fract_x
  _atom_site_fract_y
  _atom_site_fract_z
  _atom_site_occupancy
  Cd  Cd1       1.0  0.0  0.0  0.5  1.0000
  Cd  Cd2       1.0  0.5000006063028196  0.5000004791505861  0.0  1.0000
  H   H1        1.0  0.4588150908315641  0.1461347053086399  0.5702947260984317  1.0000
  H   H2        1.0  0.04118551547126261  0.353865773841946  0.0702947260984317  1.0000
  H   H3        1.0  0.5411861217740821  0.8538662529925318  0.4297052739015683  1.0000
  H   H4        1.0  0.9588143986003744  0.6461351844592258  0.9297052739015683  1.0000
  H   H5        1.0  0.13726306066758553  0.4336337673869295  0.5476341247935395  1.0000
  H   H6        1.0  0.3627356816037803  0.0663654672166842  0.0476341247935395  1.0000
  H   H7        1.0  0.8627349893725907  0.5663659463672701  0.4523664239424506  1.0000
  H   H8        1.0  0.6372636669704053  0.9336342465375083  0.9523664239424507  1.0000
  H   H9        1.0  0.8104337871876625  0.5203662457803802  0.5847517244028354  1.0000
  H   H10       1.0  0.6895661676893425  0.9796339471243982  0.0847517244028353  1.0000
  H   H11       1.0  0.18956612688397462  0.4796347125207916  0.4152482755971647  1.0000
  H   H12       1.0  0.31043504491629653  0.0203670111767664  0.9152482755971647  1.0000
  H   H13       1.0  0.7108784010033347  0.5720597487585763  0.6638959157580544  1.0000
  H   H14       1.0  0.7891215538736704  0.9279404441462094  0.1638959157580544  1.0000
  H   H15       1.0  0.2891209475708508  0.4279399649956233  0.3361046329779357  1.0000
  H   H16       1.0  0.21087836019796674  0.07206051415496263  0.8361046329779356  1.0000
  H   H17       1.0  0.7487200937648524  0.2409530053712317  0.6353232329329401  1.0000
  H   H18       1.0  0.7512802529610243  0.25904747377935433  0.13532323293294013  1.0000
  H   H19       1.0  0.2512818518773444  0.7590467083829682  0.3646751208591041  1.0000
  H   H20       1.0  0.24871892807405524  0.7409547290687826  0.864675669595087  1.0000
  H   H21       1.0  0.6210088795760955  0.2758774824651766  0.7099864462211303  1.0000
  H   H22       1.0  0.8789914671497743  0.2241229966854092  0.2099864462211301  1.0000
  H   H23       1.0  0.37899120203464076  0.7241209867420508  0.29001300504288713  1.0000
  H   H24       1.0  0.12100901241931444  0.7758792061627275  0.7900124563068973  1.0000
  H   H25       1.0  0.04683638834312379  0.4660542159756673  0.6790267618540682  1.0000
  H   H26       1.0  0.4531642179596958  0.0339462631749115  0.1790267618540682  1.0000
  H   H27       1.0  0.9531648242625224  0.5339467423254973  0.3209732381459319  1.0000
  H   H28       1.0  0.5468356961119343  0.9660546951262532  0.8209737868819147  1.0000
  H   H29       1.0  0.9232612166808  0.5143314375190826  0.7513578471989746  1.0000
  H   H30       1.0  0.576739303693657  0.9856699999326681  0.2513578471989746  1.0000
  H   H31       1.0  0.07673683335937653  0.485668276235117  0.24864160406503544  1.0000
  H   H32       1.0  0.423263772943443  0.0143322029154689  0.7486416040650357  1.0000
  H   H33       1.0  0.8394702485689651  0.23538490222397  0.8070594884683119  1.0000
  H   H34       1.0  0.6605300981569115  0.2646155769266088  0.3070594884683118  1.0000
  H   H35       1.0  0.16052966550267203  0.7646160560771946  0.1929405115316882  1.0000
  H   H36       1.0  0.3394705489512759  0.7353841368275837  0.6929405115316882  1.0000
  H   H37       1.0  0.939173748789635  0.1717773510945264  0.7310151067017118  1.0000
  H   H38       1.0  0.5608252994022322  0.3282231280560524  0.2310151067017117  1.0000
  H   H39       1.0  0.060825599784550446  0.8282223626596661  0.2689854420342712  1.0000
  H   H40       1.0  0.4391746146694048  0.6717778302451123  0.7689854420342714  1.0000
  H   H41       1.0  0.05852426118184442  0.3933652056004675  0.909770792978371  1.0000
  H   H42       1.0  0.4414763451209751  0.1066352735501184  0.4097707929783709  1.0000
  H   H43       1.0  0.941475087392334  0.6066345081537321  0.0902297557576119  1.0000
  H   H44       1.0  0.5585235689506618  0.8933656847510534  0.590229755757612  1.0000
  H   H45       1.0  0.5675397310745254  0.4207327934878506  0.8141529985677991  1.0000
  H   H46       1.0  0.9324589191589896  0.0792639520218188  0.3141524498318091  1.0000
  H   H47       1.0  0.4324596174996601  0.5792669202663419  0.1858475501681909  1.0000
  H   H48       1.0  0.06754116245174663  0.9207345171854087  0.6858475501681909  1.0000
  C   C1        1.0  0.4117980132341827  0.2473275749555484  0.5725105220125429  1.0000
  C   C2        1.0  0.08820259306863683  0.2526729041950375  0.0725105220125428  1.0000
  C   C3        1.0  0.5882019008374473  0.7526733833456163  0.4274894779874572  1.0000
  C   C4        1.0  0.9117986195370094  0.7473280541061342  0.9274889292514672  1.0000
  C   C5        1.0  0.25174096198521323  0.39586301137081403  0.5610062720523246  1.0000
  C   C6        1.0  0.24825778028614562  0.1041362232327998  0.0610062720523246  1.0000
  C   C7        1.0  0.7482589520864239  0.6041379469303509  0.4389942766836583  1.0000
  C   C8        1.0  0.7517415682880328  0.8958634905213998  0.9389942766836584  1.0000
  C   C9        1.0  0.7043645552284803  0.46889178306904006  0.6284898236911263  1.0000
  C   C10       1.0  0.7956357914973964  0.0311086960815459  0.128489823691126  1.0000
  C   C11       1.0  0.295636657377166  0.5311091752321246  0.37151017630887406  1.0000
  C   C12       1.0  0.2043654211082426  0.9688922622196259  0.871510176308874  1.0000
  C   C13       1.0  0.7412330241666752  0.3372162244668929  0.6725231429402356  1.0000
  C   C14       1.0  0.7587673225591941  0.1627842546836931  0.17252259420425287  1.0000
  C   C15       1.0  0.2587670574440608  0.6627822447403346  0.3274757595877915  1.0000
  C   C16       1.0  0.24123315700988715  0.8372179481644437  0.8274757595877917  1.0000
  C   C17       1.0  0.9250042739240245  0.4124341542867143  0.7163144696192347  1.0000
  C   C18       1.0  0.5749966382993037  0.0875675694108438  0.21631392088324475  1.0000
  C   C19       1.0  0.07499507465015402  0.5875655594674853  0.2836855303807653  1.0000
  C   C20       1.0  0.42500513980379406  0.912434633437293  0.7836855303807653  1.0000
  C   C21       1.0  0.9486606530545316  0.2791307282467841  0.7641532729357934  1.0000
  C   C22       1.0  0.551339693671345  0.2208697509038018  0.2641532729357934  1.0000
  C   C23       1.0  0.05133869551965378  0.7208689855074155  0.23584672706420662  1.0000
  C   C24       1.0  0.4486596549028405  0.7791299628503978  0.7358467270642066  1.0000
  C   C25       1.0  0.16661778356474605  0.3917497836323989  0.8715727322113482  1.0000
  C   C26       1.0  0.3333822572406221  0.1082494509712149  0.371572732211348  1.0000
  C   C27       1.0  0.8333821305068838  0.6082511746687729  0.1284278165246349  1.0000
  C   C28       1.0  0.6666178243701213  0.8917490182360126  0.628427816524635  1.0000
  C   C29       1.0  0.4203356130551158  0.4018318586426659  0.8208870865960236  1.0000
  C   C30       1.0  0.079666291781713  0.09816862050792  0.3208870865960237  1.0000
  C   C31       1.0  0.5796650340530718  0.5981678551115337  0.17911346213995935  1.0000
  C   C32       1.0  0.920334920823926  0.9018323377932447  0.6791134621399593  1.0000
  Br  Br1       1.0  0.2025375631717665  0.8042660780191824  0.537569758062304  1.0000
  Br  Br2       1.0  0.2974626512821815  0.695734114885596  0.037569758062304  1.0000
  Br  Br3       1.0  0.797463083936421  0.1957336357350172  0.462430241937696  1.0000
  Br  Br4       1.0  0.7025351683387414  0.3042593761337429  0.9624296932017132  1.0000
  N   N1        1.0  0.24347778028430872  0.2391048531196276  0.5496397548247602  1.0000
  N   N2        1.0  0.2565222605210593  0.2608943814839861  0.04963975482476  1.0000
  N   N3        1.0  0.7565202697558675  0.760894860634572  0.4503607939112229  1.0000
  N   N4        1.0  0.7434783865871284  0.7391053322702066  0.9503607939112231  1.0000
  N   N5        1.0  0.41491401480338663  0.4992599737029694  0.5898291784873564  1.0000
  N   N6        1.0  0.0850860260019815  0.0007392609006445  0.08982862975136642  1.0000
  N   N7        1.0  0.5850866323048011  0.5007397400512232  0.4101713702486336  1.0000
  N   N8        1.0  0.914914621106206  0.999260452853555  0.9101713702486337  1.0000
  N   N9        1.0  0.5147713117849905  0.4021143708050303  0.5967553241109089  1.0000
  N   N10       1.0  0.9852290349408791  0.09788610834555563  0.0967547753749258  1.0000
  N   N11       1.0  0.4852280367891879  0.5978853429491693  0.4032452246250743  1.0000
  N   N12       1.0  0.014772177664760003  0.9021148499556162  0.9032446758890913  1.0000
  N   N13       1.0  0.12993448943598912  0.3380749618767283  0.8019156373294153  1.0000
  N   N14       1.0  0.37006611686683755  0.1619255172738576  0.30191563732941523  1.0000
  N   N15       1.0  0.8700654246356478  0.6619259964244435  0.19808491140657483  1.0000
  N   N16       1.0  0.629934530241357  0.838074196480342  0.6980849114065748  1.0000
  N   N17       1.0  0.29055190466309  0.3428913586536312  0.7682594643239329  1.0000
  N   N18       1.0  0.2094475706448264  0.1571066314030105  0.2682589155879427  1.0000
  N   N19       1.0  0.7094474439110955  0.6571083551005614  0.23174108441205732  1.0000
  N   N20       1.0  0.7905525109659095  0.842891837804217  0.7317410844120575  1.0000
  N   N21       1.0  0.3504144879252992  0.4340245551357498  0.8850584678193769  1.0000
  N   N22       1.0  0.149585720419168  0.0659721903739197  0.3850579190833941  1.0000
  N   N23       1.0  0.6495842951514277  0.5659739140714777  0.114942080916606  1.0000
  N   N24       1.0  0.8504143611915682  0.9340262788333078  0.6149420809166062  1.0000
