data_image0
_chemical_formula_structural       Cu8H40C32I8N8
_chemical_formula_sum              "Cu8 H40 C32 I8 N8"
_cell_length_a       4.141357043022911
_cell_length_b       15.839472293092337
_cell_length_c       16.807004801140025
_cell_angle_alpha    89.999652888763
_cell_angle_beta     89.99967476217947
_cell_angle_gamma    89.99982052800313

_space_group_name_H-M_alt    "P 1"
_space_group_IT_number       1

loop_
  _space_group_symop_operation_xyz
  'x, y, z'

loop_
  _atom_site_type_symbol
  _atom_site_label
  _atom_site_symmetry_multiplicity
  _atom_site_fract_x
  _atom_site_fract_y
  _atom_site_fract_z
  _atom_site_occupancy
  Cu  Cu1       1.0  0.9556726534055785  0.7046447364177768  0.4529703296912828  1.0000
  Cu  Cu2       1.0  0.5443207011875373  0.7953540260575381  0.9529714145054129  1.0000
  Cu  Cu3       1.0  0.455687609625123  0.7953541014479414  0.5470300225426145  1.0000
  Cu  Cu4       1.0  0.0443140724425888  0.7046464122557196  0.0470277472190048  1.0000
  Cu  Cu5       1.0  0.044323022887468304  0.295355289720284  0.5470299655458108  1.0000
  Cu  Cu6       1.0  0.45567738973981164  0.2046460000699994  0.04703185567999671  1.0000
  Cu  Cu7       1.0  0.5443153106399592  0.20464655601367807  0.45297265264748904  1.0000
  Cu  Cu8       1.0  0.9556743598547683  0.29535361388722947  0.9529719530333125  1.0000
  H   H1        1.0  0.97927674293404  0.824105557397026  0.3246478797715326  1.0000
  H   H2        1.0  0.5207508604462988  0.6758921340031633  0.8246496823453313  1.0000
  H   H3        1.0  0.4792902685088265  0.6758938924238364  0.675351843361085  1.0000
  H   H4        1.0  0.020730287473227804  0.8241057983325532  0.1753495134573839  1.0000
  H   H5        1.0  0.0207068600312965  0.17589510008397008  0.6753512254924487  1.0000
  H   H6        1.0  0.47928345054461374  0.3241047354482162  0.17535061287287593  1.0000
  H   H7        1.0  0.5207440424386506  0.3241080276970436  0.3246496418226954  1.0000
  H   H8        1.0  0.9792460715039581  0.1758935964849968  0.824648996825438  1.0000
  H   H9        1.0  0.7032502403838093  0.5324702182004871  0.3575256818681539  1.0000
  H   H10       1.0  0.7967476547392209  0.9675297877144329  0.8575230365870325  1.0000
  H   H11       1.0  0.20325376942600573  0.9675281956038758  0.6424744401637953  1.0000
  H   H12       1.0  0.2967506161311205  0.5324704433268507  0.14247516535587582  1.0000
  H   H13       1.0  0.29676475322885654  0.46752980792391713  0.6424763983250159  1.0000
  H   H14       1.0  0.2032431922151687  0.0324708697597771  0.1424772586517378  1.0000
  H   H15       1.0  0.7967394922005157  0.03247056786494079  0.3575264500686686  1.0000
  H   H16       1.0  0.7032450601817999  0.4675295828169367  0.8575233449111792  1.0000
  H   H17       1.0  0.09319368331372863  0.546056662856671  0.39401920122964645  1.0000
  H   H18       1.0  0.40680509963841166  0.9539409942360636  0.8940182596354447  1.0000
  H   H19       1.0  0.5931989015514888  0.9539412099850395  0.6059798898666315  1.0000
  H   H20       1.0  0.9068070108505922  0.5460597777687966  0.1059803782513811  1.0000
  H   H21       1.0  0.906823725007051  0.45394210060796075  0.6059799040153351  1.0000
  H   H22       1.0  0.5931929913211536  0.0460602945712409  0.1059814406062785  1.0000
  H   H23       1.0  0.40679677473584525  0.0460575534808783  0.3940215953540971  1.0000
  H   H24       1.0  0.0931862507740959  0.4539415110404903  0.894019321993831  1.0000
  H   H25       1.0  0.988691617805742  0.40424876094456863  0.3253017784268124  1.0000
  H   H26       1.0  0.5113008963120862  0.09574970238744379  0.8252998883564402  1.0000
  H   H27       1.0  0.4886892129393417  0.09575019458714001  0.6746966276685669  1.0000
  H   H28       1.0  0.011305941522273601  0.40424964513272943  0.17469861262536315  1.0000
  H   H29       1.0  0.011311302502861102  0.5957512651943375  0.6746973268250187  1.0000
  H   H30       1.0  0.4886899506470002  0.9042490610823606  0.1747010018777644  1.0000
  H   H31       1.0  0.5112968046744727  0.9042492002169099  0.3253048575573416  1.0000
  H   H32       1.0  0.9886945641122722  0.5957503810052601  0.8253010876182287  1.0000
  H   H33       1.0  0.3300500763505454  0.4590483145780198  0.29127342871765194  1.0000
  H   H34       1.0  0.16994731098813531  0.04094888352897642  0.7912728129889004  1.0000
  H   H35       1.0  0.8300482824097841  0.040951402553346804  0.708724016649839  1.0000
  H   H36       1.0  0.6699492428399197  0.45904970239047316  0.20872605372554895  1.0000
  H   H37       1.0  0.6699576733203614  0.5409504488962967  0.7087238915642687  1.0000
  H   H38       1.0  0.8300435359738007  0.9590505112769063  0.2087274822534937  1.0000
  H   H39       1.0  0.1699425645370667  0.9590505175891906  0.2912762785853218  1.0000
  H   H40       1.0  0.33005126278799685  0.540950323745605  0.7912742415080559  1.0000
  C   C1        1.0  0.9872941655159625  0.7654282025204752  0.2908746237919928  1.0000
  C   C2        1.0  0.512729360737282  0.7345734934784288  0.7908761021345541  1.0000
  C   C3        1.0  0.4873110670658107  0.7345661900386985  0.7091262777466127  1.0000
  C   C4        1.0  0.012713566019691301  0.7654301274474234  0.20912370023040694  1.0000
  C   C5        1.0  0.0126918521328179  0.2345686669526401  0.7091250764710965  1.0000
  C   C6        1.0  0.4872977061540595  0.2654341086471775  0.2091271680082443  1.0000
  C   C7        1.0  0.512718414591042  0.2654249973976519  0.29087699244140464  1.0000
  C   C8        1.0  0.9872700369210747  0.23457242403225106  0.790876595008186  1.0000
  C   C9        1.0  0.9841076636471088  0.6197642569427018  0.291874626131019  1.0000
  C   C10       1.0  0.5159061816964583  0.8802368013213168  0.7918734812769799  1.0000
  C   C11       1.0  0.48411318823763594  0.8802320322458285  0.7081244950451975  1.0000
  C   C12       1.0  0.015899393786583  0.6197655543297104  0.20812453152419147  1.0000
  C   C13       1.0  0.015900086004833697  0.3802332438556562  0.7081250741145624  1.0000
  C   C14       1.0  0.48409673857820235  0.11976890682506537  0.208125623958594  1.0000
  C   C15       1.0  0.5158945614161468  0.11976294321205933  0.29187639518763586  1.0000
  C   C16       1.0  0.984098697169209  0.3802363658117613  0.7918751687157268  1.0000
  C   C17       1.0  0.9567615211299129  0.5391629497217564  0.338150224767368  1.0000
  C   C18       1.0  0.543236805525865  0.9608365491103115  0.8381491741218456  1.0000
  C   C19       1.0  0.4567671132731945  0.960835887257545  0.6618489359197426  1.0000
  C   C20       1.0  0.04323925541861941  0.5391632587550463  0.16184998916416052  1.0000
  C   C21       1.0  0.04325105782479001  0.460837707741625  0.6618506654457194  1.0000
  C   C22       1.0  0.45675404141242393  0.03916347702401169  0.1618529060887752  1.0000
  C   C23       1.0  0.5432285630141394  0.03916287620837271  0.33815254930099314  1.0000
  C   C24       1.0  0.9567588355418551  0.4608367673820267  0.838150306071185  1.0000
  C   C25       1.0  0.06467327148333621  0.4608679247767641  0.2924630002958182  1.0000
  C   C26       1.0  0.43532408935966055  0.03913115970700429  0.7924614164861126  1.0000
  C   C27       1.0  0.5646715257685033  0.039132010255848095  0.7075354235601594  1.0000
  C   C28       1.0  0.935323611292425  0.46086783964253913  0.2075376617198046  1.0000
  C   C29       1.0  0.9353344781563778  0.5391327326943269  0.7075361049507196  1.0000
  C   C30       1.0  0.5646667576089044  0.9608682351007827  0.2075382837662616  1.0000
  C   C31       1.0  0.4353169065118295  0.9608686472174454  0.2924654666703718  1.0000
  C   C32       1.0  0.0646768943392644  0.5391315551593793  0.7924626335156051  1.0000
  I   I1        1.0  0.9586027459335753  0.8711072596906747  0.48163230512584937  1.0000
  I   I2        1.0  0.5414020436086916  0.6288913189668862  0.9816337518367179  1.0000
  I   I3        1.0  0.4585889389726958  0.6288915757847493  0.5183668529145038  1.0000
  I   I4        1.0  0.041403722810429096  0.8711084903995997  0.018367199071320804  1.0000
  I   I5        1.0  0.04140017437217841  0.1288921351121601  0.5183673951178065  1.0000
  I   I6        1.0  0.4585912180206789  0.3711080758380021  0.0183665434039284  1.0000
  I   I7        1.0  0.5414067373203437  0.3711084503533116  0.4816334423225897  1.0000
  I   I8        1.0  0.9585991974517968  0.1288915357259484  0.981636071110607  1.0000
  N   N1        1.0  0.9723449170447794  0.6933164528487765  0.3333660526973716  1.0000
  N   N2        1.0  0.527672833510742  0.8066786573107904  0.8333670967661675  1.0000
  N   N3        1.0  0.47235465928670095  0.8066867906723161  0.6666330854543787  1.0000
  N   N4        1.0  0.02766126151554  0.69331548133065  0.1666326840278884  1.0000
  N   N5        1.0  0.0276555885680452  0.30668609862396323  0.6666342425290069  1.0000
  N   N6        1.0  0.4723373308132325  0.193312530135394  0.16663557844579907  1.0000
  N   N7        1.0  0.527660334279787  0.19332207413229702  0.33336839972349  1.0000
  N   N8        1.0  0.9723295854614807  0.3066813881385714  0.8333676112217319  1.0000
