data_image0
_chemical_formula_structural       Al2H16C26S2O11
_chemical_formula_sum              "Al2 H16 C26 S2 O11"
_cell_length_a       6.610675417892594
_cell_length_b       12.894912399208362
_cell_length_c       17.692037267792227
_cell_angle_alpha    80.6865081663555
_cell_angle_beta     79.33409133241878
_cell_angle_gamma    71.33971435717127

_space_group_name_H-M_alt    "P 1"
_space_group_IT_number       1

loop_
  _space_group_symop_operation_xyz
  'x, y, z'

loop_
  _atom_site_type_symbol
  _atom_site_label
  _atom_site_symmetry_multiplicity
  _atom_site_fract_x
  _atom_site_fract_y
  _atom_site_fract_z
  _atom_site_occupancy
  Al  Al1       1.0  0.501185191108128  0.4891374372644676  0.5020792262189178  1.0000
  Al  Al2       1.0  0.9995351113847095  0.49440597013843046  0.5001348107243333  1.0000
  H   H1        1.0  0.22465797220685604  0.4436898223800369  0.5993947856042895  1.0000
  H   H2        1.0  0.6898743297803519  0.6178073931084712  0.44513695706495343  1.0000
  H   H3        1.0  0.6402623394785396  0.5399060362831846  0.27528682164698653  1.0000
  H   H4        1.0  0.7085912622223273  0.5651258702577451  0.13083638111754686  1.0000
  H   H5        1.0  0.2238955179912523  0.4094094946509585  0.1252908686702483  1.0000
  H   H6        1.0  0.7667516969148523  0.6237697466592422  0.8662972434696457  1.0000
  H   H7        1.0  0.3773514204596893  0.44569525995717646  0.7392357043595228  1.0000
  H   H8        1.0  0.3131302432580796  0.4412892517786061  0.8828432158556939  1.0000
  H   H9        1.0  0.6187274055926082  0.15159690619238123  0.5374637421763212  1.0000
  H   H10       1.0  0.9712957921997543  0.42180765137516124  0.3131033289365775  1.0000
  H   H11       1.0  0.18108760037961247  0.29740515119581806  0.31949980727692673  1.0000
  H   H12       1.0  0.04739918675785769  0.3370778736740261  0.23603524128625264  1.0000
  H   H13       1.0  0.044518947033310496  0.597416522848995  0.7118326205971146  1.0000
  H   H14       1.0  0.8538172223509548  0.7215122886316504  0.7395207116923006  1.0000
  H   H15       1.0  0.8479277392775302  0.6716880227081176  0.6518927639670199  1.0000
  H   H16       1.0  0.5255414401619304  0.8768498770940951  0.4561445654180504  1.0000
  C   C1        1.0  0.8749842175493613  0.29544877502416955  0.5116767366428407  1.0000
  C   C2        1.0  0.6590493790960467  0.5188452628311281  0.6382368923531561  1.0000
  C   C3        1.0  0.13437928818285633  0.6907361991659186  0.48606497820062355  1.0000
  C   C4        1.0  0.34437946150112003  0.46650870317260734  0.3664783480486309  1.0000
  C   C5        1.0  0.3894023647644361  0.4654942710973343  0.2808581453043005  1.0000
  C   C6        1.0  0.5491573577472978  0.5124614384861558  0.24133303020776972  1.0000
  C   C7        1.0  0.587375982999319  0.5264773741966451  0.1611012272031687  1.0000
  C   C8        1.0  0.4660311201734685  0.49115720415505865  0.11850258173537041  1.0000
  C   C9        1.0  0.3125554036435786  0.43937017489518837  0.15878543172443937  1.0000
  C   C10       1.0  0.270398162052082  0.42604208677632727  0.23945985865564995  1.0000
  C   C11       1.0  0.4955334720964117  0.5070390336499884  0.036669838363714305  1.0000
  C   C12       1.0  0.5166751154989341  0.5205514827914826  0.9660495576900421  1.0000
  C   C13       1.0  0.5422242051158648  0.5291416025485773  0.8843415126621115  1.0000
  C   C14       1.0  0.6842787557009373  0.5830978522020231  0.8380097663882612  1.0000
  C   C15       1.0  0.7239017767431335  0.5854538155313945  0.7574136918876636  1.0000
  C   C16       1.0  0.6142931868927448  0.5322503536641747  0.722424414348062  1.0000
  C   C17       1.0  0.4628356043157638  0.48399576965609004  0.76797269650276  1.0000
  C   C18       1.0  0.4268756119657554  0.481225569050693  0.8478029136693056  1.0000
  C   C19       1.0  0.23109620067085476  0.8704851826645666  0.47478692106474113  1.0000
  C   C20       1.0  0.7910968169471532  0.1149448581537271  0.5211364930698963  1.0000
  C   C21       1.0  0.08584081527820318  0.8087560892926149  0.4882885200813052  1.0000
  C   C22       1.0  0.9341361046415243  0.17627582627713417  0.507532353155213  1.0000
  C   C23       1.0  0.8992926913279503  0.003923529001433202  0.5098653041710719  1.0000
  C   C24       1.0  0.1229774084367179  0.9824788257486147  0.48720548623394  1.0000
  C   C25       1.0  0.10830092247684317  0.3677773331410066  0.27882745853494845  1.0000
  C   C26       1.0  0.8746367080387928  0.6472767033369279  0.7122993278210645  1.0000
  S   S1        1.0  0.8209148313473098  0.8868938791973093  0.5174073480429302  1.0000
  S   S2        1.0  0.20047928800284612  0.09982926423565887  0.48037706142878306  1.0000
  O   O1        1.0  0.6743972387985409  0.34364164916968315  0.5287338985194695  1.0000
  O   O2        1.0  0.855579020699821  0.4969785314113295  0.6062443378401314  1.0000
  O   O3        1.0  0.9758478800748165  0.6503684715048265  0.49851219819926496  1.0000
  O   O4        1.0  0.5044637433848961  0.4480163180472374  0.40256550829170135  1.0000
  O   O5        1.0  0.3330224951345003  0.6363358887804367  0.4722398400453047  1.0000
  O   O6        1.0  0.14730540482198515  0.49187464061888164  0.3973811284221967  1.0000
  O   O7        1.0  0.024987822163573935  0.34064978624504505  0.49825325588042113  1.0000
  O   O8        1.0  0.4989713169313816  0.5253773111046696  0.6049917455602201  1.0000
  O   O9        1.0  0.2535686151916394  0.44922865770435283  0.543338677717472  1.0000
  O   O10       1.0  0.7386349065843802  0.5395144126762474  0.4624643568303386  1.0000
  O   O11       1.0  0.4444291417930442  0.8267548107835337  0.45190006990777243  1.0000
