data_image0
_chemical_formula_structural       Zr6H19C52O32F11
_chemical_formula_sum              "Zr6 H19 C52 O32 F11"
_cell_length_a       14.765803902410019
_cell_length_b       14.767747949776654
_cell_length_c       14.764847080837185
_cell_angle_alpha    60.31339311259778
_cell_angle_beta     59.964415829756106
_cell_angle_gamma    60.05272690778782

_space_group_name_H-M_alt    "P 1"
_space_group_IT_number       1

loop_
  _space_group_symop_operation_xyz
  'x, y, z'

loop_
  _atom_site_type_symbol
  _atom_site_label
  _atom_site_symmetry_multiplicity
  _atom_site_fract_x
  _atom_site_fract_y
  _atom_site_fract_z
  _atom_site_occupancy
  Zr  Zr1       1.0  0.8663296927925261  0.8870222269519485  0.6227775038696919  1.0000
  Zr  Zr2       1.0  0.10798448167823696  0.12336979171183059  0.38627566421700266  1.0000
  Zr  Zr3       1.0  0.10604440836920753  0.884584061191859  0.6243377994649606  1.0000
  Zr  Zr4       1.0  0.8680043203554819  0.12461013202813835  0.3849505765866112  1.0000
  Zr  Zr5       1.0  0.10735812119168024  0.8858627373626503  0.3837814057409901  1.0000
  Zr  Zr6       1.0  0.8673198892811059  0.12538284489361495  0.624488439236032  1.0000
  H   H1        1.0  0.08139302465235002  0.7234579541283284  0.5952691615094209  1.0000
  H   H2        1.0  0.08395453686515003  0.09649256846150682  0.22262496553950936  1.0000
  H   H3        1.0  0.08042256702481151  0.09755658565633502  0.6014904116142077  1.0000
  H   H4        1.0  0.7034015586860678  0.10138180363562561  0.5991330901069105  1.0000
  H   H5        1.0  0.8148708127405299  0.6193320466346182  0.6143542666662826  1.0000
  H   H6        1.0  0.15007633694278172  0.5710532611069539  0.38503660858553707  1.0000
  H   H7        1.0  0.821132296522741  0.446920509286038  0.612454794240641  1.0000
  H   H8        1.0  0.5814851068447948  0.8485275221659164  0.9328642056861369  1.0000
  H   H9        1.0  0.5973688128085114  0.12860386345447228  0.9394848156804869  1.0000
  H   H10       1.0  0.41165832969689836  0.8529541706200731  0.10367283770034415  1.0000
  H   H11       1.0  0.14815903322129031  0.8836136077861808  0.06645657461722725  1.0000
  H   H12       1.0  0.8099690446255111  0.10513391219235757  0.1310169397754208  1.0000
  H   H13       1.0  0.1422300997814505  0.884792202294008  0.8987136245333929  1.0000
  H   H14       1.0  0.5854778232371985  0.44057144892340716  0.6328041258782521  1.0000
  H   H15       1.0  0.5891445680292122  0.43040018623360526  0.34437956878837633  1.0000
  H   H16       1.0  0.4145579976623851  0.6096292105950525  0.6289515784116659  1.0000
  H   H17       1.0  0.5717719021939873  0.14654441993771883  0.35452837012148564  1.0000
  H   H18       1.0  0.5879929345473371  0.8486013998477445  0.636711716891348  1.0000
  H   H19       1.0  0.40240809158171237  0.13917881628562873  0.3603997212469708  1.0000
  C   C1        1.0  0.9808224459539123  0.7074984784836928  0.49913635749501156  1.0000
  C   C2        1.0  0.29976877981506095  0.9991982558428488  0.20923268109861942  1.0000
  C   C3        1.0  0.9866262126526664  0.3111067888699353  0.5008551766643164  1.0000
  C   C4        1.0  0.6907681808081565  0.9973727075093706  0.8155771693908422  1.0000
  C   C5        1.0  0.9878743560483016  0.6995396628709758  0.8045314069291366  1.0000
  C   C6        1.0  0.6865409655652145  0.003707238670038657  0.49852931276056717  1.0000
  C   C7        1.0  0.9897734160038709  0.30523709736946336  0.19990147657749455  1.0000
  C   C8        1.0  0.29523340859771696  0.9959149695678916  0.5040553001485719  1.0000
  C   C9        1.0  0.2974106330108343  0.7079392003967725  0.4950299237606047  1.0000
  C   C10       1.0  0.9781823037643069  0.9982573284154055  0.815797592350691  1.0000
  C   C11       1.0  0.6919853484503022  0.3174467239572395  0.49684041422122494  1.0000
  C   C12       1.0  0.9836818060173941  0.998812852004086  0.20543100385427948  1.0000
  C   C13       1.0  0.9875433423711825  0.4125353962925758  0.499013567240013  1.0000
  C   C14       1.0  0.981451417911032  0.6061289392127877  0.49898925616989936  1.0000
  C   C15       1.0  0.07964493408968569  0.4491814209493512  0.436062369498103  1.0000
  C   C16       1.0  0.8886564233154106  0.5709890464502294  0.5641259409908914  1.0000
  C   C17       1.0  0.07735085000405208  0.5449118957271821  0.4346153353710918  1.0000
  C   C18       1.0  0.8922617579575347  0.47567384655434347  0.563261450815659  1.0000
  C   C19       1.0  0.4073957177415509  0.9936817131849692  0.11548643136573848  1.0000
  C   C20       1.0  0.5973055851491655  0.9905824696237883  0.9236288503721607  1.0000
  C   C21       1.0  0.4638593023486309  0.06840518873219988  0.06936339868821759  1.0000
  C   C22       1.0  0.5472724971011118  0.9103663846021489  0.9716567632517368  1.0000
  C   C23       1.0  0.5570037489091462  0.06816247008060126  0.9744735471815531  1.0000
  C   C24       1.0  0.45359050616801266  0.9127453942123864  0.06600341287701639  1.0000
  C   C25       1.0  0.9745084478243983  0.9949388435422434  0.9202518500479543  1.0000
  C   C26       1.0  0.9802233701960006  0.9951751332681055  0.10793843732394484  1.0000
  C   C27       1.0  0.881289730835057  0.05510562378581346  0.9884705626383763  1.0000
  C   C28       1.0  0.07359487261509678  0.9316201227163247  0.04354094457164594  1.0000
  C   C29       1.0  0.883267214132992  0.05673546721467207  0.08057056103319833  1.0000
  C   C30       1.0  0.07018005793585745  0.9322259948356474  0.9509666873450443  1.0000
  C   C31       1.0  0.4044739268783316  0.6135069675716592  0.4873521257822945  1.0000
  C   C32       1.0  0.5963555023486862  0.42368857187071296  0.49052340203788697  1.0000
  C   C33       1.0  0.45762436298406334  0.5626266507097665  0.4061318018530642  1.0000
  C   C34       1.0  0.5486226657370779  0.4755799453651761  0.56953700393381  1.0000
  C   C35       1.0  0.5517100117194078  0.46899560945922764  0.40712248934936923  1.0000
  C   C36       1.0  0.4541247208518513  0.5689227276297971  0.5673997105901025  1.0000
  C   C37       1.0  0.9947284950309554  0.5924045097220586  0.9002217719611494  1.0000
  C   C38       1.0  0.03367669327052179  0.48699544401796396  0.8897853828920362  1.0000
  C   C39       1.0  0.9611678950005927  0.5984662581506583  0.002930978356914834  1.0000
  C   C40       1.0  0.07415912998740752  0.4724997516012337  0.7865688452157471  1.0000
  C   C41       1.0  0.11026863152758896  0.37073122464365565  0.7768309631823912  1.0000
  C   C42       1.0  0.9966372859548258  0.40057533305086684  0.09241468288890801  1.0000
  C   C43       1.0  0.9619236184973945  0.5037321929606692  0.09792161438326748  1.0000
  C   C44       1.0  0.03482320771199458  0.38959233804987287  0.9873239995805604  1.0000
  C   C45       1.0  0.07657607690835291  0.2860301652940009  0.9731630766292341  1.0000
  C   C46       1.0  0.11156508350725856  0.2758002808631018  0.8718209151172902  1.0000
  C   C47       1.0  0.39977327862914097  0.9916824625697769  0.5009395672701517  1.0000
  C   C48       1.0  0.5893031972620408  0.9988160939817232  0.49591597318512715  1.0000
  C   C49       1.0  0.4550719770503593  0.9094445413905419  0.5769420849669372  1.0000
  C   C50       1.0  0.5382002936748479  0.08025604820311832  0.41674691535924774  1.0000
  C   C51       1.0  0.5480954709495905  0.9124097615228662  0.575614189858598  1.0000
  C   C52       1.0  0.4446638452821503  0.0762046947798325  0.41997561533248273  1.0000
  O   O1        1.0  0.9028919074372436  0.7475396745015104  0.5756683077255859  1.0000
  O   O2        1.0  0.25504328506966806  0.07881085704055123  0.2466818533351542  1.0000
  O   O3        1.0  0.062499714960772175  0.2699576087263935  0.42458935426136435  1.0000
  O   O4        1.0  0.7266960123405896  0.9235563481681694  0.7729291735084728  1.0000
  O   O5        1.0  0.0635094936602345  0.7386029463871181  0.7689432477029001  1.0000
  O   O6        1.0  0.7234078311622697  0.08264609973262788  0.4239148505863782  1.0000
  O   O7        1.0  0.9095805809303529  0.2710178723624707  0.23919262688196605  1.0000
  O   O8        1.0  0.25183332636145694  0.9226693823642619  0.5824014315560861  1.0000
  O   O9        1.0  0.25341967999943205  0.7452333068750576  0.42246919069675215  1.0000
  O   O10       1.0  0.9058003653763648  0.07856204792447138  0.7723907529978932  1.0000
  O   O11       1.0  0.72698263391721  0.2757478557400361  0.5773500384974712  1.0000
  O   O12       1.0  0.06435075736209958  0.9257261205493704  0.24054279417530472  1.0000
  O   O13       1.0  0.05651790234651353  0.9220996035348108  0.7753963714291601  1.0000
  O   O14       1.0  0.729378560386202  0.2749461151813363  0.42254479284049745  1.0000
  O   O15       1.0  0.9065691641118505  0.07556458932881342  0.24530655983876679  1.0000
  O   O16       1.0  0.25597911298724096  0.7430385383720974  0.575809721120521  1.0000
  O   O17       1.0  0.9073185205578939  0.7401643312132646  0.77083327392738  1.0000
  O   O18       1.0  0.2553124032513807  0.07486846825359803  0.4287726514560077  1.0000
  O   O19       1.0  0.06374608553491609  0.270497568010029  0.24038260254846486  1.0000
  O   O20       1.0  0.7240595571691557  0.9290679920841783  0.5770035039800377  1.0000
  O   O21       1.0  0.7256047615866095  0.07828776267307094  0.7724022836214529  1.0000
  O   O22       1.0  0.059354779676269245  0.7451426648311638  0.4239762419421568  1.0000
  O   O23       1.0  0.25818063648799244  0.9254390614732344  0.2433270717725762  1.0000
  O   O24       1.0  0.9095398372112771  0.27254850531502245  0.5791847312258867  1.0000
  O   O25       1.0  0.7838902271275429  0.0743950378674468  0.5718305939256254  1.0000
  O   O26       1.0  0.053842966645589706  0.07147888908404092  0.5736590366857898  1.0000
  O   O27       1.0  0.05528039878297621  0.07170662783070007  0.3029387760403068  1.0000
  O   O28       1.0  0.053288520451076474  0.8036884949813439  0.5706319355251778  1.0000
  O   O29       1.0  0.13634875836632446  0.9547463868840749  0.45553355308841503  1.0000
  O   O30       1.0  0.9367255074561529  0.9562937805176472  0.45422410262518326  1.0000
  O   O31       1.0  0.9378835894400551  0.15370607952694132  0.45526899616651667  1.0000
  O   O32       1.0  0.9363818695214551  0.9556034367918896  0.6534774147536311  1.0000
  F   F1        1.0  0.17614105594069684  0.3903536025133221  0.37578981683128626  1.0000
  F   F2        1.0  0.4285597059926047  0.14533692427931297  0.11517130667611741  1.0000
  F   F3        1.0  0.7842125690388856  0.11327774116212899  0.9673266023287184  1.0000
  F   F4        1.0  0.41797131483587435  0.6021740814723701  0.3235074774647658  1.0000
  F   F5        1.0  0.41917164988094446  0.8233594555682299  0.6558986678474028  1.0000
  F   F6        1.0  0.9246569899941477  0.5170049513272373  0.19627783603425544  1.0000
  F   F7        1.0  0.9238987292596408  0.6971641815408064  0.015414185261874998  1.0000
  F   F8        1.0  0.08620337480818563  0.19074305145974788  0.06052482023848429  1.0000
  F   F9        1.0  0.14983751035470042  0.17611726776527084  0.8616150401861092  1.0000
  F   F10       1.0  0.14717457627697425  0.36004985772075315  0.6775826406441894  1.0000
  F   F11       1.0  0.08102545287103899  0.5600837017675387  0.6912015478453384  1.0000
