data_image0
_chemical_formula_structural       Cu4H16C40N12O12
_chemical_formula_sum              "Cu4 H16 C40 N12 O12"
_cell_length_a       7.071214732068315
_cell_length_b       8.669320947004504
_cell_length_c       15.606527554388427
_cell_angle_alpha    90.00006831417791
_cell_angle_beta     95.69681884670476
_cell_angle_gamma    89.99989316855965

_space_group_name_H-M_alt    "P 1"
_space_group_IT_number       1

loop_
  _space_group_symop_operation_xyz
  'x, y, z'

loop_
  _atom_site_type_symbol
  _atom_site_label
  _atom_site_symmetry_multiplicity
  _atom_site_fract_x
  _atom_site_fract_y
  _atom_site_fract_z
  _atom_site_occupancy
  Cu  Cu1       1.0  0.6155153801151486  0.8900548314393363  0.5243814529231442  1.0000
  Cu  Cu2       1.0  0.8844938983867295  0.3900569266552409  0.47561990140460597  1.0000
  Cu  Cu3       1.0  0.384486536073645  0.10994426076085521  0.4756190625206996  1.0000
  Cu  Cu4       1.0  0.11551085323316103  0.6099479330065379  0.5243800945636821  1.0000
  H   H1        1.0  0.5586339542152673  0.5462229635533261  0.6053014934021305  1.0000
  H   H2        1.0  0.9413703615271773  0.046217864324567905  0.39469943642955485  1.0000
  H   H3        1.0  0.44137081127617256  0.45378189610990194  0.39469978468983397  1.0000
  H   H4        1.0  0.058632982785063306  0.9537800743824221  0.6053017808682029  1.0000
  H   H5        1.0  0.44547636254297635  0.5014088694612082  0.7538224472883853  1.0000
  H   H6        1.0  0.05452125467559201  0.0014040384535363001  0.24617665255606613  1.0000
  H   H7        1.0  0.5545227043322783  0.4985948367118668  0.2461773055100806  1.0000
  H   H8        1.0  0.9454763910204634  0.9985927467632931  0.7538230394481928  1.0000
  H   H9        1.0  0.5131549398873007  0.10635241226091101  0.6768741470507534  1.0000
  H   H10       1.0  0.9868435787212635  0.6063469694787784  0.32312785344512907  1.0000
  H   H11       1.0  0.48684131235933864  0.8936501404242778  0.3231280484100124  1.0000
  H   H12       1.0  0.013152638852559996  0.3936498157383782  0.6768711367049105  1.0000
  H   H13       1.0  0.3418996822260923  0.6988663286420546  0.8939126701507332  1.0000
  H   H14       1.0  0.15809893462088104  0.19886216965387862  0.10608595355644468  1.0000
  H   H15       1.0  0.6580993777145993  0.3011362240374141  0.10608644158558175  1.0000
  H   H16       1.0  0.8419058031371379  0.8011334620633974  0.8939127602857295  1.0000
  C   C1        1.0  0.7151627060309879  0.08971295117382991  0.5294311997956241  1.0000
  C   C2        1.0  0.7848571375448473  0.5897323842658294  0.47056913957008106  1.0000
  C   C3        1.0  0.2848548224185025  0.9102699921123476  0.47056806117461025  1.0000
  C   C4        1.0  0.21515899742979636  0.41028054983921436  0.5294326248630481  1.0000
  C   C5        1.0  0.5255532644042092  0.6370121573675646  0.6493487565664535  1.0000
  C   C6        1.0  0.9744479975212317  0.1370045989624629  0.3506501763732856  1.0000
  C   C7        1.0  0.4744486379069741  0.3629927022955783  0.3506504767552342  1.0000
  C   C8        1.0  0.0255538978638725  0.8629910327569092  0.6493484158841267  1.0000
  C   C9        1.0  0.486315883301309  0.8614531300682843  0.7060024718030248  1.0000
  C   C10       1.0  0.0136823990855035  0.3614450115299875  0.2939968787074249  1.0000
  C   C11       1.0  0.5136803411986011  0.13855288309265026  0.29399715941129045  1.0000
  C   C12       1.0  0.986315232737795  0.6385529271782745  0.7060015311734558  1.0000
  C   C13       1.0  0.43794707115694825  0.7480983385626702  0.7670622465544807  1.0000
  C   C14       1.0  0.062052877372522616  0.24809231210055324  0.23293774603146736  1.0000
  C   C15       1.0  0.5620520026504466  0.2519088280897749  0.23293814730673285  1.0000
  C   C16       1.0  0.9379447613877617  0.751904473115552  0.7670613049109531  1.0000
  C   C17       1.0  0.47711659155962144  0.0195544608358773  0.7231253020993478  1.0000
  C   C18       1.0  0.022881022239296604  0.5195461796423616  0.2768770126227338  1.0000
  C   C19       1.0  0.5228768113746939  0.9804515523293207  0.2768761307157347  1.0000
  C   C20       1.0  0.9771180377062411  0.4804517590655876  0.7231220991123732  1.0000
  C   C21       1.0  0.3777215930766148  0.785372446184212  0.8473510971032068  1.0000
  C   C22       1.0  0.1222740274958625  0.28536729592361343  0.1526500148865537  1.0000
  C   C23       1.0  0.6222732241108061  0.21463125999344615  0.15264975544179996  1.0000
  C   C24       1.0  0.8777236182014079  0.7146283358003418  0.8473496771174067  1.0000
  C   C25       1.0  0.41751612167745833  0.055397082551131405  0.802755268709788  1.0000
  C   C26       1.0  0.08247856754701391  0.5553919870223042  0.19724630226865256  1.0000
  C   C27       1.0  0.5824758531370479  0.9446066236286227  0.19724546225046413  1.0000
  C   C28       1.0  0.9175190712156934  0.44460249120804457  0.8027527486731569  1.0000
  C   C29       1.0  0.36851343623456506  0.9431772178843194  0.8625701434062377  1.0000
  C   C30       1.0  0.13148328110141702  0.44317201852272353  0.13743175365833335  1.0000
  C   C31       1.0  0.63147995976761  0.05682533480150911  0.13743064834608987  1.0000
  C   C32       1.0  0.8685186350897993  0.5568247666916977  0.8625687617849065  1.0000
  C   C33       1.0  0.3957094115545275  0.20730754257874653  0.841749233972365  1.0000
  C   C34       1.0  0.10428353750049983  0.7073034775389786  0.15825235632612328  1.0000
  C   C35       1.0  0.6042839775118694  0.7926950101063568  0.15825091671811714  1.0000
  C   C36       1.0  0.8957112658250564  0.29269100069418386  0.8417472140927698  1.0000
  C   C37       1.0  0.3125086325542624  0.0265000154469561  0.9381969799765739  1.0000
  C   C38       1.0  0.18748751079097303  0.5264956002795388  0.061802072307777685  1.0000
  C   C39       1.0  0.6874875780753057  0.9735048442196473  0.06180136911375198  1.0000
  C   C40       1.0  0.8125157919102508  0.47349887794445794  0.9381952986180264  1.0000
  N   N1        1.0  0.7020363386046499  0.7085087621949812  0.46837526145583996  1.0000
  N   N2        1.0  0.7979875329711491  0.20851227410743428  0.5316266050551518  1.0000
  N   N3        1.0  0.29797413244601506  0.29149033000183533  0.5316281829896423  1.0000
  N   N4        1.0  0.2020370875197132  0.7914891250581703  0.4683716777581636  1.0000
  N   N5        1.0  0.5406356086580218  0.7871899803454526  0.6340562103996559  1.0000
  N   N6        1.0  0.9593667660446815  0.28718363391139695  0.3659435035930371  1.0000
  N   N7        1.0  0.4593648655321375  0.21281372582512864  0.36594232106749996  1.0000
  N   N8        1.0  0.04063655052566871  0.7128131512998053  0.6340551494570547  1.0000
  N   N9        1.0  0.4652567043416128  0.6085775410919112  0.7279192179234284  1.0000
  N   N10       1.0  0.03474353021799461  0.1085716466011206  0.2720800600224251  1.0000
  N   N11       1.0  0.5347437837188879  0.39142731857300117  0.2720805956677167  1.0000
  N   N12       1.0  0.9652555227941805  0.8914239851203335  0.7279184106502254  1.0000
  O   O1        1.0  0.3328142371493712  0.18702927855052567  0.9221154571632153  1.0000
  O   O2        1.0  0.16718729547176994  0.6870295458195201  0.07788776932033407  1.0000
  O   O3        1.0  0.6671834224170327  0.8129686601606423  0.07788551696503276  1.0000
  O   O4        1.0  0.8328131995305628  0.3129695463817087  0.9221126853311288  1.0000
  O   O5        1.0  0.4247963654883763  0.33616994612047085  0.8146024686910991  1.0000
  O   O6        1.0  0.07519062130423751  0.8361613745480839  0.18539830533227075  1.0000
  O   O7        1.0  0.5751956093261301  0.6638337600592763  0.18539826226915318  1.0000
  O   O8        1.0  0.924799897653408  0.1638342571789195  0.8145991595242631  1.0000
  O   O9        1.0  0.2589378293590557  0.9843341071518381  0.005441045414052297  1.0000
  O   O10       1.0  0.24105314454978816  0.4843318417664834  0.9945631944338088  1.0000
  O   O11       1.0  0.7410556013219961  0.0156684455376137  0.9945629516474737  1.0000
  O   O12       1.0  0.7589516625647764  0.5156649434509222  0.005441930027068104  1.0000
