data_image0
_chemical_formula_structural       Cu2H23C25N15O2
_chemical_formula_sum              "Cu2 H23 C25 N15 O2"
_cell_length_a       8.074247568832172
_cell_length_b       8.068115939902054
_cell_length_c       12.520674696413327
_cell_angle_alpha    96.79876818317706
_cell_angle_beta     108.02579472851146
_cell_angle_gamma    109.61837352441863

_space_group_name_H-M_alt    "P 1"
_space_group_IT_number       1

loop_
  _space_group_symop_operation_xyz
  'x, y, z'

loop_
  _atom_site_type_symbol
  _atom_site_label
  _atom_site_symmetry_multiplicity
  _atom_site_fract_x
  _atom_site_fract_y
  _atom_site_fract_z
  _atom_site_occupancy
  Cu  Cu1       1.0  0.5601344568631886  0.8577541897999906  0.4772869595820097  1.0000
  Cu  Cu2       1.0  0.3806127139174507  0.08326235403789181  0.5229284519028283  1.0000
  H   H1        1.0  0.9176458977690911  0.26987742182117097  0.3444321226223294  1.0000
  H   H2        1.0  0.924768145048347  0.5729087645193544  0.6551314596833393  1.0000
  H   H3        1.0  0.6581578769626122  0.142712735973724  0.9997152688298386  1.0000
  H   H4        1.0  0.14408512754092584  0.6598553932662269  0.00014771767630610577  1.0000
  H   H5        1.0  0.7170866474410149  0.6241463622693004  0.369040152019025  1.0000
  H   H6        1.0  0.2554714998250134  0.34831338117883337  0.6309165634073821  1.0000
  H   H7        1.0  0.561286269418666  0.3916918147437299  0.3287315402174825  1.0000
  H   H8        1.0  0.06349770539548417  0.23317722399651325  0.6713888008670708  1.0000
  H   H9        1.0  0.8409766394061648  0.40591862338022366  0.9436255741193804  1.0000
  H   H10       1.0  0.46354437341057764  0.8982013348273552  0.05625740682748406  1.0000
  H   H11       1.0  0.7817972523785739  0.2818928443616073  0.4997422259886902  1.0000
  H   H12       1.0  0.9294538682615255  0.7220550110996341  0.05683088279381109  1.0000
  H   H13       1.0  0.666130856484024  0.8728332580345677  0.9430608692955857  1.0000
  H   H14       1.0  0.8259224772586649  0.7675784961034893  0.2194594841356476  1.0000
  H   H15       1.0  0.5487094505656671  0.6063701979094204  0.7805560522688708  1.0000
  H   H16       1.0  0.54660232447317  0.1886498294909557  0.16151416270139404  1.0000
  H   H17       1.0  0.02784729349340853  0.38643651360935377  0.8383335655280318  1.0000
  H   H18       1.0  0.17219323796631864  0.43378958747782537  0.0947568026437722  1.0000
  H   H19       1.0  0.3384379530454212  0.07723569171276518  0.9053305079490457  1.0000
  H   H20       1.0  0.2641959773106635  0.2785911128693569  0.1574112884607715  1.0000
  H   H21       1.0  0.1208994499311871  0.10683449698844069  0.8424691239182849  1.0000
  H   H22       1.0  0.47268533998094847  0.6756426786624842  0.20585063945171808  1.0000
  H   H23       1.0  0.4696388892433419  0.2666947341230993  0.7943068636230279  1.0000
  C   C1        1.0  0.6771084596442876  0.4811790095141788  0.20108791108455656  1.0000
  C   C2        1.0  0.2807733703905484  0.47657538596164517  0.7988727920854827  1.0000
  C   C3        1.0  0.9742524722227158  0.3910758896828737  0.4142096205748587  1.0000
  C   C4        1.0  0.9764626482691982  0.5598696384243523  0.5854865318588836  1.0000
  C   C5        1.0  0.2241105760601911  0.5308047785964333  0.3381456796884734  1.0000
  C   C6        1.0  0.19247146833676956  0.8858127229581638  0.6619055586018092  1.0000
  C   C7        1.0  0.6919489317225143  0.2793991723910381  0.04723525455415259  1.0000
  C   C8        1.0  0.2331542200648966  0.6458757021050087  0.9526448362250973  1.0000
  C   C9        1.0  0.6052158721448322  0.513377327484086  0.29592825735448963  1.0000
  C   C10       1.0  0.21788876489047476  0.3096927884125548  0.7041007208129457  1.0000
  C   C11       1.0  0.796778071516421  0.4283390246264886  0.016056845457647694  1.0000
  C   C12       1.0  0.41329487638507345  0.7815683799329844  0.983768555846936  1.0000
  C   C13       1.0  0.12912006029201004  0.543130950663155  0.4202332141595235  1.0000
  C   C14       1.0  0.12273888971883902  0.7088023711729644  0.5797335724724775  1.0000
  C   C15       1.0  0.8989240705933667  0.3989812274524168  0.49981092697045426  1.0000
  C   C16       1.0  0.8452970506684422  0.6039703446638709  0.07872331034501907  1.0000
  C   C17       1.0  0.526097310461118  0.7670107229291359  0.9211495678226597  1.0000
  C   C18       1.0  0.4365023456832233  0.568918550115228  0.2517421777228961  1.0000
  C   C19       1.0  0.3171206939304554  0.1847423206156121  0.7483391765896528  1.0000
  C   C20       1.0  0.7868160821803868  0.6298615610056045  0.1707816454571685  1.0000
  C   C21       1.0  0.4597985346539701  0.6163037579696746  0.8291904951023312  1.0000
  C   C22       1.0  0.6311696418160864  0.30558397047575875  0.13852361986663198  1.0000
  C   C23       1.0  0.16788807077404747  0.4937035259753485  0.8613488094572473  1.0000
  C   C24       1.0  0.2487581567591519  0.40785631525545796  0.1755357485572659  1.0000
  C   C25       1.0  0.2319667252565338  0.0731069635066532  0.8244807644558421  1.0000
  N   N1        1.0  0.20132019369537338  0.7012279767149392  0.5000803210634146  1.0000
  N   N2        1.0  0.39085641227133994  0.6406508728051746  0.3485029387360186  1.0000
  N   N3        1.0  0.2921040505600843  0.04231811969336969  0.6516203210541037  1.0000
  N   N4        1.0  0.36535332968623624  0.9928835485525622  0.28980246534031545  1.0000
  N   N5        1.0  0.7033950264077049  0.07597292153647568  0.7103617407663876  1.0000
  N   N6        1.0  0.4689238598094719  0.03403732865245959  0.39082273519033356  1.0000
  N   N7        1.0  0.643109527891106  0.07825361294416672  0.6092976480151222  1.0000
  N   N8        1.0  0.2711666139722765  0.9595626483725537  0.1922620447910148  1.0000
  N   N9        1.0  0.7680622700759017  0.07964589448944537  0.8079339376003035  1.0000
  N   N10       1.0  0.587575596666575  0.5674151204679773  0.5773842385647683  1.0000
  N   N11       1.0  0.9904314841694843  0.0103422459085891  0.4229400695658185  1.0000
  N   N12       1.0  0.6630673372170933  0.7268090070793533  0.5862270956785594  1.0000
  N   N13       1.0  0.1407749120213779  0.07702634279503677  0.4139527334159183  1.0000
  N   N14       1.0  0.523161226231622  0.4126447323323034  0.5751393917271557  1.0000
  N   N15       1.0  0.8381495269933763  0.948121268570297  0.42537163039764175  1.0000
  O   O1        1.0  0.1309914492285528  0.38802554826492025  0.245776538265865  1.0000
  O   O2        1.0  0.14205989910782774  0.8850402303810507  0.7542737740009641  1.0000
