data_image0
_chemical_formula_structural       Cd2H24C40N20
_chemical_formula_sum              "Cd2 H24 C40 N20"
_cell_length_a       7.823604539640902
_cell_length_b       9.363970129400123
_cell_length_c       14.255772089592964
_cell_angle_alpha    98.20342642510495
_cell_angle_beta     105.65459743134672
_cell_angle_gamma    102.6848916028846

_space_group_name_H-M_alt    "P 1"
_space_group_IT_number       1

loop_
  _space_group_symop_operation_xyz
  'x, y, z'

loop_
  _atom_site_type_symbol
  _atom_site_label
  _atom_site_symmetry_multiplicity
  _atom_site_fract_x
  _atom_site_fract_y
  _atom_site_fract_z
  _atom_site_occupancy
  Cd  Cd1       1.0  0.9990777519050057  0.48713234218147516  0.23945392192043624  1.0000
  Cd  Cd2       1.0  0.0009184962852160629  0.5128777728760953  0.7605404517423937  1.0000
  H   H1        1.0  0.7226149052542539  0.2917142170164269  0.029924172614037996  1.0000
  H   H2        1.0  0.2773833630041267  0.7082808686004398  0.9700792851434558  1.0000
  H   H3        1.0  0.8257009350376237  0.7199799694869853  0.0060144268641124975  1.0000
  H   H4        1.0  0.1742914619836498  0.28001732607559404  0.9939891790516813  1.0000
  H   H5        1.0  0.0621852120498261  0.15197294340964618  0.2550381626884075  1.0000
  H   H6        1.0  0.9378226184213646  0.8480312292325607  0.7449648426691983  1.0000
  H   H7        1.0  0.0454833080560278  0.659622761642595  0.4601700026132535  1.0000
  H   H8        1.0  0.9545100091847802  0.34037347535645074  0.5398322047424886  1.0000
  H   H9        1.0  0.547814927750224  0.1061676291745073  0.8629883856754008  1.0000
  H   H10       1.0  0.4521818083047436  0.8938308177121571  0.13701524656759295  1.0000
  H   H11       1.0  0.40702301593182705  0.2967155129272853  0.6693843132395756  1.0000
  H   H12       1.0  0.5929646528859535  0.7032921138946406  0.33061421135335683  1.0000
  H   H13       1.0  0.11152549270454411  0.8335198882188523  0.6275654737384857  1.0000
  H   H14       1.0  0.8884499728734029  0.1664864017413095  0.3724361337726522  1.0000
  H   H15       1.0  0.1864797056593659  0.8378757588593687  0.2321845826096905  1.0000
  H   H16       1.0  0.8135193106636508  0.16212156759296192  0.7678192346579352  1.0000
  H   H17       1.0  0.623276416918067  0.6617000637822771  0.829974398553148  1.0000
  H   H18       1.0  0.3767272137760145  0.3382997199993484  0.17002542121223743  1.0000
  H   H19       1.0  0.24837723860331098  0.09216700454518188  0.7345667892197271  1.0000
  H   H20       1.0  0.751615656569392  0.9078407768997894  0.2654289619455171  1.0000
  H   H21       1.0  0.42022470060339856  0.2517661008248098  0.4956124929497464  1.0000
  H   H22       1.0  0.5797497537233768  0.7482384431998526  0.5043775454925739  1.0000
  H   H23       1.0  0.4829536788778698  0.8520328664103405  0.7586489183218463  1.0000
  H   H24       1.0  0.5170531687529518  0.14796470744217058  0.24135038850554486  1.0000
  C   C1        1.0  0.6184701241146157  0.5806598321063705  0.12880238810977576  1.0000
  C   C2        1.0  0.381527827122234  0.41933105021250594  0.8711942276405511  1.0000
  C   C3        1.0  0.7001919396702975  0.42872988199424367  0.37507687457647193  1.0000
  C   C4        1.0  0.29984661152242614  0.57126797004031  0.6249205042305663  1.0000
  C   C5        1.0  0.806075958600218  0.9481025789716212  0.034168429321383156  1.0000
  C   C6        1.0  0.1939273638581795  0.0518959606672809  0.9658340130786061  1.0000
  C   C7        1.0  0.4010760562227987  0.4250253522891398  0.3690382540986548  1.0000
  C   C8        1.0  0.5989305687831247  0.5749696645143275  0.6309424803205277  1.0000
  C   C9        1.0  0.327960185645999  0.5944350586215634  0.13192051063147403  1.0000
  C   C10       1.0  0.6720532913840955  0.40557807734588647  0.8680842975463536  1.0000
  C   C11       1.0  0.26921717087022046  0.018126562710385503  0.46165475560209773  1.0000
  C   C12       1.0  0.7307554549791178  0.9818752765183945  0.5383452499015108  1.0000
  C   C13       1.0  0.7279710353014862  0.058258267816064815  0.9923502757212789  1.0000
  C   C14       1.0  0.27201888836017224  0.9417386875193898  0.007660671986414538  1.0000
  C   C15       1.0  0.18437826790495393  0.8990072854000603  0.5007113649341265  1.0000
  C   C16       1.0  0.8156403670600556  0.10098098477559601  0.4992962167126935  1.0000
  C   C17       1.0  0.7786581876095156  0.20176111990279114  0.05487728731046108  1.0000
  C   C18       1.0  0.22135434265435094  0.7982375743342588  0.9451229288314027  1.0000
  C   C19       1.0  0.7641636348221043  0.8030900244996958  0.9743624210162881  1.0000
  C   C20       1.0  0.2358166114826261  0.19689806032915413  0.02564407490937273  1.0000
  C   C21       1.0  0.9636076437815219  0.12139443643690129  0.17993037038230852  1.0000
  C   C22       1.0  0.036428332180818875  0.8786110420362335  0.8200724413327125  1.0000
  C   C23       1.0  0.10916837140367623  0.7570386852582872  0.43527811912523623  1.0000
  C   C24       1.0  0.8908158247649638  0.24296203347807213  0.5647233481319633  1.0000
  C   C25       1.0  0.6088950492786578  0.021653916658372904  0.892770446879375  1.0000
  C   C26       1.0  0.391120596051181  0.9783505343152685  0.1072273474405706  1.0000
  C   C27       1.0  0.34384023546228093  0.18565717695997827  0.6210137389232744  1.0000
  C   C28       1.0  0.6561477744894972  0.8143516321421772  0.37898356422988416  1.0000
  C   C29       1.0  0.17779856027291896  0.9263036327764171  0.599862350395391  1.0000
  C   C30       1.0  0.8221811817179087  0.0736961511545928  0.4001341863526876  1.0000
  C   C31       1.0  0.19108354651275763  0.85782247827553  0.3102329854933928  1.0000
  C   C32       1.0  0.8088865807419694  0.1421760925021047  0.6897641965629122  1.0000
  C   C33       1.0  0.6505252452977788  0.7717463010877806  0.8769649547500225  1.0000
  C   C34       1.0  0.3494763728023074  0.22825889921990247  0.12303942020564312  1.0000
  C   C35       1.0  0.2554303918567485  0.06865063402420901  0.6588029072088875  1.0000
  C   C36       1.0  0.7445624494809734  0.9313524492228068  0.3411972115078755  1.0000
  C   C37       1.0  0.3516963205605065  0.16216810050190134  0.5246332994005771  1.0000
  C   C38       1.0  0.6482998276230774  0.8378296280732441  0.47536104532091644  1.0000
  C   C39       1.0  0.5718159391211087  0.880185789159775  0.8357500932738589  1.0000
  C   C40       1.0  0.4281957038215297  0.11981390177831493  0.164252922622886  1.0000
  N   N1        1.0  0.1119943132893511  0.7358152532094735  0.34176827656973074  1.0000
  N   N2        1.0  0.8880052821192096  0.264179832399094  0.6582353635776175  1.0000
  N   N3        1.0  0.8960546651493076  0.23403674859446974  0.14647157036591818  1.0000
  N   N4        1.0  0.10393982353593152  0.7659627568640204  0.8535332780472732  1.0000
  N   N5        1.0  0.9224206821600945  0.982421036298838  0.13001504105007206  1.0000
  N   N6        1.0  0.077577446841687  0.017577286854532307  0.869991575972442  1.0000
  N   N7        1.0  0.7465559105397902  0.5323133806979784  0.1317796056999115  1.0000
  N   N8        1.0  0.2534454266128989  0.46767977337101035  0.8682170337428234  1.0000
  N   N9        1.0  0.24332800814968178  0.4180099423035982  0.33669800476840095  1.0000
  N   N10       1.0  0.7566959292535884  0.5820005128234129  0.6632924925096902  1.0000
  N   N11       1.0  0.17730462765199212  0.5623460521991748  0.13787088627703536  1.0000
  N   N12       1.0  0.8227039553713384  0.4376651522701848  0.8621260092469287  1.0000
  N   N13       1.0  0.8306805438101464  0.42609573630002023  0.3489354597797388  1.0000
  N   N14       1.0  0.16934864255967608  0.5738926575342378  0.6510707785962212  1.0000
  N   N15       1.0  0.5704631342383594  0.43200064055704973  0.4142807538394352  1.0000
  N   N16       1.0  0.429553968712412  0.5679976137165144  0.5857045989635596  1.0000
  N   N17       1.0  0.4889430987545822  0.6468176129458955  0.12334533396575155  1.0000
  N   N18       1.0  0.5110636096196545  0.3531831984431193  0.8766571321266597  1.0000
  N   N19       1.0  0.2695666390230473  0.9944208669673748  0.3647213968962931  1.0000
  N   N20       1.0  0.7304282104211737  0.005572008761880903  0.6352806359739561  1.0000
