data_image0
_chemical_formula_structural       H72Pb4C96N24O28
_chemical_formula_sum              "H72 Pb4 C96 N24 O28"
_cell_length_a       14.552434284165201
_cell_length_b       14.552390750051403
_cell_length_c       15.886319367396489
_cell_angle_alpha    112.20683933544629
_cell_angle_beta     112.20658844688572
_cell_angle_gamma    91.7693618017717

_space_group_name_H-M_alt    "P 1"
_space_group_IT_number       1

loop_
  _space_group_symop_operation_xyz
  'x, y, z'

loop_
  _atom_site_type_symbol
  _atom_site_label
  _atom_site_symmetry_multiplicity
  _atom_site_fract_x
  _atom_site_fract_y
  _atom_site_fract_z
  _atom_site_occupancy
  H   H1        1.0  0.8528243699810433  0.9084914859449709  0.5207356854769074  1.0000
  H   H2        1.0  0.5914941866951864  0.6471753539994934  0.9792742499501158  1.0000
  H   H3        1.0  0.1471980481776853  0.09150271258919668  0.47928338739260556  1.0000
  H   H4        1.0  0.40850538665981867  0.35283189548342614  0.02073827813394055  1.0000
  H   H5        1.0  0.8331289983253855  0.9055246179627046  0.35680337643701415  1.0000
  H   H6        1.0  0.5944697695188595  0.6668512900633486  0.14321019675155364  1.0000
  H   H7        1.0  0.1668759616666051  0.09447188532267597  0.6432009976992672  1.0000
  H   H8        1.0  0.40552847834542394  0.33312301488417956  0.8568005147590154  1.0000
  H   H9        1.0  0.9363776008488572  0.2290468522187226  0.49585832160794757  1.0000
  H   H10       1.0  0.2709466180724576  0.5636107356338442  0.004166230270918309  1.0000
  H   H11       1.0  0.06360074841469301  0.7709529846838873  0.5041612683206863  1.0000
  H   H12       1.0  0.7290496861802114  0.43643741326543756  0.9958423558616046  1.0000
  H   H13       1.0  0.9540497218496357  0.2329916711922379  0.660041129487233  1.0000
  H   H14       1.0  0.2670097790415937  0.5459630497897975  0.8399847963986318  1.0000
  H   H15       1.0  0.04593778598692211  0.7670019217324082  0.33996877045127855  1.0000
  H   H16       1.0  0.7329954042146625  0.45412258247048937  0.16003609581308337  1.0000
  H   H17       1.0  0.0484691768704408  0.17853281530840082  0.777860740407675  1.0000
  H   H18       1.0  0.32144690049248237  0.4515357698481423  0.7221542046690742  1.0000
  H   H19       1.0  0.951543441025983  0.8214504300910476  0.2221530216188866  1.0000
  H   H20       1.0  0.678550924042554  0.5485082244428765  0.27787298128475146  1.0000
  H   H21       1.0  0.1408655383862012  0.24513252167663058  0.956379227448039  1.0000
  H   H22       1.0  0.2548408374088424  0.35913776923104007  0.5436335390524434  1.0000
  H   H23       1.0  0.8591337212206726  0.7548004259380076  0.043620635693436306  1.0000
  H   H24       1.0  0.7452033551880035  0.6408966111187339  0.45639443671905866  1.0000
  H   H25       1.0  0.15795615477239272  0.2516249727039934  0.12059361353633585  1.0000
  H   H26       1.0  0.24837913665553663  0.3420352596525972  0.3794210547727204  1.0000
  H   H27       1.0  0.8420635393475494  0.748316689522582  0.8794182497177799  1.0000
  H   H28       1.0  0.7516950762075824  0.6579311599599719  0.6205931300802586  1.0000
  H   H29       1.0  0.021003686231864504  0.14717293837345835  0.1256858564065766  1.0000
  H   H30       1.0  0.35287669018506324  0.4789760057556973  0.3743519095861102  1.0000
  H   H31       1.0  0.9789856404898103  0.852770553991604  0.8743154779477249  1.0000
  H   H32       1.0  0.6472361125403554  0.5210081092621477  0.6256862066721353  1.0000
  H   H33       1.0  0.8706660812721198  0.040148007282134336  0.9627704537167076  1.0000
  H   H34       1.0  0.45990331524715344  0.6293181220844131  0.537278453500086  1.0000
  H   H35       1.0  0.1293191977681545  0.9598391892631848  0.0372295299817296  1.0000
  H   H36       1.0  0.5401759920774297  0.3706805202062639  0.4627637838709119  1.0000
  H   H37       1.0  0.28694869830226116  0.6980412485252568  0.6318255643830353  1.0000
  H   H38       1.0  0.8019787417495792  0.21308479636881109  0.8681600229286415  1.0000
  H   H39       1.0  0.7130764729584131  0.3020062612154532  0.3681726707111466  1.0000
  H   H40       1.0  0.19805558988540645  0.7869594546874337  0.13181256261803034  1.0000
  H   H41       1.0  0.11053317231877459  0.693252625790407  0.6243100270282936  1.0000
  H   H42       1.0  0.8067305879696534  0.3894652213665848  0.8756319705721933  1.0000
  H   H43       1.0  0.8894756363798988  0.3067402517752809  0.3756679865929085  1.0000
  H   H44       1.0  0.19324551637572546  0.6105461040229938  0.12430458812623613  1.0000
  H   H45       1.0  0.08994793532735201  0.7674036594260297  0.7832888404364622  1.0000
  H   H46       1.0  0.7325294748115497  0.4100360405046217  0.7166529409959423  1.0000
  H   H47       1.0  0.9100385338469722  0.232514760621143  0.21668392096913178  1.0000
  H   H48       1.0  0.26739955135129634  0.5899750921075293  0.2832892512009763  1.0000
  H   H49       1.0  0.24825599849273772  0.843842080793962  0.9476033678004396  1.0000
  H   H50       1.0  0.6560863360400617  0.2517218944622924  0.5523484064859687  1.0000
  H   H51       1.0  0.7517387114308889  0.15609364543755075  0.05237825572868347  1.0000
  H   H52       1.0  0.34383670393552274  0.7482761164561609  0.44758400990273367  1.0000
  H   H53       1.0  0.4238117069738577  0.9000806301587259  0.03291568845120447  1.0000
  H   H54       1.0  0.5998215565274094  0.07613929335532522  0.4670626018214462  1.0000
  H   H55       1.0  0.5761655098461915  0.09985587418538697  0.9670878335433242  1.0000
  H   H56       1.0  0.4000841065104339  0.9238379813549426  0.5328987679711473  1.0000
  H   H57       1.0  0.5353714362197834  0.9480625905351799  0.16361289382378894  1.0000
  H   H58       1.0  0.5519467814877005  0.9645972190125814  0.3363897054520423  1.0000
  H   H59       1.0  0.46463622941499244  0.05198941418029078  0.8363997121361777  1.0000
  H   H60       1.0  0.44804461483971647  0.035386820935677576  0.6635892737376848  1.0000
  H   H61       1.0  0.6880602424891791  0.041283775562298765  0.3174965219954371  1.0000
  H   H62       1.0  0.4587356714972373  0.8119115549207406  0.18250620543887658  1.0000
  H   H63       1.0  0.31193924240468374  0.9587397947945957  0.6825109360113472  1.0000
  H   H64       1.0  0.541257943901833  0.18807887169488416  0.8174908663966107  1.0000
  H   H65       1.0  0.8701063377279326  0.9811967380290337  0.15073024525834464  1.0000
  H   H66       1.0  0.5187598668981509  0.6298838399904837  0.349287551839545  1.0000
  H   H67       1.0  0.12991088096734424  0.018777066939890095  0.8492912800062342  1.0000
  H   H68       1.0  0.4812374409792922  0.370122197595016  0.6507206225946475  1.0000
  H   H69       1.0  0.7156914981400747  0.8807526611671289  0.9932219448578508  1.0000
  H   H70       1.0  0.6192051179095373  0.7842867417573911  0.5067892620224084  1.0000
  H   H71       1.0  0.2843203005343398  0.11924006126888287  0.006796079478746678  1.0000
  H   H72       1.0  0.380796727323336  0.2157239636358027  0.4932114046020502  1.0000
  Pb  Pb1       1.0  0.7649820250228245  0.9630635778497447  0.7055698904483876  1.0000
  Pb  Pb2       1.0  0.536941775363637  0.7350104351070924  0.7944458007868034  1.0000
  Pb  Pb3       1.0  0.2350159850520299  0.036955242035965286  0.2944240775179309  1.0000
  Pb  Pb4       1.0  0.46306394533806383  0.2649877208101116  0.20554933896053024  1.0000
  C   C1        1.0  0.8713137820802928  0.9784102945445947  0.5149859809959804  1.0000
  C   C2        1.0  0.5215823675924867  0.6286745850244698  0.9850332088945207  1.0000
  C   C3        1.0  0.1286881755781764  0.021578892792455  0.4850248853383831  1.0000
  C   C4        1.0  0.4784209944877134  0.37133494582444354  0.014974500673837047  1.0000
  C   C5        1.0  0.8605888464125758  0.9767762292305804  0.4238729847531745  1.0000
  C   C6        1.0  0.5232216871407048  0.6394035842827747  0.07614734194845603  1.0000
  C   C7        1.0  0.1394131072842342  0.023214445897231397  0.5761339900053457  1.0000
  C   C8        1.0  0.47678550923876634  0.36059857708961107  0.9238641770586893  1.0000
  C   C9        1.0  0.8843072666729695  0.06736245449108218  0.4178143941379203  1.0000
  C   C10       1.0  0.4326331864056031  0.6156743620818188  0.08220025476694558  1.0000
  C   C11       1.0  0.11570529379132921  0.9326296840346229  0.582204321376345  1.0000
  C   C12       1.0  0.5673687531620857  0.3843207741770626  0.9177969321268761  1.0000
  C   C13       1.0  0.9196042808260145  0.15949076183886746  0.5028402872442894  1.0000
  C   C14       1.0  0.3405049338821513  0.5804008706949231  0.9971878712540557  1.0000
  C   C15       1.0  0.08039380319185341  0.8405087391791138  0.4971854025795395  1.0000
  C   C16       1.0  0.6594890443579403  0.4196557022079829  0.002820312359808898  1.0000
  C   C17       1.0  0.9311118551243  0.1607942399040923  0.5943952485968464  1.0000
  C   C18       1.0  0.33920670427879435  0.5688874743480665  0.9056320678633724  1.0000
  C   C19       1.0  0.06888701259826041  0.8392032073425921  0.40561992907767314  1.0000
  C   C20       1.0  0.6607934642219818  0.4311481138691135  0.0943804257062908  1.0000
  C   C21       1.0  0.9074706117881705  0.07032717635333799  0.6016090766384891  1.0000
  C   C22       1.0  0.42966647695872945  0.5925359410189373  0.8984149800837925  1.0000
  C   C23       1.0  0.09252605237723802  0.9296601703521215  0.39839302017274736  1.0000
  C   C24       1.0  0.5703335928296553  0.40751446608704345  0.10160828511584437  1.0000
  C   C25       1.0  0.9874388773580449  0.13008921109873475  0.7759377007402148  1.0000
  C   C26       1.0  0.369893206571895  0.51256867284264  0.7240808890713735  1.0000
  C   C27       1.0  0.012565378719017401  0.8698959999184337  0.22407510142522813  1.0000
  C   C28       1.0  0.6301114857087384  0.48747231549796044  0.2759318996920398  1.0000
  C   C29       1.0  0.9963771533363613  0.1383143326200056  0.8733710197246936  1.0000
  C   C30       1.0  0.36168040164240983  0.503619053943808  0.6266460184652588  1.0000
  C   C31       1.0  0.003647745067446799  0.8616454903650562  0.12664517192955324  1.0000
  C   C32       1.0  0.6383311901608835  0.49641150144573465  0.3733617677184282  1.0000
  C   C33       1.0  0.08167363465589259  0.20128347083858233  0.9602336729111585  1.0000
  C   C34       1.0  0.2987121372321155  0.41832295844386624  0.5397889091418477  1.0000
  C   C35       1.0  0.9183307005736128  0.7986876476289236  0.03978119226206891  1.0000
  C   C36       1.0  0.70132381334075  0.5816926227012827  0.46023849876197426  1.0000
  C   C37       1.0  0.09127543802150483  0.20506898055599262  0.05227221257246838  1.0000
  C   C38       1.0  0.29494731970376625  0.40871570987861344  0.4477510253404943  1.0000
  C   C39       1.0  0.9087343888738887  0.7948743415125745  0.9477292499096347  1.0000
  C   C40       1.0  0.7051138054256468  0.5912784000495319  0.5522801850960162  1.0000
  C   C41       1.0  0.0155286252980247  0.14720177129548515  0.055278458788769996  1.0000
  C   C42       1.0  0.3528358652935708  0.4844610511652333  0.4447573592085162  1.0000
  C   C43       1.0  0.9844536361156315  0.8527803316492136  0.944730041672535  1.0000
  C   C44       1.0  0.6472289643936904  0.5155479359229105  0.5552784087317804  1.0000
  C   C45       1.0  0.9321313306683835  0.08738351222337569  0.9652044768655299  1.0000
  C   C46       1.0  0.4126665924674596  0.56784652492977  0.5348348627318413  1.0000
  C   C47       1.0  0.06786314204627791  0.9125877790424252  0.03480325015724613  1.0000
  C   C48       1.0  0.5874188408156301  0.4321459859293879  0.4651935243278514  1.0000
  C   C49       1.0  0.2744395289514685  0.7277691566439443  0.6998930540130246  1.0000
  C   C50       1.0  0.7722334935492513  0.22556430762625712  0.8000769155295514  1.0000
  C   C51       1.0  0.7255735797829531  0.2722646995267936  0.3001000371184687  1.0000
  C   C52       1.0  0.22775706715597718  0.7744388893369772  0.19987316879863923  1.0000
  C   C53       1.0  0.17686746920695381  0.7251456137784941  0.6958873502702615  1.0000
  C   C54       1.0  0.7748607664067109  0.32313350387487805  0.8040647915268122  1.0000
  C   C55       1.0  0.8231414011069164  0.27483539134403395  0.30409663778635826  1.0000
  C   C56       1.0  0.22513206468028812  0.676873147504487  0.19587468925034549  1.0000
  C   C57       1.0  0.1656679955121803  0.7665613197452141  0.7854203613513915  1.0000
  C   C58       1.0  0.7334191862851683  0.33432897118228055  0.7145391103139501  1.0000
  C   C59       1.0  0.8343334038762934  0.23339807393806203  0.21456675708470385  1.0000
  C   C60       1.0  0.2665470521372626  0.6656802859810182  0.28540400952636696  1.0000
  C   C61       1.0  0.34805584677026513  0.8081959780043986  0.8733395820481604  1.0000
  C   C62       1.0  0.6917795696767969  0.1519424873740221  0.6266341934146807  1.0000
  C   C63       1.0  0.6519497970231427  0.19181627270368298  0.12665160782853485  1.0000
  C   C64       1.0  0.3081950286529747  0.8480625646411255  0.3733223276705146  1.0000
  C   C65       1.0  0.2523989320513209  0.8093802520456275  0.8753540710859226  1.0000
  C   C66       1.0  0.6905659482676398  0.2475948895957315  0.6246074579939032  1.0000
  C   C67       1.0  0.7476063783232905  0.19055916889639238  0.12463377031232173  1.0000
  C   C68       1.0  0.3093752991422464  0.7524039495233479  0.3753328207060703  1.0000
  C   C69       1.0  0.43848774236775523  0.8559124401746343  0.9677472914740121  1.0000
  C   C70       1.0  0.6440197238128533  0.06148592601673638  0.5322380715728625  1.0000
  C   C71       1.0  0.5615029228935812  0.14406177213687946  0.03225572175184504  1.0000
  C   C72       1.0  0.3559282997217039  0.9385172743866403  0.46772873166875667  1.0000
  C   C73       1.0  0.6141069633296895  0.9043744454560777  0.06617809602611394  1.0000
  C   C74       1.0  0.5956066087401055  0.8858703726346773  0.43382822932973397  1.0000
  C   C75       1.0  0.38589333020279787  0.09564038316827352  0.9338303868569824  1.0000
  C   C76       1.0  0.40439227125644095  0.11413007036454556  0.5661621834274155  1.0000
  C   C77       1.0  0.6080185313626388  0.9507644580885638  0.159025233882403  1.0000
  C   C78       1.0  0.5492393159957346  0.8919483652077099  0.34098353293776257  1.0000
  C   C79       1.0  0.39198547902859815  0.04926302235976719  0.840988297756837  1.0000
  C   C80       1.0  0.45074216531584455  0.10804176209526867  0.6590035605580551  1.0000
  C   C81       1.0  0.694233471575636  0.00441686356519  0.24665186515485962  1.0000
  C   C82       1.0  0.49556113686834646  0.8057472830684059  0.25335715983714374  1.0000
  C   C83       1.0  0.30577214304388894  0.9955953580070013  0.7533638539389357  1.0000
  C   C84       1.0  0.5044317089282373  0.1942459572759957  0.7466349558426159  1.0000
  C   C85       1.0  0.788726069629199  0.013031135458227547  0.24323632010677435  1.0000
  C   C86       1.0  0.4869372946898309  0.7112590855018155  0.25677709192717657  1.0000
  C   C87       1.0  0.21127665655158986  0.9869574746921753  0.7567695768167012  1.0000
  C   C88       1.0  0.5130471136806989  0.28874648718291945  0.7432270759347261  1.0000
  C   C89       1.0  0.7963448456001389  0.9701290501089445  0.15189517746488004  1.0000
  C   C90       1.0  0.5298349920279577  0.7036383746328878  0.3481153158170684  1.0000
  C   C91       1.0  0.203662471322744  0.029852347188175078  0.8481161045814004  1.0000
  C   C92       1.0  0.4701684273736646  0.2963630088528361  0.6518839220899506  1.0000
  C   C93       1.0  0.709665894896901  0.9149511932085513  0.06437786927855876  1.0000
  C   C94       1.0  0.585022975311027  0.7903088122606473  0.43563574346438105  1.0000
  C   C95       1.0  0.2903383098431362  0.08504217114840165  0.9356383729139565  1.0000
  C   C96       1.0  0.4149774153270513  0.20969194174382005  0.5643597075236713  1.0000
  N   N1        1.0  0.9150586662237572  0.06891026749786275  0.6920296159424165  1.0000
  N   N2        1.0  0.43107659978055324  0.5849561933732373  0.8079886616172018  1.0000
  N   N3        1.0  0.08494026715946032  0.9310782948403754  0.30797368974727135  1.0000
  N   N4        1.0  0.5689302453575423  0.41510379535851866  0.19203650090863525  1.0000
  N   N5        1.0  0.9223543478857436  0.08293672006780638  0.8765623757902644  1.0000
  N   N6        1.0  0.4170896793421973  0.577630193352789  0.6234691784663369  1.0000
  N   N7        1.0  0.07765357083155068  0.9170685473617581  0.12346494914915951  1.0000
  N   N8        1.0  0.5829471714064169  0.42236480349962585  0.3765400705778389  1.0000
  N   N9        1.0  0.35810070091299917  0.7670542643105803  0.7861404662562136  1.0000
  N   N10       1.0  0.7329242185313588  0.14189441613029882  0.713836920099517  1.0000
  N   N11       1.0  0.6419003286166856  0.23296741338069168  0.21385428155958397  1.0000
  N   N12       1.0  0.2670595655494807  0.8580977061868675  0.28611956115831544  1.0000
  N   N13       1.0  0.5291805569238619  0.850804884557746  0.9741244721327857  1.0000
  N   N14       1.0  0.6491797812341105  0.9708054115863615  0.5258744016018111  1.0000
  N   N15       1.0  0.470820440634256  0.14922049057175707  0.025879100894783763  1.0000
  N   N16       1.0  0.3508152305526764  0.02920907988572448  0.4741082121423402  1.0000
  N   N17       1.0  0.897151916236112  0.7984900890820369  0.642362891082115  1.0000
  N   N18       1.0  0.7015269290041174  0.6028328771094776  0.8576852656971851  1.0000
  N   N19       1.0  0.1028422131874009  0.20153083287304693  0.35769151878078986  1.0000
  N   N20       1.0  0.2984597155324665  0.39717984518839683  0.14231901068831115  1.0000
  N   N21       1.0  0.6677332046565215  0.9753097255549361  0.8620292199730101  1.0000
  N   N22       1.0  0.5246707908490222  0.8322604638748387  0.6379595362557993  1.0000
  N   N23       1.0  0.3322618985835959  0.024688448031476174  0.13795594803128344  1.0000
  N   N24       1.0  0.47530688093267776  0.16774153288358917  0.36198125431375416  1.0000
  O   O1        1.0  0.8764520180604621  0.06803726084999791  0.32840087764660814  1.0000
  O   O2        1.0  0.4319652477000346  0.6235222940911384  0.17161866264835623  1.0000
  O   O3        1.0  0.1235475416082537  0.931971466711722  0.6716159352672972  1.0000
  O   O4        1.0  0.5680214920301269  0.37647411405642817  0.8283850232258485  1.0000
  O   O5        1.0  0.9297280280166974  0.8614006460742369  0.7341335458252158  1.0000
  O   O6        1.0  0.6386115132950395  0.5702508292115167  0.765921607692938  1.0000
  O   O7        1.0  0.07022599976594532  0.13859480959842327  0.2659289630007251  1.0000
  O   O8        1.0  0.3613879437834129  0.4297786803552483  0.23408034727900429  1.0000
  O   O9        1.0  0.8171869358664878  0.8094210217570603  0.5780894232465739  1.0000
  O   O10       1.0  0.6905596008143677  0.682802217565168  0.9219168974342649  1.0000
  O   O11       1.0  0.18282332083216352  0.19057583362206995  0.4219282409429609  1.0000
  O   O12       1.0  0.30941798738044207  0.3172034250833774  0.07807611619268326  1.0000
  O   O13       1.0  0.9400504996568274  0.7273246052327307  0.6147455871235292  1.0000
  O   O14       1.0  0.7726897697561982  0.5599340335918939  0.8853360317277321  1.0000
  O   O15       1.0  0.059960266910110194  0.27270050371421917  0.38534374334003013  1.0000
  O   O16       1.0  0.22728403957565746  0.44006337055100886  0.11468239835257779  1.0000
  O   O17       1.0  0.728435098178842  0.9141684318478621  0.856318466889  1.0000
  O   O18       1.0  0.5858195463186675  0.7715626557155062  0.6437037180208377  1.0000
  O   O19       1.0  0.27153886535860045  0.08580824183810168  0.1436714232876568  1.0000
  O   O20       1.0  0.4141830125537496  0.22845935165786802  0.35628034416875914  1.0000
  O   O21       1.0  0.6915090175375269  0.06327556922271067  0.8689160942959474  1.0000
  O   O22       1.0  0.4366969675914945  0.8084788496223466  0.6310440754960353  1.0000
  O   O23       1.0  0.3084771112571048  0.9367081477676888  0.13102506562343302  1.0000
  O   O24       1.0  0.563277589541798  0.19153660348083423  0.36889652573533027  1.0000
  O   O25       1.0  0.5833225842425876  0.9475823094203688  0.8601597061544765  1.0000
  O   O26       1.0  0.5523760817006719  0.916680414357202  0.6398278343106796  1.0000
  O   O27       1.0  0.4166656649112994  0.05242261312620399  0.13981031804065222  1.0000
  O   O28       1.0  0.44758404444953476  0.08333349615880788  0.36012485101108627  1.0000
