data_image0
_chemical_formula_structural       Rb4H8C20N12O20
_chemical_formula_sum              "Rb4 H8 C20 N12 O20"
_cell_length_a       4.0614507418163335
_cell_length_b       13.690740071557562
_cell_length_c       14.720600577000534
_cell_angle_alpha    90.00002137496986
_cell_angle_beta     90.00002098323642
_cell_angle_gamma    93.17955090389803

_space_group_name_H-M_alt    "P 1"
_space_group_IT_number       1

loop_
  _space_group_symop_operation_xyz
  'x, y, z'

loop_
  _atom_site_type_symbol
  _atom_site_label
  _atom_site_symmetry_multiplicity
  _atom_site_fract_x
  _atom_site_fract_y
  _atom_site_fract_z
  _atom_site_occupancy
  Rb  Rb1       1.0  0.9273721267826714  0.3071263694042941  0.9260961467498774  1.0000
  Rb  Rb2       1.0  0.0726313879527254  0.19287403561160232  0.42609610344975113  1.0000
  Rb  Rb3       1.0  0.07262790586742075  0.6928742794394508  0.0739033585693321  1.0000
  Rb  Rb4       1.0  0.9273711070710391  0.8071266143123597  0.573903401869579  1.0000
  H   H1        1.0  0.45629823006906634  0.27713412279489086  0.23330305228596868  1.0000
  H   H2        1.0  0.5437000881236002  0.22286619823101017  0.7333030276814156  1.0000
  H   H3        1.0  0.5437019357210884  0.7228672575950271  0.766697132353485  1.0000
  H   H4        1.0  0.4562973490137168  0.7771337179866294  0.2666971569576475  1.0000
  H   H5        1.0  0.7877812085788849  0.45036784608328173  0.44951302765877427  1.0000
  H   H6        1.0  0.21221741442172262  0.0496325667112814  0.9495129095490851  1.0000
  H   H7        1.0  0.21222128644535593  0.5496328038408224  0.5504871569806724  1.0000
  H   H8        1.0  0.7877800227151183  0.950367349506216  0.050486595769861295  1.0000
  C   C1        1.0  0.5226023299388417  0.34982407568148244  0.2600961326845592  1.0000
  C   C2        1.0  0.47739835526017776  0.15017552625071326  0.7600960761825135  1.0000
  C   C3        1.0  0.47740003194581954  0.6501758426965909  0.7399040519547525  1.0000
  C   C4        1.0  0.5226015442503353  0.849824391046994  0.23990342913656798  1.0000
  C   C5        1.0  0.4926485628845256  0.43082610398093385  0.2045902576930061  1.0000
  C   C6        1.0  0.5073523103426963  0.06917493748427722  0.7045901761144577  1.0000
  C   C7        1.0  0.5073537990001356  0.5691738143971393  0.7954099269463055  1.0000
  C   C8        1.0  0.4926478554474585  0.9308264429056411  0.2954100085249961  1.0000
  C   C9        1.0  0.5804793577773211  0.5306673492767546  0.23389750761182165  1.0000
  C   C10       1.0  0.41951961443720626  0.9693321492909991  0.7338961973377707  1.0000
  C   C11       1.0  0.41952067487325445  0.4693332995671328  0.766102677027497  1.0000
  C   C12       1.0  0.5804802850733067  0.030667768006708212  0.2661033079813038  1.0000
  C   C13       1.0  0.6997776732103915  0.5301849865635049  0.3274310614967888  1.0000
  C   C14       1.0  0.30022143086659975  0.9698145517041395  0.8274310980036856  1.0000
  C   C15       1.0  0.3002222263005976  0.4698149307343443  0.6725691231424021  1.0000
  C   C16       1.0  0.6997784686439132  0.030185365593567312  0.17256840731538856  1.0000
  C   C17       1.0  0.703338853972852  0.44540568103558803  0.3792468676665806  1.0000
  C   C18       1.0  0.2966595368289902  0.05459397038914913  0.8792474391107703  1.0000
  C   C19       1.0  0.2966611786772404  0.5545949678081572  0.6207526376526289  1.0000
  C   C20       1.0  0.703337900308327  0.9454059458284905  0.1207527455282928  1.0000
  N   N1        1.0  0.6195857313865718  0.3554149734200396  0.34738945196957616  1.0000
  N   N2        1.0  0.3804126145029513  0.1445846644829274  0.8473893837511497  1.0000
  N   N3        1.0  0.38041416812442463  0.644584943877817  0.6526107326696149  1.0000
  N   N4        1.0  0.6195848226343726  0.8554152517347119  0.15261080088791348  1.0000
  N   N5        1.0  0.3728403548748532  0.41255655835184524  0.11398117360279507  1.0000
  N   N6        1.0  0.6271601243345515  0.0874429815629725  0.6139811104389494  1.0000
  N   N7        1.0  0.6271595446361361  0.5874433589460112  0.8860190110363888  1.0000
  N   N8        1.0  0.3728422375496337  0.9125569368149588  0.3860183948802457  1.0000
  N   N9        1.0  0.826445424094807  0.6196824812862972  0.3698947041453876  1.0000
  N   N10       1.0  0.1735537398459641  0.8803170750045696  0.8698940175194989  1.0000
  N   N11       1.0  0.17355447541665814  0.38031743601170126  0.6301061598139057  1.0000
  N   N12       1.0  0.8264436972903937  0.11968284121277864  0.13010480847934497  1.0000
  O   O1        1.0  0.45374673560105805  0.3362781333306658  0.07478914935836659  1.0000
  O   O2        1.0  0.5462538214963786  0.1637221214955673  0.5747897838165058  1.0000
  O   O3        1.0  0.54625562628312  0.6637217850472583  0.9252103559608287  1.0000
  O   O4        1.0  0.4537460780146105  0.836277795802282  0.4252104008226851  1.0000
  O   O5        1.0  0.1896101501208278  0.4716366943085647  0.07833181389221269  1.0000
  O   O6        1.0  0.8103879495968159  0.028363560940960007  0.5783317487074342  1.0000
  O   O7        1.0  0.8103923449034199  0.5283639556155393  0.921668370747227  1.0000
  O   O8        1.0  0.18961194991369004  0.9716363563567469  0.42166775661164724  1.0000
  O   O9        1.0  0.5591077086365316  0.6054811012441803  0.18562095658790406  1.0000
  O   O10       1.0  0.4408914617988912  0.894519839925309  0.6856209811588767  1.0000
  O   O11       1.0  0.4408923240140369  0.39451954759970687  0.8143792280514148  1.0000
  O   O12       1.0  0.5591109000852938  0.10548007845261516  0.3143785241603254  1.0000
  O   O13       1.0  0.9676783083402328  0.6835915943579923  0.321711905601596  1.0000
  O   O14       1.0  0.032325712420821204  0.8164079436424815  0.8217111825705317  1.0000
  O   O15       1.0  0.03232392040580118  0.31640759247434147  0.6782896376777998  1.0000
  O   O16       1.0  0.9676765163228184  0.18359124318912734  0.17828696410831668  1.0000
  O   O17       1.0  0.7947580660067429  0.6273711629558749  0.45429615160117004  1.0000
  O   O18       1.0  0.20523875454812673  0.8726284280784714  0.9542961448228124  1.0000
  O   O19       1.0  0.2052367756173297  0.3726280206355099  0.545704033037637  1.0000
  O   O20       1.0  0.7947560870749868  0.12737075551262933  0.04570268117577569  1.0000
