data_image0
_chemical_formula_structural       Zn8H40C88O26F16
_chemical_formula_sum              "Zn8 H40 C88 O26 F16"
_cell_length_a       23.9814435426664
_cell_length_b       23.98276895157767
_cell_length_c       23.981187604779347
_cell_angle_alpha    66.92500091337303
_cell_angle_beta     72.30577945811103
_cell_angle_gamma    107.70372340298488

_space_group_name_H-M_alt    "P 1"
_space_group_IT_number       1

loop_
  _space_group_symop_operation_xyz
  'x, y, z'

loop_
  _atom_site_type_symbol
  _atom_site_label
  _atom_site_symmetry_multiplicity
  _atom_site_fract_x
  _atom_site_fract_y
  _atom_site_fract_z
  _atom_site_occupancy
  Zn  Zn1       1.0  0.05657769675925531  0.957314053094599  0.48615949653257234  1.0000
  Zn  Zn2       1.0  0.05657891243288299  0.0992674035856638  0.4572722521976973  1.0000
  Zn  Zn3       1.0  0.9434177099989608  0.9861572984467413  0.45730687564505973  1.0000
  Zn  Zn4       1.0  0.9434319914391478  0.9572677436986651  0.5992688609709804  1.0000
  Zn  Zn5       1.0  0.9434637915887903  0.5427277983701868  0.013841095029078912  1.0000
  Zn  Zn6       1.0  0.05654669837164035  0.5138489580998992  0.042730255675366  1.0000
  Zn  Zn7       1.0  0.9434617029403611  0.4007327271172089  0.04269051913264127  1.0000
  Zn  Zn8       1.0  0.05652503459364051  0.5426870247000437  0.9007321920538589  1.0000
  H   H1        1.0  0.9235316702064579  0.7145449485777248  0.1746965089440451  1.0000
  H   H2        1.0  0.07645374258925118  0.6746834126579769  0.21459252772759654  1.0000
  H   H3        1.0  0.9235369184197988  0.8253133582583198  0.2854341269132593  1.0000
  H   H4        1.0  0.07640222578579164  0.7853806974751336  0.3253957834486415  1.0000
  H   H5        1.0  0.07647282895052843  0.40174013861771124  0.7089992236562426  1.0000
  H   H6        1.0  0.9235440361700497  0.2089539950317202  0.9017869949197036  1.0000
  H   H7        1.0  0.07640796390099784  0.2910222865508914  0.5982218225594664  1.0000
  H   H8        1.0  0.9235364501479564  0.0982230408682483  0.7910178255905649  1.0000
  H   H9        1.0  0.6107597754883897  0.4017701620169304  0.17465720234756085  1.0000
  H   H10       1.0  0.6107564864492191  0.20897374251587308  0.21458279179974232  1.0000
  H   H11       1.0  0.38926372345528637  0.2910432858079019  0.28539619092654095  1.0000
  H   H12       1.0  0.389257327042209  0.09825500759738046  0.3252540488136334  1.0000
  H   H13       1.0  0.3892538791679954  0.6746321881238302  0.9017652771808501  1.0000
  H   H14       1.0  0.38923025784432497  0.7145681140524401  0.7089627608612548  1.0000
  H   H15       1.0  0.6107549298898076  0.7854117268759635  0.7910461570424802  1.0000
  H   H16       1.0  0.6107286502794407  0.8252782424665381  0.5982550931896643  1.0000
  H   H17       1.0  0.8566848026272001  0.7569802044761079  0.8243342630840615  1.0000
  H   H18       1.0  0.9084242780855972  0.8416961368952727  0.7502835457943322  1.0000
  H   H19       1.0  0.9185296187568994  0.8186007062446522  0.8247360772952989  1.0000
  H   H20       1.0  0.08132646337902112  0.6810303076974477  0.6756594649187664  1.0000
  H   H21       1.0  0.09199059179418613  0.6587180340394383  0.7497164697751303  1.0000
  H   H22       1.0  0.1433423776371257  0.743270630177804  0.6752704320369676  1.0000
  H   H23       1.0  0.9186761289669219  0.7430125233500463  0.9003006660095072  1.0000
  H   H24       1.0  0.9080115125063061  0.6582983085033689  0.9332736617757293  1.0000
  H   H25       1.0  0.8566591624233483  0.681397247033381  0.9000669764967955  1.0000
  H   H26       1.0  0.14332139202171856  0.8189781342588206  0.5997088108165799  1.0000
  H   H27       1.0  0.09158126666660839  0.8412937589511313  0.5667270428715414  1.0000
  H   H28       1.0  0.0814758339687103  0.7567421658053419  0.5999227384039685  1.0000
  H   H29       1.0  0.8566828731308647  0.09970797351201091  0.31895654148369357  1.0000
  H   H30       1.0  0.9084244541223824  0.06673383467618528  0.34127116126004603  1.0000
  H   H31       1.0  0.9185296529869972  0.0999372920657322  0.2567165536073404  1.0000
  H   H32       1.0  0.08132423968815054  0.40028928321000723  0.24304018656694396  1.0000
  H   H33       1.0  0.09198387136915899  0.4332693512176037  0.15832209914854198  1.0000
  H   H34       1.0  0.1433410903095691  0.40007394693048326  0.18141410070430208  1.0000
  H   H35       1.0  0.918678390677158  0.17566876180629992  0.18100732538893985  1.0000
  H   H36       1.0  0.9080190949027481  0.24972382142382085  0.15869122311254108  1.0000
  H   H37       1.0  0.8566605798669468  0.17527357708216565  0.24324310215850187  1.0000
  H   H38       1.0  0.14331731545929208  0.32433415989397213  0.25700241388336315  1.0000
  H   H39       1.0  0.09157585909989045  0.25027827826570354  0.3417160806093663  1.0000
  H   H40       1.0  0.08147348997353987  0.32472716975905763  0.3186220370250227  1.0000
  C   C1        1.0  0.18089538366693597  0.0904558793392383  0.40954904109428725  1.0000
  C   C2        1.0  0.9999954623108067  0.13792161046508505  0.3620805926600213  1.0000
  C   C3        1.0  0.9999931150594036  0.9095683208145643  0.40957476118160946  1.0000
  C   C4        1.0  0.8191087056452416  0.9095447535071273  0.5904600936546133  1.0000
  C   C5        1.0  5.780851978261711e-06  0.8620813396111868  0.6379222374544684  1.0000
  C   C6        1.0  0.9999950545958144  0.09042705281127875  0.5904363694687477  1.0000
  C   C7        1.0  2.6270356557335245e-06  0.5904376746251715  0.0904529768173461  1.0000
  C   C8        1.0  7.00974270267984e-06  0.3620828978972739  0.1379187026946056  1.0000
  C   C9        1.0  0.8191378546100977  0.40956122839148873  0.09042596194136394  1.0000
  C   C10       1.0  0.9999944306887085  0.4095409328864717  0.9095648752772406  1.0000
  C   C11       1.0  0.9999924815651084  0.6379182890863859  0.8620786805588454  1.0000
  C   C12       1.0  0.18086071595130426  0.5904296914476104  0.9095573947480634  1.0000
  C   C13       1.0  5.121353794169742e-06  0.8043717752814457  0.695629977779156  1.0000
  C   C14       1.0  0.999998046205576  0.6956306861613443  0.8043700063981875  1.0000
  C   C15       1.0  0.9565546051593756  0.7769060289919238  0.7665613317745327  1.0000
  C   C16       1.0  0.04347065862877726  0.723119044635112  0.733437648296878  1.0000
  C   C17       1.0  0.956531537018556  0.7230938490222485  0.8203520996175727  1.0000
  C   C18       1.0  0.04345176789063025  0.7768871979262714  0.6796485742110222  1.0000
  C   C19       1.0  0.9999990778982734  0.1956315363085322  0.3043697291535922  1.0000
  C   C20       1.0  3.875798775305448e-06  0.3043724194308409  0.19563005479230366  1.0000
  C   C21       1.0  0.9565536497879987  0.17965067890042263  0.27687785564888395  1.0000
  C   C22       1.0  0.04347012753066793  0.320352834062291  0.2231007799365869  1.0000
  C   C23       1.0  0.9565326376306867  0.23344108060575028  0.22310860398167898  1.0000
  C   C24       1.0  0.04344658004593073  0.2665619612964889  0.2769137450614707  1.0000
  C   C25       1.0  7.794540051670834e-07  0.6278947971009571  0.12791156225790004  1.0000
  C   C26       1.0  0.9580675974493147  0.6579968064463417  0.13610814083040157  1.0000
  C   C27       1.0  0.9572334850686062  0.6928016115527742  0.17054018410237856  1.0000
  C   C28       1.0  0.9999886927732218  0.6994444172076797  0.19948109920323273  1.0000
  C   C29       1.0  0.042747492050594325  0.670512895797266  0.1928465246593519  1.0000
  C   C30       1.0  0.04191865263463502  0.6360833233934072  0.15803974316427377  1.0000
  C   C31       1.0  0.9999829472887851  0.7347486379771907  0.2347911010178337  1.0000
  C   C32       1.0  0.9999763306905862  0.7652098801479781  0.2652714881430001  1.0000
  C   C33       1.0  0.9999713076847954  0.8005132698530775  0.3005811811933442  1.0000
  C   C34       1.0  0.9572277732305494  0.8294648934916751  0.3071985237839102  1.0000
  C   C35       1.0  0.9580615403370698  0.8639019692884844  0.3419991898376439  1.0000
  C   C36       1.0  0.999982699068944  0.8720989504079097  0.3721238803650595  1.0000
  C   C37       1.0  0.041879854949506475  0.8419480619730563  0.36397039035615125  1.0000
  C   C38       1.0  0.042707046853458136  0.8071342841580673  0.329547312908403  1.0000
  C   C39       1.0  3.110078665674146e-06  0.3720825798921865  0.8721091861266502  1.0000
  C   C40       1.0  0.04194351166045606  0.4058091073885207  0.8000768787748956  1.0000
  C   C41       1.0  0.042772184545476884  0.3722055986719965  0.764443797866207  1.0000
  C   C42       1.0  6.632624064205908e-06  0.30051645829500734  0.8005596877147813  1.0000
  C   C43       1.0  0.957252159561662  0.2644007857359085  0.8722507123620532  1.0000
  C   C44       1.0  0.958085479690382  0.3000400013196368  0.9058464107137356  1.0000
  C   C45       1.0  0.9999946642160821  0.26521656204360505  0.7652467845080795  1.0000
  C   C46       1.0  0.999986128765684  0.23475672748335083  0.7347641803353397  1.0000
  C   C47       1.0  0.9999761968675144  0.19945546204743167  0.6994531793268167  1.0000
  C   C48       1.0  0.04271271535832713  0.2355738745705906  0.6277569264782272  1.0000
  C   C49       1.0  0.041883183609293335  0.19993688862720652  0.5941583682155881  1.0000
  C   C50       1.0  0.999984952851335  0.12788989177420268  0.6278922869266027  1.0000
  C   C51       1.0  0.9580610608571405  0.09416229070252072  0.6999325233105226  1.0000
  C   C52       1.0  0.9572281616126759  0.1277631315614869  0.7355683523963067  1.0000
  C   C53       1.0  0.7442179888662038  0.37210474650820646  0.12789087548361536  1.0000
  C   C54       1.0  0.7059065623669623  0.4058349548103948  0.13606578471360123  1.0000
  C   C55       1.0  0.6366717005677457  0.3722357597282552  0.17049809304660374  1.0000
  C   C56       1.0  0.6010939057416566  0.30054060788889103  0.19944908101086153  1.0000
  C   C57       1.0  0.6366691118862419  0.2644231129508439  0.192828118529242  1.0000
  C   C58       1.0  0.7059059193158956  0.3000593756447499  0.15802815918355864  1.0000
  C   C59       1.0  0.5304816728787853  0.26524175284161794  0.2347452959213997  1.0000
  C   C60       1.0  0.46953915142970715  0.2347820287997565  0.2651983162908422  1.0000
  C   C61       1.0  0.39892676508596736  0.19948146625361574  0.3004939989694009  1.0000
  C   C62       1.0  0.36335193050087616  0.23559575282841644  0.3071361276910309  1.0000
  C   C63       1.0  0.2941174875023266  0.1999577374552572  0.3419477363263823  1.0000
  C   C64       1.0  0.25580876841067374  0.12791414864317113  0.3720774651163694  1.0000
  C   C65       1.0  0.2941135834096187  0.09418862190044307  0.36385643011559676  1.0000
  C   C66       1.0  0.3633496718579394  0.12779110735083773  0.32942078664609653  1.0000
  C   C67       1.0  0.2557811506342488  0.6278836441393522  0.8720962234746992  1.0000
  C   C68       1.0  0.29409983170663145  0.6360479088012311  0.9058292085984763  1.0000
  C   C69       1.0  0.363335793434459  0.6704750325652428  0.8722281903834602  1.0000
  C   C70       1.0  0.39890928291259786  0.699433699439048  0.8005306595095122  1.0000
  C   C71       1.0  0.3633237930454665  0.6928103040206676  0.76441488021149  1.0000
  C   C72       1.0  0.2940855025488532  0.6580087160798271  0.8000517624798962  1.0000
  C   C73       1.0  0.46952230442345655  0.7347354100452604  0.765232664370487  1.0000
  C   C74       1.0  0.5304649144566724  0.7652035126576281  0.7347834074430893  1.0000
  C   C75       1.0  0.6010781992975325  0.8005096239899103  0.6994835999478185  1.0000
  C   C76       1.0  0.6366601005922804  0.8071522030731232  0.7355975012076003  1.0000
  C   C77       1.0  0.7058962461798615  0.8419609582628594  0.6999580302684694  1.0000
  C   C78       1.0  0.7441951676448679  0.8720847409213305  0.6279136376609603  1.0000
  C   C79       1.0  0.7058817582746143  0.863878655377846  0.5941867627299614  1.0000
  C   C80       1.0  0.6366462993592134  0.829445308983132  0.6277896613943669  1.0000
  C   C81       1.0  0.907935553339527  0.8006735093388498  0.7914992008928794  1.0000
  C   C82       1.0  0.09218061336647314  0.6994419533612017  0.7085008610485063  1.0000
  C   C83       1.0  0.9078205010471974  0.6993222504692652  0.8927388661181797  1.0000
  C   C84       1.0  0.09207054333574402  0.800568084446752  0.6072604304419046  1.0000
  C   C85       1.0  0.9079351341069708  0.10726806349234867  0.3005466989858405  1.0000
  C   C86       1.0  0.0921784413160083  0.3927365505151315  0.19934340740212525  1.0000
  C   C87       1.0  0.9078244417332042  0.20850716859751364  0.19941960334648456  1.0000
  C   C88       1.0  0.09206565663796347  0.29149493459168246  0.3006918392539006  1.0000
  O   O1        1.0  3.6284039599995166e-07  1.640873335900372e-06  0.4999999744581275  1.0000
  O   O2        1.0  0.1520943883514363  0.025877938559610018  0.43306500017968835  1.0000
  O   O3        1.0  0.039713937102440894  0.15361765076566058  0.38539182129067484  1.0000
  O   O4        1.0  0.9590092215828179  0.9331891270013416  0.4147531007063564  1.0000
  O   O5        1.0  0.15209629624850857  0.1262267435639686  0.4148445892893805  1.0000
  O   O6        1.0  0.040980543312365156  0.9147612745745946  0.43319040367673983  1.0000
  O   O7        1.0  0.9602713465323232  0.07489392969898005  0.38609781168498364  1.0000
  O   O8        1.0  0.847903940546772  0.9330575926935938  0.5258739317773475  1.0000
  O   O9        1.0  0.9603110993436698  0.8854070930661491  0.6536208599466351  1.0000
  O   O10       1.0  0.8479133564451045  0.9148382563253963  0.6262250892921984  1.0000
  O   O11       1.0  0.03970748217248129  0.8860818719057374  0.5748931046191431  1.0000
  O   O12       1.0  0.0409744367845519  0.1262326044275213  0.5258279498994868  1.0000
  O   O13       1.0  0.9590305994380729  0.025826078888762496  0.6262340302511903  1.0000
  O   O14       1.0  9.925317172617963e-07  0.5000004133163358  1.039032965810993e-07  1.0000
  O   O15       1.0  0.9589306207554316  0.5851406955795823  0.06694645466853195  1.0000
  O   O16       1.0  0.03905027252672261  0.425111294227861  0.11458250033798124  1.0000
  O   O17       1.0  0.8479390617018651  0.3737683943488148  0.08524683930011188  1.0000
  O   O18       1.0  0.041073202458115174  0.5669354122578056  0.0851612484000769  1.0000
  O   O19       1.0  0.8479437604446644  0.47417282622423323  0.0667926834013244  1.0000
  O   O20       1.0  0.9609699569219642  0.3463836068768415  0.11392728304123523  1.0000
  O   O21       1.0  0.9589350662663633  0.37376889850854417  0.9741362799839806  1.0000
  O   O22       1.0  0.03898783810194572  0.6138900948509587  0.8463810803419779  1.0000
  O   O23       1.0  0.04105395708337775  0.47412024213699067  0.8737843560079882  1.0000
  O   O24       1.0  0.9609903235669816  0.6146152382594179  0.9251061754431266  1.0000
  O   O25       1.0  0.1520645045668302  0.5668144555311087  0.9741616481054864  1.0000
  O   O26       1.0  0.15204994804207658  0.5852438911078366  0.8737626927474339  1.0000
  F   F1        1.0  0.9156850553067598  0.6539855841646867  0.10964900821643667  1.0000
  F   F2        1.0  0.08429911765587396  0.6096282726418635  0.15403769883725002  1.0000
  F   F3        1.0  0.9156877550055209  0.8903662635222386  0.3459893157517729  1.0000
  F   F4        1.0  0.08424060618403219  0.8459297881595588  0.3904585813663603  1.0000
  F   F5        1.0  0.08434142526611767  0.47464387464747665  0.7617038365022852  1.0000
  F   F6        1.0  0.9157091962531678  0.26166880653601504  0.9746828562088298  1.0000
  F   F7        1.0  0.08424525714811892  0.23831405067124223  0.5253167910345412  1.0000
  F   F8        1.0  0.9156824157997219  0.025326092167340147  0.7383082123627605  1.0000
  F   F9        1.0  0.7363699943697879  0.47467456814110404  0.10959717324901433  1.0000
  F   F10       1.0  0.7363661345886141  0.26168233731782203  0.15403625511039107  1.0000
  F   F11       1.0  0.26365341757380617  0.23832887655802173  0.34595230498406704  1.0000
  F   F12       1.0  0.26364988978184556  0.025354896528568815  0.39029486418448306  1.0000
  F   F13       1.0  0.26364234895986266  0.6095693357915977  0.974672935135459  1.0000
  F   F14       1.0  0.2636176508749698  0.654016309740605  0.7616744565258885  1.0000
  F   F15       1.0  0.7363662017937074  0.8459678797280361  0.738329401034406  1.0000
  F   F16       1.0  0.736340179193611  0.8903307405116863  0.5253473421310918  1.0000
