data_image0
_chemical_formula_structural       Co2H16C16S4Br4N4
_chemical_formula_sum              "Co2 H16 C16 S4 Br4 N4"
_cell_length_a       7.361230413871885
_cell_length_b       9.495205483371823
_cell_length_c       9.495257763083343
_cell_angle_alpha    112.82342605862755
_cell_angle_beta     97.71422806447825
_cell_angle_gamma    97.71310275108625

_space_group_name_H-M_alt    "P 1"
_space_group_IT_number       1

loop_
  _space_group_symop_operation_xyz
  'x, y, z'

loop_
  _atom_site_type_symbol
  _atom_site_label
  _atom_site_symmetry_multiplicity
  _atom_site_fract_x
  _atom_site_fract_y
  _atom_site_fract_z
  _atom_site_occupancy
  Co  Co1       1.0  0.2500024356764854  0.8784825742412538  0.12152201080695593  1.0000
  Co  Co2       1.0  0.7499973220657027  0.1215174301523589  0.8784774059788275  1.0000
  H   H1        1.0  0.7499983216875634  0.35319726047507766  0.6468069973855464  1.0000
  H   H2        1.0  0.24999976098629872  0.646801568335846  0.35319388517248035  1.0000
  H   H3        1.0  0.5882467352449511  0.3894639697379317  0.2102280668414734  1.0000
  H   H4        1.0  0.9117572108213212  0.7897748545120463  0.6105422367032388  1.0000
  H   H5        1.0  0.4117568367645246  0.6105348475535876  0.7897712895510621  1.0000
  H   H6        1.0  0.08824606780858349  0.21022279566550142  0.3894566296009856  1.0000
  H   H7        1.0  0.7500018488158702  0.6675595911818777  0.3324462029322676  1.0000
  H   H8        1.0  0.2500033982619385  0.332440401692331  0.6675516876880322  1.0000
  H   H9        1.0  0.7382554844285566  0.12387226871262416  0.49541979665323765  1.0000
  H   H10       1.0  0.7617446946147696  0.5045873605937176  0.8761292699261815  1.0000
  H   H11       1.0  0.26174533667653316  0.8761265467728877  0.5045813723681577  1.0000
  H   H12       1.0  0.2382529114553335  0.4954149913532574  0.12387084057286292  1.0000
  H   H13       1.0  0.5746722115647884  0.9715947200950908  0.3446268321617865  1.0000
  H   H14       1.0  0.9253316347483888  0.6553777781833788  0.02840541890504505  1.0000
  H   H15       1.0  0.4253291838262996  0.028406414486965997  0.6553774161284522  1.0000
  H   H16       1.0  0.07466871598951738  0.34462456800389424  0.971593928511254  1.0000
  C   C1        1.0  0.5715165983375529  0.18465413518076446  0.3431320081848099  1.0000
  C   C2        1.0  0.9284888226812457  0.6568716174630963  0.8153503276932738  1.0000
  C   C3        1.0  0.4284855919831615  0.8153446736420449  0.6568693040682662  1.0000
  C   C4        1.0  0.07151015884104339  0.34313073538687894  0.18464887649133738  1.0000
  C   C5        1.0  0.6604211620791034  0.352231814981252  0.41981783195088695  1.0000
  C   C6        1.0  0.8395794825342621  0.5801861126926937  0.6477717148864528  1.0000
  C   C7        1.0  0.3395769268313273  0.6477670213953745  0.5801820010610186  1.0000
  C   C8        1.0  0.1604181235358411  0.4198162392542812  0.3522283956125846  1.0000
  C   C9        1.0  0.7499994373461123  0.4221657984018563  0.5778381770695518  1.0000
  C   C10       1.0  0.24999756949169688  0.5778342041857485  0.4221630523450983  1.0000
  C   C11       1.0  0.658347964172613  0.44299170358037543  0.33283595455911547  1.0000
  C   C12       1.0  0.8416551315436038  0.6671676295189002  0.5570133425983953  1.0000
  C   C13       1.0  0.3416531627851995  0.5570082941505347  0.6671636054583557  1.0000
  C   C14       1.0  0.1583449071050111  0.3328335268572715  0.4429886633679274  1.0000
  C   C15       1.0  0.7500017897857206  0.5987551237375612  0.40125109706617224  1.0000
  C   C16       1.0  0.2500007001511335  0.4012448597649367  0.5987496557290939  1.0000
  S   S1        1.0  0.4013042364026731  0.12067201364939707  0.17957003484730896  1.0000
  S   S2        1.0  0.09870340909331783  0.8204263544878927  0.8793282286040593  1.0000
  S   S3        1.0  0.5986968905551393  0.879327984081506  0.8204295251701693  1.0000
  S   S4        1.0  0.9012974307214989  0.1795724836947414  0.12066979177898667  1.0000
  Br  Br1       1.0  0.45841379159717377  0.710294443133165  0.1305931970227832  1.0000
  Br  Br2       1.0  0.04158684640194108  0.8694074370093079  0.28970376689443367  1.0000
  Br  Br3       1.0  0.5415843097864013  0.28970440837488104  0.8694045368969013  1.0000
  Br  Br4       1.0  0.9584132047198255  0.13059373449828376  0.7102961399796683  1.0000
  N   N1        1.0  0.6265875858715972  0.0892244105493418  0.4037233300138681  1.0000
  N   N2        1.0  0.8734137905122169  0.5962816965019471  0.9107786325757914  1.0000
  N   N3        1.0  0.3734143110695385  0.9107732311594957  0.5962774921508965  1.0000
  N   N4        1.0  0.1265838093213105  0.40372064787931816  0.08922252746936718  1.0000
