data_image0
_chemical_formula_structural       KH20C14N20O12
_chemical_formula_sum              "K1 H20 C14 N20 O12"
_cell_length_a       8.157080320704331
_cell_length_b       10.577656352207379
_cell_length_c       12.512881261924042
_cell_angle_alpha    97.4858044240901
_cell_angle_beta     127.51749542828392
_cell_angle_gamma    92.36363055048821

_space_group_name_H-M_alt    "P 1"
_space_group_IT_number       1

loop_
  _space_group_symop_operation_xyz
  'x, y, z'

loop_
  _atom_site_type_symbol
  _atom_site_label
  _atom_site_symmetry_multiplicity
  _atom_site_fract_x
  _atom_site_fract_y
  _atom_site_fract_z
  _atom_site_occupancy
  K   K1        1.0  0.5005518255464311  7.689105292740385e-05  0.5003105095599454  1.0000
  H   H1        1.0  0.13442947836038147  0.1550279744879006  0.43629939455446737  1.0000
  H   H2        1.0  0.8657106833136937  0.8448102025962783  0.5632161308373684  1.0000
  H   H3        1.0  0.8968469462922146  0.041879667830834  0.32002902235096553  1.0000
  H   H4        1.0  0.1033444114572433  0.957972701126408  0.6795340458015247  1.0000
  H   H5        1.0  0.9019839732493937  0.8275526300614754  0.3820232021138565  1.0000
  H   H6        1.0  0.09822687897324307  0.17226802005382783  0.617514266644996  1.0000
  H   H7        1.0  0.14312186870327542  0.8015335807058788  0.5340021980225914  1.0000
  H   H8        1.0  0.8570694208104328  0.19835843013461132  0.46556034760919834  1.0000
  H   H9        1.0  0.4345976134938709  0.7244531048243842  0.33787797997970875  1.0000
  H   H10       1.0  0.5654657376922645  0.2756406896153648  0.6622666312605718  1.0000
  H   H11       1.0  0.4062538974401023  0.6842384659933031  0.44439554345449755  1.0000
  H   H12       1.0  0.5939468381362121  0.3159464474606537  0.5558182424852947  1.0000
  H   H13       1.0  0.48313355447373846  0.9916009631859096  0.2594477421716023  1.0000
  H   H14       1.0  0.5168715999331894  0.008420907913318799  0.7407239454335013  1.0000
  H   H15       1.0  0.3025070733641613  0.05873604605289268  0.15877360572310553  1.0000
  H   H16       1.0  0.6967836127368586  0.9410151335729324  0.8416099912932752  1.0000
  H   H17       1.0  0.485523835807257  0.2181361509821186  0.27303303137498613  1.0000
  H   H18       1.0  0.5145135695466081  0.7817858756674311  0.7271011824878216  1.0000
  H   H19       1.0  0.7161690768302478  0.46064682683932273  0.9589519929601098  1.0000
  H   H20       1.0  0.28384054622645044  0.5393340327306078  0.04119921517011699  1.0000
  C   C1        1.0  0.03229322776757478  0.07777330000328667  0.4290025965206328  1.0000
  C   C2        1.0  0.9677414249242491  0.922110182416148  0.5704912536231818  1.0000
  C   C3        1.0  0.038795497302700654  0.8730832890287414  0.4874991633737906  1.0000
  C   C4        1.0  0.9612922288502473  0.1267810435269112  0.5120138444191015  1.0000
  C   C5        1.0  0.798648949995723  0.5349389043492749  0.538786115737409  1.0000
  C   C6        1.0  0.20143967449654812  0.46513237687632625  0.46130959168069563  1.0000
  C   C7        1.0  0.6407995031080277  0.40420821856157113  0.35413689994550174  1.0000
  C   C8        1.0  0.3592446172882333  0.5957255133802448  0.6460130356378927  1.0000
  C   C9        1.0  0.502474691814065  0.2749384151826177  0.1295175255425392  1.0000
  C   C10       1.0  0.4974343861009487  0.7250487786658013  0.8705992967463916  1.0000
  C   C11       1.0  0.46991883795273276  0.18577973177637824  0.9135265714882693  1.0000
  C   C12       1.0  0.5297114055512891  0.8142963224967089  0.08646845497302989  1.0000
  C   C13       1.0  0.634649539267528  0.3631964471441833  0.9258762519480116  1.0000
  C   C14       1.0  0.36520879736333  0.6368436132829842  0.07421588859781986  1.0000
  N   N1        1.0  0.5900806041815729  0.2745108051396698  0.8222051842631546  1.0000
  N   N2        1.0  0.4096328674679413  0.7255293841409126  0.17783093518757914  1.0000
  N   N3        1.0  0.4871150974231356  0.1634987984858256  0.8132074407844742  1.0000
  N   N4        1.0  0.5124212939508581  0.8365765177646766  0.18674191266087095  1.0000
  N   N5        1.0  0.5629430859675963  0.31159469001725876  0.9863124761391477  1.0000
  N   N6        1.0  0.43684948719933187  0.6884421405494975  0.013734316116533222  1.0000
  N   N7        1.0  0.5284572928089447  0.3005881737052292  0.25095933196444525  1.0000
  N   N8        1.0  0.4715627344109239  0.6993237756659454  0.7491890394319116  1.0000
  N   N9        1.0  0.5861602351904056  0.3619009924195566  0.10114334112265065  1.0000
  N   N10       1.0  0.41373607868063556  0.638096865085238  0.8989581622431048  1.0000
  N   N11       1.0  0.38614955465487116  0.1558417828896097  0.05193422024669306  1.0000
  N   N12       1.0  0.6137593234890631  0.8441907459064737  0.9481746151590188  1.0000
  N   N13       1.0  0.3723348658701654  0.1085715022411122  0.9431278168664082  1.0000
  N   N14       1.0  0.627357238358023  0.8914920214780436  0.056888110057315054  1.0000
  N   N15       1.0  0.6770616325093216  0.4177597356063456  0.4737858828856148  1.0000
  N   N16       1.0  0.3230691498340548  0.5823118367547622  0.5263856649887089  1.0000
  N   N17       1.0  0.8416983799654786  0.5959091167031827  0.4714555195020936  1.0000
  N   N18       1.0  0.15825465625091786  0.40409008933094254  0.5285535920111144  1.0000
  N   N19       1.0  0.8806753596013905  0.5924745876773655  0.6779121922324907  1.0000
  N   N20       1.0  0.11945991627659683  0.40766763398154626  0.3221399337286855  1.0000
  O   O1        1.0  0.48104220817413096  0.748619740442429  0.4323984878576115  1.0000
  O   O2        1.0  0.5192017661214552  0.2515105113824703  0.5677746437910971  1.0000
  O   O3        1.0  0.3997346104709934  0.05915594269954028  0.25759540508920514  1.0000
  O   O4        1.0  0.6004116796571779  0.9408683609566565  0.742798379446711  1.0000
  O   O5        1.0  0.1546052359432936  0.9758069193999148  0.48358744629641864  1.0000
  O   O6        1.0  0.8454723709402857  0.024057756957240894  0.5159349852960845  1.0000
  O   O7        1.0  0.9999885446487298  0.696818027877427  0.7313894619015713  1.0000
  O   O8        1.0  9.902719462216697e-05  0.30333150869390824  0.268570707810902  1.0000
  O   O9        1.0  0.8263276156945453  0.5316879505489212  0.7330885084853096  1.0000
  O   O10       1.0  0.17383345384376983  0.4685517640532951  0.2670508617346102  1.0000
  O   O11       1.0  0.7325922841047614  0.5080980420441674  0.3442495161383335  1.0000
  O   O12       1.0  0.2673710171122323  0.4918547502288176  0.6557735817499903  1.0000
