data_image0
_chemical_formula_structural       Hg2H16C22I2Br4N6O2
_chemical_formula_sum              "Hg2 H16 C22 I2 Br4 N6 O2"
_cell_length_a       7.846314783002413
_cell_length_b       7.855637722871791
_cell_length_c       13.659909231472732
_cell_angle_alpha    100.19712924701071
_cell_angle_beta     93.38432497379665
_cell_angle_gamma    114.14799556384827

_space_group_name_H-M_alt    "P 1"
_space_group_IT_number       1

loop_
  _space_group_symop_operation_xyz
  'x, y, z'

loop_
  _atom_site_type_symbol
  _atom_site_label
  _atom_site_symmetry_multiplicity
  _atom_site_fract_x
  _atom_site_fract_y
  _atom_site_fract_z
  _atom_site_occupancy
  Hg  Hg1       1.0  0.7363726061440943  0.9824005196431215  0.4840004232296308  1.0000
  Hg  Hg2       1.0  0.26362890023061414  0.017613470916281005  0.5159974392755373  1.0000
  H   H1        1.0  0.3649515786431152  0.2646832049130126  0.23487124716611157  1.0000
  H   H2        1.0  0.6350596019686421  0.7353291545691363  0.7651354957257865  1.0000
  H   H3        1.0  0.4288301209971977  0.5269084189924698  0.38766533787557483  1.0000
  H   H4        1.0  0.5711866667487444  0.47310823406382957  0.6123383614685167  1.0000
  H   H5        1.0  0.8249137310801017  0.9164325125437074  0.2519124532809798  1.0000
  H   H6        1.0  0.17510770959616906  0.08356831687029138  0.7480874819349452  1.0000
  H   H7        1.0  0.8168135190159518  0.17636589985590231  0.7112973327208819  1.0000
  H   H8        1.0  0.18318571950341328  0.8236308596395078  0.28870008218307674  1.0000
  H   H9        1.0  0.03509179500461809  0.4702435951622163  0.6600078300120059  1.0000
  H   H10       1.0  0.9649036398325778  0.5297531944748215  0.3399902141239508  1.0000
  H   H11       1.0  0.13109852600023686  0.7892340876160445  0.7749061745830446  1.0000
  H   H12       1.0  0.8688957296767867  0.21075980038812495  0.2250951859709787  1.0000
  H   H13       1.0  0.9984397297457263  0.8168456293128656  0.9335790209374792  1.0000
  H   H14       1.0  0.001553901639454123  0.18314683660838682  0.0664214375142933  1.0000
  H   H15       1.0  0.6694312361280055  0.3937017054728713  0.019001543894290814  1.0000
  H   H16       1.0  0.3305662612261742  0.6062878405188952  0.9809994412861868  1.0000
  C   C1        1.0  0.4676310660704672  0.41077031345544407  0.23804705679144433  1.0000
  C   C2        1.0  0.5323731370307171  0.5892378473320365  0.7619553803779979  1.0000
  C   C3        1.0  0.5032328617059534  0.5552133438197444  0.3232225650241319  1.0000
  C   C4        1.0  0.496782230107307  0.4447903818337622  0.6767811643778073  1.0000
  C   C5        1.0  0.7196931884684404  0.7717721060073472  0.24837660495033023  1.0000
  C   C6        1.0  0.28031873665310053  0.22823022313071561  0.7516261541590126  1.0000
  C   C7        1.0  0.6820795324211986  0.6261921002549898  0.1634886186866851  1.0000
  C   C8        1.0  0.31792419357805807  0.37380600192425817  0.8365134581925844  1.0000
  C   C9        1.0  0.7863204787964123  0.6775918970263819  0.07636859680932423  1.0000
  C   C10       1.0  0.2136693120169824  0.32239779134437896  0.9236263316600599  1.0000
  C   C11       1.0  0.8341739346597093  0.5124478499742224  0.9141925820176553  1.0000
  C   C12       1.0  0.16582155254667452  0.48754605808451873  0.08580588656150212  1.0000
  C   C13       1.0  0.7848836875222316  0.3322284433232952  0.849769694158681  1.0000
  C   C14       1.0  0.2151168420323587  0.6677682869692277  0.15022921787547014  1.0000
  C   C15       1.0  0.8564483739825659  0.3173217243769599  0.7591732230996583  1.0000
  C   C16       1.0  0.14353816523602353  0.682672314215786  0.24082134922575452  1.0000
  C   C17       1.0  0.9801356597285534  0.48178268672997154  0.731184805421897  1.0000
  C   C18       1.0  0.019861151046953348  0.5182083269667359  0.2688141216956197  1.0000
  C   C19       1.0  0.031980891651464664  0.6601825605026619  0.7950199147291103  1.0000
  C   C20       1.0  0.9680133144373357  0.33981136854938404  0.2049777882373647  1.0000
  C   C21       1.0  0.9597078356350721  0.6770621550613142  0.8851468651184787  1.0000
  C   C22       1.0  0.04028824611022231  0.32293319970906953  0.11485031101040019  1.0000
  I   I1        1.0  0.6034467988936996  0.07854873100345829  0.8896547876235488  1.0000
  I   I2        1.0  0.3965518252514713  0.9214465981994522  0.11034245669566901  1.0000
  Br  Br1       1.0  0.8798952104022321  0.8302896781835685  0.5938786217457093  1.0000
  Br  Br2       1.0  0.12011058824899123  0.16974284601455744  0.4061301342857107  1.0000
  Br  Br3       1.0  0.6492891620296249  0.243160574583932  0.445439569997724  1.0000
  Br  Br4       1.0  0.3507029589259432  0.7568434550629561  0.5545569620335655  1.0000
  N   N1        1.0  0.5586136252607121  0.4451782246320875  0.1588140622497818  1.0000
  N   N2        1.0  0.4413830680778119  0.5548214009612096  0.841186517608186  1.0000
  N   N3        1.0  0.631710850125046  0.7343592199003126  0.3281374596515292  1.0000
  N   N4        1.0  0.3683017119869447  0.26564168258067866  0.6718636999332261  1.0000
  N   N5        1.0  0.7577328095074094  0.5212881024431439  0.003573471398361497  1.0000
  N   N6        1.0  0.24225886409915637  0.4787058439668002  0.9964248948952841  1.0000
  O   O1        1.0  0.8856547662550439  0.8466824428872853  0.07602679935857283  1.0000
  O   O2        1.0  0.1143316384722439  0.1533173834907799  0.923964729527924  1.0000
