data_image0
_chemical_formula_structural       Mn6H12C36O24
_chemical_formula_sum              "Mn6 H12 C36 O24"
_cell_length_a       6.588143688723281
_cell_length_b       11.359335736525612
_cell_length_c       11.312593395311307
_cell_angle_alpha    111.4217951248734
_cell_angle_beta     90.0322664887732
_cell_angle_gamma    90.00072167929734

_space_group_name_H-M_alt    "P 1"
_space_group_IT_number       1

loop_
  _space_group_symop_operation_xyz
  'x, y, z'

loop_
  _atom_site_type_symbol
  _atom_site_label
  _atom_site_symmetry_multiplicity
  _atom_site_fract_x
  _atom_site_fract_y
  _atom_site_fract_z
  _atom_site_occupancy
  Mn  Mn1       1.0  0.7171897474979544  0.17677609798096233  0.27381992986253323  1.0000
  Mn  Mn2       1.0  0.21846730301211884  0.32269613532388763  0.22477548053873866  1.0000
  Mn  Mn3       1.0  0.28131773194426296  0.8226264937873254  0.7249248931538547  1.0000
  Mn  Mn4       1.0  0.7810277202314493  0.6777069737045308  0.7759118013640887  1.0000
  Mn  Mn5       1.0  0.9995997181056635  0.4999195503505689  0.4997031668734948  1.0000
  Mn  Mn6       1.0  0.5014516368490191  0.0014450043346414998  0.0016756846945327  1.0000
  H   H1        1.0  0.6636047773389321  0.655319613688306  0.029207947394091577  1.0000
  H   H2        1.0  0.16359906136192848  0.8444085755771835  0.47090866742934157  1.0000
  H   H3        1.0  0.3365213274937275  0.34428460998612553  0.970737126727606  1.0000
  H   H4        1.0  0.8363721997899629  0.1556586556482387  0.5289863168935725  1.0000
  H   H5        1.0  0.6590790563748427  0.4562877918043925  0.0723224645023919  1.0000
  H   H6        1.0  0.1585516079700966  0.04356493363364681  0.42795703667403023  1.0000
  H   H7        1.0  0.3407920548168305  0.5433816411358308  0.9276426065584219  1.0000
  H   H8        1.0  0.8408414399076561  0.9565497263173627  0.5721459382543088  1.0000
  H   H9        1.0  0.6254093423922525  0.867466458711206  0.42941490005714655  1.0000
  H   H10       1.0  0.12575329989360276  0.6324205725360841  0.07060135271797204  1.0000
  H   H11       1.0  0.3749490168682285  0.13212764345806957  0.5705707530818174  1.0000
  H   H12       1.0  0.8747552280374575  0.3678355651698979  0.9291587032999474  1.0000
  C   C1        1.0  0.6528887910463225  0.774776629074047  0.2275004626176764  1.0000
  C   C2        1.0  0.15276723716941376  0.7250979566667937  0.27259296205271966  1.0000
  C   C3        1.0  0.3474437560565206  0.2248485039589312  0.7724672336332503  1.0000
  C   C4        1.0  0.8471842874349347  0.2750654609184124  0.7272917111037103  1.0000
  C   C5        1.0  0.658676444697832  0.6581402828386088  0.1262629606375753  1.0000
  C   C6        1.0  0.158486653928513  0.841707297821763  0.37390485060953427  1.0000
  C   C7        1.0  0.34156502095580515  0.3415036037086026  0.8736858648903337  1.0000
  C   C8        1.0  0.841395073438562  0.15842435160247698  0.6260337401131508  1.0000
  C   C9        1.0  0.658937479111486  0.547217561619  0.15051036045480964  1.0000
  C   C10       1.0  0.15847154726900206  0.9526662879089758  0.349723644001635  1.0000
  C   C11       1.0  0.341199246996126  0.45242341164986044  0.8494259023525004  1.0000
  C   C12       1.0  0.8410884441871288  0.04750376249153021  0.6503295502500777  1.0000
  C   C13       1.0  0.6594364372987727  0.5487731947964464  0.2752143224873151  1.0000
  C   C14       1.0  0.15893190475913596  0.9511401847766335  0.22505438757254828  1.0000
  C   C15       1.0  0.3408004666808253  0.4508536066344177  0.7247177174816812  1.0000
  C   C16       1.0  0.8405992693287984  0.049113175101311406  0.7750448333720217  1.0000
  C   C17       1.0  0.6477161699042497  0.6656669775283746  0.3780873351094344  1.0000
  C   C18       1.0  0.14777772441664888  0.834304804958883  0.12213498771537692  1.0000
  C   C19       1.0  0.35260574029828  0.3339740466397174  0.6218551652026036  1.0000
  C   C20       1.0  0.8524607226590247  0.16599976737148842  0.8778396624073324  1.0000
  C   C21       1.0  0.6425542764602739  0.7771617468811416  0.35139485946270105  1.0000
  C   C22       1.0  0.1426604845295998  0.7227415027005435  0.14869841116699686  1.0000
  C   C23       1.0  0.3577843386611547  0.22247183433439222  0.6485652843678054  1.0000
  C   C24       1.0  0.8576006813581215  0.2774869672525  0.8511727059678692  1.0000
  C   C25       1.0  0.6495612204755826  0.8934021784443117  0.19901241461676009  1.0000
  C   C26       1.0  0.14968018554168339  0.606338971228979  0.3009379838712859  1.0000
  C   C27       1.0  0.35044499759926134  0.1062080202844911  0.8009869546023652  1.0000
  C   C28       1.0  0.8503244917766605  0.39382384659244707  0.6990039403843156  1.0000
  C   C29       1.0  0.6689842597164314  0.4199985429079902  0.28128832608204146  1.0000
  C   C30       1.0  0.16781558530674795  0.0798052362745523  0.21876985759109863  1.0000
  C   C31       1.0  0.33107508269034  0.5796154161572815  0.7187079916871895  1.0000
  C   C32       1.0  0.8308291680977858  0.9204851099939121  0.7813717575458342  1.0000
  C   C33       1.0  0.6220318904833206  0.6826919095339719  0.5157742060482349  1.0000
  C   C34       1.0  0.12282778995596288  0.8174652989013182  0.9844917679795558  1.0000
  C   C35       1.0  0.37820048190464206  0.31705877141293837  0.48420262074155573  1.0000
  C   C36       1.0  0.878375992779297  0.18316442256532636  0.015403471250934301  1.0000
  O   O1        1.0  0.6825026784889303  0.9990926277742317  0.28848816312683556  1.0000
  O   O2        1.0  0.18307449444592547  0.50082339400997  0.2113121076290483  1.0000
  O   O3        1.0  0.3169737379413178  0.0006837533150800998  0.7113767220659568  1.0000
  O   O4        1.0  0.8170501336533532  0.49932104588873477  0.7887115908930513  1.0000
  O   O5        1.0  0.49911515652507177  0.7679701824089237  0.5778392714847982  1.0000
  O   O6        1.0  0.999982649043538  0.7321829094817717  0.9220723360618451  1.0000
  O   O7        1.0  0.5014025506520454  0.23198115961602633  0.4220784370408026  1.0000
  O   O8        1.0  0.0011390379103203999  0.2685008319047668  0.07754540104705399  1.0000
  O   O9        1.0  0.7255542595866159  0.6157774932098407  0.5652369775144308  1.0000
  O   O10       1.0  0.22673124123313929  0.8844481931296785  0.9353636344350705  1.0000
  O   O11       1.0  0.27430169963915313  0.3839045422856913  0.43478480241319767  1.0000
  O   O12       1.0  0.7750282974542202  0.11620028668659191  0.06498224051009768  1.0000
  O   O13       1.0  0.810328101478049  0.38742331360379734  0.34092012104775904  1.0000
  O   O14       1.0  0.3094560173010875  0.11241765787714537  0.1594484891810382  1.0000
  O   O15       1.0  0.18972969272267184  0.6119921224165523  0.6590150299550999  1.0000
  O   O16       1.0  0.6894303063724719  0.8883558295836098  0.8411683969217024  1.0000
  O   O17       1.0  0.5440947156898446  0.33552736907227404  0.2149304978427296  1.0000
  O   O18       1.0  0.042444632150740284  0.16412545857887303  0.2844749035640817  1.0000
  O   O19       1.0  0.455712704665437  0.664100356845971  0.7851626891218687  1.0000
  O   O20       1.0  0.9555138333292986  0.8359480487662407  0.7152310699738251  1.0000
  O   O21       1.0  0.6127516305987724  0.8797454491367985  0.08428053737085142  1.0000
  O   O22       1.0  0.11286656154612729  0.619832066941868  0.41557972807081717  1.0000
  O   O23       1.0  0.38716349246247  0.11973236774950638  0.9156736069189578  1.0000
  O   O24       1.0  0.8871715288689116  0.3803177930839113  0.5844043682039697  1.0000
