data_image0
_chemical_formula_structural       Cu2H18C6N10O6
_chemical_formula_sum              "Cu2 H18 C6 N10 O6"
_cell_length_a       7.243030193664031
_cell_length_b       7.026260908115775
_cell_length_c       9.038624991662163
_cell_angle_alpha    62.429809803053715
_cell_angle_beta     66.69229400146173
_cell_angle_gamma    64.19135964296355

_space_group_name_H-M_alt    "P 1"
_space_group_IT_number       1

loop_
  _space_group_symop_operation_xyz
  'x, y, z'

loop_
  _atom_site_type_symbol
  _atom_site_label
  _atom_site_symmetry_multiplicity
  _atom_site_fract_x
  _atom_site_fract_y
  _atom_site_fract_z
  _atom_site_occupancy
  Cu  Cu1       1.0  0.5000017123658582  0.5000005609768863  0.4999988940499946  1.0000
  Cu  Cu2       1.0  0.9999963661722902  4.94855385089644e-07  5.186746534693911e-07  1.0000
  H   H1        1.0  0.015958909236957242  0.41520544314266056  0.854249481728644  1.0000
  H   H2        1.0  0.9840418703780005  0.584790170547535  0.14575182074605655  1.0000
  H   H3        1.0  0.2590309161124297  0.22837654839694457  0.8296126155491593  1.0000
  H   H4        1.0  0.7409698722438735  0.7716192102998602  0.17038753034025012  1.0000
  H   H5        1.0  0.13583539242942783  0.2689427404481748  0.016248947653785695  1.0000
  H   H6        1.0  0.8641647985391288  0.7310545521271337  0.9837520297388953  1.0000
  H   H7        1.0  0.7691869064368221  0.4191450146586461  0.6495643622109953  1.0000
  H   H8        1.0  0.23081828423412537  0.5808510706397668  0.3504344011350612  1.0000
  H   H9        1.0  0.7955029822902591  0.6348510869920856  0.46756523450770987  1.0000
  H   H10       1.0  0.20449955490830973  0.3651481022027524  0.532434496107385  1.0000
  H   H11       1.0  0.9024141368161693  0.37288730523447805  0.46593562444660835  1.0000
  H   H12       1.0  0.0975887080104841  0.6271156406110234  0.5340606819860769  1.0000
  H   H13       1.0  0.44868382801345075  0.830770152577308  0.9612958969289098  1.0000
  H   H14       1.0  0.5513152202419463  0.1692223206280801  0.03870350764952249  1.0000
  H   H15       1.0  0.3834993562167882  0.8389723667351914  0.14230346593721788  1.0000
  H   H16       1.0  0.6164961772571189  0.16102171262752307  0.8576953786694688  1.0000
  H   H17       1.0  0.6557848818104689  0.4306442953920423  0.12723781010431884  1.0000
  H   H18       1.0  0.3442150015299957  0.5693492405326026  0.8727665914707717  1.0000
  C   C1        1.0  0.7441364290372333  0.03300100837124378  0.4803527911488674  1.0000
  C   C2        1.0  0.2558643422221113  0.9670032174789464  0.5196459642201605  1.0000
  C   C3        1.0  0.7086587549940762  0.2756835966246243  0.2304826762393476  1.0000
  C   C4        1.0  0.291332684564729  0.7243314271203756  0.7695067193463675  1.0000
  C   C5        1.0  0.7220619057191089  0.923817344296246  0.6703812994335154  1.0000
  C   C6        1.0  0.2779367832315671  0.07618801655202385  0.3296210614571536  1.0000
  N   N1        1.0  0.8321215989638446  0.07573262930009857  0.21269243135607502  1.0000
  N   N2        1.0  0.16787917190976742  0.9242628393834804  0.7873100277039243  1.0000
  N   N3        1.0  0.8548751755942522  0.921000894494007  0.3709048576544165  1.0000
  N   N4        1.0  0.14512614934611892  0.07900107244461196  0.6290988491378118  1.0000
  N   N5        1.0  0.11415420580920001  0.2615016992911875  0.9136057659686543  1.0000
  N   N6        1.0  0.8858465650644192  0.7384937693923916  0.08639669309134478  1.0000
  N   N7        1.0  0.6497615562514196  0.25557110821539186  0.39703230212423096  1.0000
  N   N8        1.0  0.35023830125073363  0.7444307498560291  0.602971865515777  1.0000
  N   N9        1.0  0.7720273428928481  0.47882659875565264  0.5217683411631956  1.0000
  N   N10       1.0  0.2279772591316914  0.5211711654278799  0.4782300971008413  1.0000
  O   O1        1.0  0.8502237138458143  0.7320213070155573  0.7276138779033802  1.0000
  O   O2        1.0  0.14976438743939718  0.26799690443822743  0.2723888823075599  1.0000
  O   O3        1.0  0.569285434110256  0.03663906214672609  0.7612448403973746  1.0000
  O   O4        1.0  0.4307050571117088  0.9633817709596569  0.2387508901095148  1.0000
  O   O5        1.0  0.37367499389913683  0.7595937073599044  0.08013063184002084  1.0000
  O   O6        1.0  0.6263322874360925  0.24039263078043396  0.9198670730900604  1.0000
