data_image0
_chemical_formula_structural       Cd8H32C30N12O30
_chemical_formula_sum              "Cd8 H32 C30 N12 O30"
_cell_length_a       10.808753011413227
_cell_length_b       12.143299367181417
_cell_length_c       12.461978811861282
_cell_angle_alpha    65.46832441340015
_cell_angle_beta     60.222228817627354
_cell_angle_gamma    64.74602123057142

_space_group_name_H-M_alt    "P 1"
_space_group_IT_number       1

loop_
  _space_group_symop_operation_xyz
  'x, y, z'

loop_
  _atom_site_type_symbol
  _atom_site_label
  _atom_site_symmetry_multiplicity
  _atom_site_fract_x
  _atom_site_fract_y
  _atom_site_fract_z
  _atom_site_occupancy
  Cd  Cd1       1.0  0.18310024493666077  0.5542654518248682  0.014685434403453738  1.0000
  Cd  Cd2       1.0  0.8168664102231632  0.4457534762013111  0.9852902884008683  1.0000
  Cd  Cd3       1.0  0.3507000845386302  0.5775103030772187  0.4289679440649719  1.0000
  Cd  Cd4       1.0  0.6492946945110917  0.4224866621372882  0.5710652953222706  1.0000
  Cd  Cd5       1.0  0.9765777023359096  0.5440150566764786  0.6343214657943929  1.0000
  Cd  Cd6       1.0  0.023440279418231614  0.45596751229556537  0.3656801847536428  1.0000
  Cd  Cd7       1.0  0.274942945603037  0.3553765951868542  0.7096586020978534  1.0000
  Cd  Cd8       1.0  0.7250729201300034  0.6446097188837855  0.2903642369999488  1.0000
  H   H1        1.0  0.23164212821247798  0.8162448606088547  0.06539095555614693  1.0000
  H   H2        1.0  0.7683819190210175  0.18373894249773318  0.9346045347948644  1.0000
  H   H3        1.0  0.05319548646870928  0.8571732241571158  0.18329609331975386  1.0000
  H   H4        1.0  0.9468303770061653  0.1428006343439066  0.816691846588398  1.0000
  H   H5        1.0  0.35995808111573535  0.9690239934713816  0.13699028807970853  1.0000
  H   H6        1.0  0.6400969631594151  0.030933745881689814  0.8629634307765527  1.0000
  H   H7        1.0  0.4152995731433293  0.8586175179058417  0.052566769956740596  1.0000
  H   H8        1.0  0.5847693890152287  0.14128549642826024  0.9474438245631231  1.0000
  H   H9        1.0  0.7083296351475712  0.9218444351510582  0.4744606514246429  1.0000
  H   H10       1.0  0.2916963599247282  0.07816452941405323  0.5255151898274588  1.0000
  H   H11       1.0  0.6254155877160485  0.8078134348006147  0.6100485986838037  1.0000
  H   H12       1.0  0.37459767338766886  0.19220338784094795  0.38993844174996173  1.0000
  H   H13       1.0  0.6171078673967757  0.8544583484161452  0.7584802678112792  1.0000
  H   H14       1.0  0.38289177466526786  0.1455666998074534  0.24150936534650208  1.0000
  H   H15       1.0  0.7489616974079214  0.924329738267737  0.7288905878743889  1.0000
  H   H16       1.0  0.25104886008278987  0.0756636278892273  0.2711198050279791  1.0000
  H   H17       1.0  0.03252527049173178  0.9247811710864725  0.7308218829546359  1.0000
  H   H18       1.0  0.9674874034884767  0.07529803795755899  0.269127305084062  1.0000
  H   H19       1.0  0.19176182168767048  0.9458226277765505  0.7192852966186578  1.0000
  H   H20       1.0  0.8082643359754584  0.05416948983080521  0.2807127088582534  1.0000
  H   H21       1.0  0.41905296470985576  0.8920699480318606  0.5595374351299894  1.0000
  H   H22       1.0  0.5809724820712107  0.10795669813879273  0.440418504965784  1.0000
  H   H23       1.0  0.4291771356174294  0.8614749294210001  0.42591459345277366  1.0000
  H   H24       1.0  0.5708366125253334  0.13849649648929593  0.5740848440821438  1.0000
  H   H25       1.0  0.8454597694266968  0.69947976014047  0.01950068008936506  1.0000
  H   H26       1.0  0.15447533068129365  0.300490546610888  0.9805363435152115  1.0000
  H   H27       1.0  0.9408155945565327  0.7407859489787968  0.05334624828482492  1.0000
  H   H28       1.0  0.05919300228803344  0.25919356036676794  0.9465953173027443  1.0000
  H   H29       1.0  0.4536539772696672  0.4175676282320993  0.8656368853414375  1.0000
  H   H30       1.0  0.546350146130685  0.5824353653112695  0.13436620503637176  1.0000
  H   H31       1.0  0.464676528793028  0.5524207130747455  0.8231362775647425  1.0000
  H   H32       1.0  0.5353104878508577  0.4475886655728801  0.17686830086437064  1.0000
  C   C1        1.0  0.15773053217830588  0.8520472530221852  0.5278274665384044  1.0000
  C   C2        1.0  0.8422806789633841  0.1479796536148754  0.4721422677683193  1.0000
  C   C3        1.0  0.9539130255906805  0.8372810735403319  0.5328698990275669  1.0000
  C   C4        1.0  0.04608359258992324  0.16274147794950983  0.46711225255261707  1.0000
  C   C5        1.0  0.15692644295015162  0.8432519431939199  0.3488427308795393  1.0000
  C   C6        1.0  0.8430807938050223  0.1567527091119203  0.6511440125066058  1.0000
  C   C7        1.0  0.16887248147806125  0.8018423703996053  0.16910027786232726  1.0000
  C   C8        1.0  0.831156157315604  0.1981434051762179  0.8308934048771306  1.0000
  C   C9        1.0  0.16843013549433294  0.6634191478374164  0.23001588072230558  1.0000
  C   C10       1.0  0.8316018567508507  0.3365654041410622  0.7699849029760414  1.0000
  C   C11       1.0  0.37269817607862893  0.8704887265618028  0.1487697154717225  1.0000
  C   C12       1.0  0.6273457842746597  0.1294631162649651  0.8512324920232002  1.0000
  C   C13       1.0  0.49269629878826765  0.7863613859612498  0.20224422782148113  1.0000
  C   C14       1.0  0.5073138011940017  0.21361543271033415  0.7978029338833819  1.0000
  C   C15       1.0  0.7314065312124712  0.8269134178005687  0.5372257497991267  1.0000
  C   C16       1.0  0.26860595561596073  0.17309955251842268  0.4627638223002036  1.0000
  C   C17       1.0  0.7975277817122548  0.7346235528520212  0.4561158812064788  1.0000
  C   C18       1.0  0.20249505950150146  0.2653809029456582  0.5438773667197908  1.0000
  C   C19       1.0  0.7358650363360438  0.8388083620836116  0.7307917691521054  1.0000
  C   C20       1.0  0.26413017247050874  0.1611968146715341  0.26920294387645066  1.0000
  C   C21       1.0  0.7775383854845617  0.7316094086032692  0.838105832174996  1.0000
  C   C22       1.0  0.22244031032485617  0.2683890482623568  0.16189090426517797  1.0000
  C   C23       1.0  0.1505508127786329  0.8804942839732988  0.7140222955284086  1.0000
  C   C24       1.0  0.8494521642849906  0.1195384441279472  0.2859414663671841  1.0000
  C   C25       1.0  0.15913867611278945  0.7629469062409413  0.8238955563669916  1.0000
  C   C26       1.0  0.8407578834222349  0.23709129873706306  0.17607945799836955  1.0000
  C   C27       1.0  0.3900791375127996  0.8355880327055444  0.5303841728786692  1.0000
  C   C28       1.0  0.609924367878179  0.164411465298862  0.46961322149189744  1.0000
  C   C29       1.0  0.4651535581322009  0.6956721045402574  0.5789758348214916  1.0000
  C   C30       1.0  0.5348235828569516  0.3043300327142545  0.4210868667045702  1.0000
  N   N1        1.0  0.8158841411404724  0.8164868732550447  0.603904323676211  1.0000
  N   N2        1.0  0.1841228904302525  0.1835355710149287  0.3960816157525428  1.0000
  N   N3        1.0  0.015679976211949193  0.8373205263981587  0.4087127729995004  1.0000
  N   N4        1.0  0.9843209557517554  0.1626950907624121  0.591278977689434  1.0000
  N   N5        1.0  0.22930543636105236  0.8434040828355834  0.22224697860016815  1.0000
  N   N6        1.0  0.7707235852585301  0.15657533647432592  0.7777424465994044  1.0000
  N   N7        1.0  0.2361895040006773  0.8441178394253798  0.40466731606131373  1.0000
  N   N8        1.0  0.7638159420173309  0.15588578560648614  0.5953213432903084  1.0000
  N   N9        1.0  0.2291402782431432  0.8618359503536797  0.5863438563630368  1.0000
  N   N10       1.0  0.7708584767070407  0.13820772115832375  0.4136256704050538  1.0000
  N   N11       1.0  0.014812328455050861  0.851567303555605  0.5956616744123266  1.0000
  N   N12       1.0  0.9851846186685623  0.1484653138092682  0.40432549411130464  1.0000
  O   O1        1.0  0.9004074186281417  0.6713768579242511  0.07705035341113851  1.0000
  O   O2        1.0  0.09955664084199614  0.3286088721710598  0.9229578655135882  1.0000
  O   O3        1.0  0.09932955088493867  0.6264044831872583  0.19716861249379034  1.0000
  O   O4        1.0  0.9007208692715594  0.3735643239806592  0.8028311551498463  1.0000
  O   O5        1.0  0.2255347791375328  0.5926170003051467  0.3103464650347049  1.0000
  O   O6        1.0  0.7744778170259039  0.40738175899089407  0.6896691482106191  1.0000
  O   O7        1.0  0.5137186006114051  0.6645285035939069  0.23921167203867094  1.0000
  O   O8        1.0  0.486305742797967  0.33544084206471336  0.7608371843300784  1.0000
  O   O9        1.0  0.18434816686445293  0.5409563884004243  0.6145704299309996  1.0000
  O   O10       1.0  0.8156541110800928  0.4590382226089745  0.3854533563562585  1.0000
  O   O11       1.0  0.49013038872508474  0.6196986798622534  0.5173801197345185  1.0000
  O   O12       1.0  0.5098421783181238  0.380268804047084  0.48272686708479984  1.0000
  O   O13       1.0  0.8856917240118637  0.62639711939633  0.48299198366304824  1.0000
  O   O14       1.0  0.11431726726291211  0.3736067622199641  0.5170127954056908  1.0000
  O   O15       1.0  0.4359583752801016  0.4841490115286007  0.9022383287936575  1.0000
  O   O16       1.0  0.5640400307120573  0.5158545848455987  0.09777171286659592  1.0000
  O   O17       1.0  0.5745038254663939  0.8343139791425003  0.20273186350636507  1.0000
  O   O18       1.0  0.42549231519075914  0.1656620155991817  0.7973325887119244  1.0000
  O   O19       1.0  0.500802154456004  0.6627011208818773  0.6716153795530885  1.0000
  O   O20       1.0  0.4991358506357886  0.3373431068553073  0.32846328143013886  1.0000
  O   O21       1.0  0.1740030940545198  0.6576279864984186  0.8142069711056479  1.0000
  O   O22       1.0  0.8260064818313211  0.34238893301880313  0.18573415643742672  1.0000
  O   O23       1.0  0.14472791160877554  0.7786490951746786  0.9253964285793044  1.0000
  O   O24       1.0  0.8550279913293723  0.22140386799666348  0.07463024935274382  1.0000
  O   O25       1.0  0.8342204039135481  0.6188134471800025  0.8238851159618221  1.0000
  O   O26       1.0  0.16580778034842333  0.38119022407153125  0.1760837290176268  1.0000
  O   O27       1.0  0.7447987443935137  0.7595808413611989  0.9370182190895379  1.0000
  O   O28       1.0  0.25512762863976957  0.24039207674226057  0.06300055395842462  1.0000
  O   O29       1.0  0.7492403083945834  0.7725061907758431  0.36931737052513114  1.0000
  O   O30       1.0  0.25079524128353375  0.22750137882491836  0.6306703126968428  1.0000
