data_image0
_chemical_formula_structural       MnH20C20N8O4
_chemical_formula_sum              "Mn1 H20 C20 N8 O4"
_cell_length_a       8.130361940166686
_cell_length_b       8.44193690847793
_cell_length_c       8.874538381643358
_cell_angle_alpha    72.98955213817406
_cell_angle_beta     64.81791372620113
_cell_angle_gamma    76.90258347491326

_space_group_name_H-M_alt    "P 1"
_space_group_IT_number       1

loop_
  _space_group_symop_operation_xyz
  'x, y, z'

loop_
  _atom_site_type_symbol
  _atom_site_label
  _atom_site_symmetry_multiplicity
  _atom_site_fract_x
  _atom_site_fract_y
  _atom_site_fract_z
  _atom_site_occupancy
  Mn  Mn1       1.0  0.49999951434162426  0.4999980560021484  0.5000029396278904  1.0000
  H   H1        1.0  0.5537984763236636  0.2976372431259904  0.8894621497532782  1.0000
  H   H2        1.0  0.4461996860846824  0.7023663440130149  0.11053521781810374  1.0000
  H   H3        1.0  0.9871543680731066  0.35234177181583  0.7708715380916045  1.0000
  H   H4        1.0  0.012842840580226824  0.6476580841225398  0.22913286650815937  1.0000
  H   H5        1.0  0.9868175719551574  0.14877699767099267  0.09330296099391684  1.0000
  H   H6        1.0  0.013180617881559388  0.851226586241019  0.9066921432582619  1.0000
  H   H7        1.0  0.8656537862773704  0.2897114173804241  0.5711287425282167  1.0000
  H   H8        1.0  0.1343496147514429  0.7102934095094467  0.4288696615995632  1.0000
  H   H9        1.0  0.24991537205187336  0.9034803863699137  0.9710773067879331  1.0000
  H   H10       1.0  0.7500860247072296  0.0965194472413131  0.02891649093408698  1.0000
  H   H11       1.0  0.8167586227836168  0.6252884141441442  0.8645554859702287  1.0000
  H   H12       1.0  0.18323100660177258  0.37470647720943623  0.13545770028770932  1.0000
  H   H13       1.0  0.8296353493824071  0.43127904584116544  0.1460093089707258  1.0000
  H   H14       1.0  0.17036161165518854  0.5687232969682867  0.853988863422103  1.0000
  H   H15       1.0  0.5548990578617676  0.7303190033527615  0.722581093137265  1.0000
  H   H16       1.0  0.44509572062167985  0.26967836715348886  0.277427184424603  1.0000
  H   H17       1.0  0.5869590760629465  0.08492742303266  0.6032344023523919  1.0000
  H   H18       1.0  0.4130424650753071  0.9150711647227752  0.3967608139836898  1.0000
  H   H19       1.0  0.855333105381476  0.9139829064021682  0.36640771658164795  1.0000
  H   H20       1.0  0.1446711683991495  0.08601567346031659  0.6335853323608731  1.0000
  C   C1        1.0  0.5326259076860894  0.16666217095334454  0.9361597370617503  1.0000
  C   C2        1.0  0.4673694672231363  0.8333414305325988  0.06384432454159145  1.0000
  C   C3        1.0  0.28059716292014514  0.2335708954843412  0.8276083467692388  1.0000
  C   C4        1.0  0.7194019343340372  0.7664252084524676  0.17239187418854138  1.0000
  C   C5        1.0  0.8161695341675853  0.39630339594295083  0.6295913967776343  1.0000
  C   C6        1.0  0.18383162221305582  0.6036976948185214  0.3704089039475065  1.0000
  C   C7        1.0  0.39076243579732756  0.1137150048502846  0.9190238026829861  1.0000
  C   C8        1.0  0.6092325693503966  0.8862811101192064  0.08097910353534839  1.0000
  C   C9        1.0  0.358472212951142  0.9456783519144878  0.9852491741617797  1.0000
  C   C10       1.0  0.6415253256030553  0.054319007471818295  0.014754672687324414  1.0000
  C   C11       1.0  0.7871784552253304  0.5718696138964459  0.7831669518144296  1.0000
  C   C12       1.0  0.21281998222713133  0.4281314831444831  0.21683438464468455  1.0000
  C   C13       1.0  0.7994999625207131  0.3155971201038953  0.2401358345043007  1.0000
  C   C14       1.0  0.20050123500249126  0.6844039658170972  0.7598610712420496  1.0000
  C   C15       1.0  0.658522454504876  0.6233288677864195  0.711087756480005  1.0000
  C   C16       1.0  0.34147492595598555  0.3766697390691718  0.2889158034146249  1.0000
  C   C17       1.0  0.6777989649970166  0.13242189720875067  0.47364596103074064  1.0000
  C   C18       1.0  0.32220207443285176  0.8675804361815196  0.5263506577611352  1.0000
  C   C19       1.0  0.8120481464274718  0.0461224036820411  0.3582323120611904  1.0000
  C   C20       1.0  0.18795292043076736  0.9538799264812353  0.6417620434114896  1.0000
  N   N1        1.0  0.677115677067718  0.5118431622268248  0.6157741736090756  1.0000
  N   N2        1.0  0.32288686620539403  0.488157922167936  0.3842233459298896  1.0000
  N   N3        1.0  0.6708603309588598  0.30177162208264  0.39851694768739065  1.0000
  N   N4        1.0  0.3291434136850029  0.698230706641674  0.6014797670301206  1.0000
  N   N5        1.0  0.8854158329991789  0.4286617391031272  0.7301100864845158  1.0000
  N   N6        1.0  0.11458001619006103  0.5713381199749676  0.2698948359822282  1.0000
  N   N7        1.0  0.8872018004960013  0.1638083399514301  0.2119889544780093  1.0000
  N   N8        1.0  0.11280226033453289  0.8361914938343133  0.7880083341484437  1.0000
  O   O1        1.0  0.11116569409784198  0.21559298032554608  0.8754965602871251  1.0000
  O   O2        1.0  0.8888368093146256  0.7843981210007128  0.124499246116166  1.0000
  O   O3        1.0  0.3588418837492995  0.3501843993094268  0.7060585038450711  1.0000
  O   O4        1.0  0.6411552079532613  0.6498166992577339  0.2939422188214209  1.0000
