data_image0
_chemical_formula_structural       Cu2Hg2H22C34N10Cl4
_chemical_formula_sum              "Cu2 Hg2 H22 C34 N10 Cl4"
_cell_length_a       7.231107063009357
_cell_length_b       9.530611183962197
_cell_length_c       13.153332561133313
_cell_angle_alpha    85.4478798814549
_cell_angle_beta     83.98207951250988
_cell_angle_gamma    86.55891994542257

_space_group_name_H-M_alt    "P 1"
_space_group_IT_number       1

loop_
  _space_group_symop_operation_xyz
  'x, y, z'

loop_
  _atom_site_type_symbol
  _atom_site_label
  _atom_site_symmetry_multiplicity
  _atom_site_fract_x
  _atom_site_fract_y
  _atom_site_fract_z
  _atom_site_occupancy
  Cu  Cu1       1.0  0.08899694365579343  0.2251819574093688  0.7024540944486901  1.0000
  Cu  Cu2       1.0  0.9110053896675083  0.7748172205797348  0.2975467668547439  1.0000
  Hg  Hg1       1.0  0.5481480297363319  0.1193781067636337  0.8308282850933042  1.0000
  Hg  Hg2       1.0  0.4518395428499816  0.8806348938075885  0.1691689536001775  1.0000
  H   H1        1.0  0.985549744507914  0.07447168174586952  0.9148222002927044  1.0000
  H   H2        1.0  0.01445514098202241  0.9255306439404977  0.08517603744650869  1.0000
  H   H3        1.0  0.8058255583156041  0.14731884816222163  0.07919180474129918  1.0000
  H   H4        1.0  0.1941755983837652  0.8526761274341866  0.9208086089800318  1.0000
  H   H5        1.0  0.694005167484953  0.40194440915795576  0.088925617758548  1.0000
  H   H6        1.0  0.3059780423153741  0.5980475508855321  0.9110746083967314  1.0000
  H   H7        1.0  0.7747995235029848  0.5730933837383605  0.9398141211680909  1.0000
  H   H8        1.0  0.22518219714100246  0.42690069253276164  0.06018684277000831  1.0000
  H   H9        1.0  0.9063923931610773  0.7120389039315428  0.8085895012980231  1.0000
  H   H10       1.0  0.09359887222132812  0.2879582606608651  0.1914099097867208  1.0000
  H   H11       1.0  0.044618337997341904  0.8327372905856409  0.6457805317216556  1.0000
  H   H12       1.0  0.9553757096477966  0.1672598522792939  0.3542187002255943  1.0000
  H   H13       1.0  0.205131881612246  0.6920038584569073  0.5075114772563155  1.0000
  H   H14       1.0  0.7948747018038561  0.30799423046606494  0.4924899301497875  1.0000
  H   H15       1.0  0.3489115397974487  0.536462348812144  0.40113653866649207  1.0000
  H   H16       1.0  0.6511049320668223  0.46353459747514614  0.5988680936764794  1.0000
  H   H17       1.0  0.4927764826709265  0.34648883010515874  0.295712023001471  1.0000
  H   H18       1.0  0.5072301959013502  0.6535081998142475  0.7042909584908374  1.0000
  H   H19       1.0  0.4570685570751821  0.09215227189228872  0.36279807941345876  1.0000
  H   H20       1.0  0.5429381214971017  0.9078447580271175  0.6372049020788495  1.0000
  H   H21       1.0  0.28495368790521514  0.04259209348172991  0.5361675166428199  1.0000
  H   H22       1.0  0.7150556933622882  0.9574070175454494  0.463836693203362  1.0000
  C   C1        1.0  0.4668238647640664  0.32862623313655354  0.8110120198766568  1.0000
  C   C2        1.0  0.5331498391611335  0.6713847782940975  0.1889831884583302  1.0000
  C   C3        1.0  0.6303246239929907  0.9213903966596393  0.8882169669047927  1.0000
  C   C4        1.0  0.3696791692576797  0.07862672220419852  0.1117691042324012  1.0000
  C   C5        1.0  0.936504393518348  0.18327582006826057  0.9249787479985232  1.0000
  C   C6        1.0  0.06349803496113542  0.8167222989172773  0.0750236873911163  1.0000
  C   C7        1.0  0.8362772907419185  0.22475328197710112  0.014947492291952401  1.0000
  C   C8        1.0  0.16372231855987715  0.7752448637932048  0.9850536036805908  1.0000
  C   C9        1.0  0.7753368569262025  0.3657604720689136  0.020450690712259197  1.0000
  C   C10       1.0  0.2246574023575576  0.6342335038999211  0.9795502263844115  1.0000
  C   C11       1.0  0.8204412571044275  0.4620636769093238  0.9373246810263256  1.0000
  C   C12       1.0  0.17954720468895866  0.5379345582995398  0.06267637221889541  1.0000
  C   C13       1.0  0.9239930428582357  0.41383471792137533  0.8501889238197293  1.0000
  C   C14       1.0  0.07600092521938957  0.586164527778806  0.1498117156188883  1.0000
  C   C15       1.0  0.9875036598460839  0.5039640561146541  0.7587756088287351  1.0000
  C   C16       1.0  0.012490308231541293  0.49603518958551973  0.2412250306098899  1.0000
  C   C17       1.0  0.9756849703545286  0.6511827296292979  0.7475699373506046  1.0000
  C   C18       1.0  0.024310351939519106  0.34881651026443455  0.2524290939646718  1.0000
  C   C19       1.0  0.05373314796848662  0.7180100681486226  0.6561254061261366  1.0000
  C   C20       1.0  0.9462649721769624  0.2819901938493175  0.3438764276292261  1.0000
  C   C21       1.0  0.14468470931405625  0.6392017862638966  0.5789335907081181  1.0000
  C   C22       1.0  0.855321812992017  0.36079840296567073  0.4210699834666515  1.0000
  C   C23       1.0  0.15250523311252812  0.4921758995907412  0.5949693525029645  1.0000
  C   C24       1.0  0.8475041296975053  0.5078232139650823  0.4050340980659186  1.0000
  C   C25       1.0  0.24439016766892513  0.3902506149122119  0.5251681803301693  1.0000
  C   C26       1.0  0.7556249130639758  0.609746342238822  0.4748365415815457  1.0000
  C   C27       1.0  0.339246777696161  0.4262482844008276  0.4296465766344682  1.0000
  C   C28       1.0  0.6607653858340827  0.5737508048988715  0.5703574540742198  1.0000
  C   C29       1.0  0.41873328780032193  0.318840380626277  0.3704116091234226  1.0000
  C   C30       1.0  0.5812775428397787  0.681157665590888  0.6295925666856236  1.0000
  C   C31       1.0  0.399736612967061  0.17885532693129141  0.40742667934947724  1.0000
  C   C32       1.0  0.6002712422291481  0.8211459053808028  0.5925767497249339  1.0000
  C   C33       1.0  0.30409918595957214  0.15004197018584625  0.5036902654207722  1.0000
  C   C34       1.0  0.6959144667270182  0.8499550028862259  0.4963130275050958  1.0000
  N   N1        1.0  0.4246307655016039  0.4483575851061161  0.7975443615709636  1.0000
  N   N2        1.0  0.5753349254940832  0.5516461239976636  0.20244873578859307  1.0000
  N   N3        1.0  0.6785124751312991  0.8097852920683908  0.9223135429484373  1.0000
  N   N4        1.0  0.3215028052240996  0.190222277126928  0.07766547792759582  1.0000
  N   N5        1.0  0.9776265476373426  0.27509027742538456  0.8444633407443121  1.0000
  N   N6        1.0  0.0223714744831227  0.7249120899364456  0.1555391412251268  1.0000
  N   N7        1.0  0.07142129214279443  0.43042457506879833  0.682282997646283  1.0000
  N   N8        1.0  0.9285796500491446  0.5695746137840416  0.3177179532259018  1.0000
  N   N9        1.0  0.2304613882140032  0.25286921893488323  0.5613645428593587  1.0000
  N   N10       1.0  0.7695494210998178  0.7471298761712647  0.4386410959726775  1.0000
  Cl  Cl1       1.0  0.23060590911226345  0.012914914158344004  0.7496899024726674  1.0000
  Cl  Cl2       1.0  0.7693910188205849  0.987080101615213  0.250308502123005  1.0000
  Cl  Cl3       1.0  0.7961706930337442  0.14045693636919762  0.6482657320054701  1.0000
  Cl  Cl4       1.0  0.20382935995111504  0.8595570178460007  0.35173140431496824  1.0000
