data_image0
_chemical_formula_structural       Al6H52C90Cl10O28
_chemical_formula_sum              "Al6 H52 C90 Cl10 O28"
_cell_length_a       13.438077537190937
_cell_length_b       12.894331904136308
_cell_length_c       30.3460000404734
_cell_angle_alpha    98.86700226499211
_cell_angle_beta     90.2718625093186
_cell_angle_gamma    121.8915998034333

_space_group_name_H-M_alt    "P 1"
_space_group_IT_number       1

loop_
  _space_group_symop_operation_xyz
  'x, y, z'

loop_
  _atom_site_type_symbol
  _atom_site_label
  _atom_site_symmetry_multiplicity
  _atom_site_fract_x
  _atom_site_fract_y
  _atom_site_fract_z
  _atom_site_occupancy
  Al  Al1       1.0  0.592095158709668  0.18519638405167171  0.5150242657308155  1.0000
  Al  Al2       1.0  0.5689425230311117  0.9219503674790134  0.4964431643371867  1.0000
  Al  Al3       1.0  0.3458966766038146  0.9224761101856986  0.49521366121702937  1.0000
  Al  Al4       1.0  0.072329326302615  0.15963098895003466  0.9784669816807252  1.0000
  Al  Al5       1.0  0.3227239830517803  0.4171669503118098  0.995815728167301  1.0000
  Al  Al6       1.0  0.10372894111362294  0.4260884848517179  0.9953793803846197  1.0000
  H   H1        1.0  0.2103378841479471  0.9565560017849395  0.7110247727974511  1.0000
  H   H2        1.0  0.2894516004777046  0.2751125221411784  0.7054804142966516  1.0000
  H   H3        1.0  0.17057132240024941  0.11859042215780853  0.694884723608766  1.0000
  H   H4        1.0  0.5247553450892111  0.21036083839234718  0.7265282958121091  1.0000
  H   H5        1.0  0.5075193194410872  0.3268785321414995  0.7107862293136051  1.0000
  H   H6        1.0  0.15689210667290612  0.6160084769429658  0.8101867684154982  1.0000
  H   H7        1.0  0.7845226133829472  0.3090181800836263  0.7898197916230457  1.0000
  H   H8        1.0  0.7131021695136114  0.24219706277080627  0.7133198386964281  1.0000
  H   H9        1.0  0.9313913328561796  0.35441191303763736  0.7151260114411854  1.0000
  H   H10       1.0  0.029174204287123518  0.2548429690611727  0.7737876240806756  1.0000
  H   H11       1.0  0.7338542404405571  0.9563722538881761  0.700381159525918  1.0000
  H   H12       1.0  0.6761823801039099  0.15675740967125054  0.7961000948231387  1.0000
  H   H13       1.0  0.8715047822966682  0.0305999563637656  0.7827867832389116  1.0000
  H   H14       1.0  0.3434569217012182  0.8538240456374239  0.2872538168441565  1.0000
  H   H15       1.0  0.17985095182284283  0.5082439784278138  0.280969869895543  1.0000
  H   H16       1.0  0.14788990834760807  0.5910759117505009  0.201644326054037  1.0000
  H   H17       1.0  0.485151514245601  0.8767768948214753  0.28661620802422755  1.0000
  H   H18       1.0  0.3864602202765895  0.5232222961226612  0.2036742345464049  1.0000
  H   H19       1.0  0.1292098324850599  0.044238250326657215  0.0836799959333305  1.0000
  H   H20       1.0  0.2116248586104848  0.9345227490614793  0.3795942762250846  1.0000
  H   H21       1.0  0.5038584949561198  0.3239116689356649  0.32775430536673866  1.0000
  H   H22       1.0  0.7654673871337039  0.29541925066622815  0.4075995250033984  1.0000
  H   H23       1.0  0.7396769625096414  0.9448795476412716  0.38416602945939365  1.0000
  H   H24       1.0  0.923784903807352  0.0707358840222199  0.08731287802306302  1.0000
  H   H25       1.0  0.47168553621692416  0.6043842313112151  0.8922966692166057  1.0000
  H   H26       1.0  0.24629735260725047  0.9861600128629817  0.7895077756613986  1.0000
  H   H27       1.0  0.1394809634483708  0.5792931678147113  0.8891532658507657  1.0000
  H   H28       1.0  0.40076594667857524  0.0645353439466945  0.7876654590204596  1.0000
  H   H29       1.0  0.4577912149140389  0.37510834930288445  0.7820616621517048  1.0000
  H   H30       1.0  0.0029524444347331625  0.3753583449609082  0.7891036469893464  1.0000
  H   H31       1.0  0.8895314726490042  0.04298203698003529  0.7063774175702163  1.0000
  H   H32       1.0  0.7236667937623057  0.9905089810828901  0.7783946546647798  1.0000
  H   H33       1.0  0.6346950603402347  0.08427457053250721  0.718437370144656  1.0000
  H   H34       1.0  0.3177270167754217  0.8151536999285156  0.2088821169816626  1.0000
  H   H35       1.0  0.16394491101362266  0.6351896662142167  0.2799271846060876  1.0000
  H   H36       1.0  0.1775645704653144  0.473633194910029  0.203022688170492  1.0000
  H   H37       1.0  0.5119999519714965  0.697725266863145  0.28689352612610003  1.0000
  H   H38       1.0  0.3880749695974474  0.544730478573449  0.2816421662219355  1.0000
  H   H39       1.0  0.5053206779255888  0.6788833804390464  0.2087971020983872  1.0000
  H   H40       1.0  0.4643472445652393  0.8520254323039539  0.20856645377099173  1.0000
  H   H41       1.0  0.1475820192277837  0.010603374582153402  0.1616906379044707  1.0000
  H   H42       1.0  0.18770588269678265  0.957638047969773  0.3005047209171963  1.0000
  H   H43       1.0  0.5262621126367009  0.2988493743976477  0.406719012608896  1.0000
  H   H44       1.0  0.5329826212072533  0.7691275283676121  0.5982462837590816  1.0000
  H   H45       1.0  0.48332178641292234  0.3586959856613846  0.1890425558232067  1.0000
  H   H46       1.0  0.462610021545629  0.39112501796888927  0.11113984595328222  1.0000
  H   H47       1.0  0.8224686387768968  0.32555810283540854  0.3297964060315124  1.0000
  H   H48       1.0  0.8765449768241423  0.0329282798020003  0.1651127018372378  1.0000
  H   H49       1.0  0.4910774100544303  0.6431012110082365  0.8137303082831621  1.0000
  H   H50       1.0  0.7967049997714356  0.9732708823177206  0.3063708357316415  1.0000
  H   H51       1.0  0.6649117887300167  0.3893337271458961  0.5056641484554305  1.0000
  H   H52       1.0  0.01168731621728402  0.9549359520742374  0.9823702458335504  1.0000
  C   C1        1.0  0.7082964509180626  0.09678324035504463  0.5708401452486669  1.0000
  C   C2        1.0  0.33622876930430584  0.6655839355021769  0.6765546425257511  1.0000
  C   C3        1.0  0.2383549956667538  0.6496803740097832  0.6513916608274428  1.0000
  C   C4        1.0  0.2454649030314686  0.6754458316116614  0.6076970576825005  1.0000
  C   C5        1.0  0.2259982653496166  0.6147637504464568  0.8285679168442073  1.0000
  C   C6        1.0  0.21663985131858965  0.5952005640172331  0.8724384452661056  1.0000
  C   C7        1.0  0.4046374047504102  0.6096731422478643  0.8743004910220904  1.0000
  C   C8        1.0  0.41500601424012024  0.6304647903421667  0.8305611310192447  1.0000
  C   C9        1.0  0.3246694047707024  0.6310115886804298  0.806723884338723  1.0000
  C   C10       1.0  0.33015104117949073  0.6429329835839893  0.7611756521572914  1.0000
  C   C11       1.0  0.3312010461481735  0.6497316640037809  0.7214835567997469  1.0000
  C   C12       1.0  0.38048930248146473  0.7751473719187701  0.5470167022236296  1.0000
  C   C13       1.0  0.3051522308806867  0.5910342269002413  0.8954168575365671  1.0000
  C   C14       1.0  0.3029246757165112  0.024989399168909212  0.7234844321528798  1.0000
  C   C15       1.0  0.2555798334844824  0.18413216831520174  0.714774462167334  1.0000
  C   C16       1.0  0.23920019821936478  0.19250898471275246  0.7652022221720145  1.0000
  C   C17       1.0  0.309372358617047  0.21512897007574597  0.8781221259315615  1.0000
  C   C18       1.0  0.3448875794659685  0.14450133900744788  0.7040570360893809  1.0000
  C   C19       1.0  0.32049940305819297  0.05764387845724169  0.7749403718547968  1.0000
  C   C20       1.0  0.33631154138295477  0.18599243102641344  0.7912477078814604  1.0000
  C   C21       1.0  0.45566544444428553  0.2880345655250522  0.7772517172483974  1.0000
  C   C22       1.0  0.46775378821416785  0.24768449503661571  0.728249845302912  1.0000
  C   C23       1.0  0.3855978514209184  0.09439710522343601  0.5707047185721236  1.0000
  C   C24       1.0  0.3271210162664176  0.20486847736754044  0.8390031859691831  1.0000
  C   C25       1.0  0.34921727917482304  0.12425932685925999  0.6559553834639119  1.0000
  C   C26       1.0  0.35730132194302666  0.1119397859215141  0.6159148349739213  1.0000
  C   C27       1.0  0.720281602280849  0.17224531612756522  0.7271188225287303  1.0000
  C   C28       1.0  0.934797041939504  0.27412794351978687  0.7205689210814441  1.0000
  C   C29       1.0  0.9641053158448684  0.280341634621756  0.7703301065351127  1.0000
  C   C30       1.0  0.9040452619034695  0.2257934224884934  0.8787102740766244  1.0000
  C   C31       1.0  0.8140501478633977  0.1541236099757199  0.7033156974059054  1.0000
  C   C32       1.0  0.7531783475918487  0.21062006787196447  0.7783525194971617  1.0000
  C   C33       1.0  0.8512881830504072  0.18875459669474287  0.7906565813982027  1.0000
  C   C34       1.0  0.7037774864621581  0.09789442081125801  0.444633871810673  1.0000
  C   C35       1.0  0.8119109329868762  0.054119768496910615  0.7689437698371648  1.0000
  C   C36       1.0  0.8119581259958648  0.0430667425204305  0.7176291984001253  1.0000
  C   C37       1.0  0.877790986609092  0.20975109098869635  0.8387564303206645  1.0000
  C   C38       1.0  0.7878259590639444  0.1352794337778889  0.6553152145073895  1.0000
  C   C39       1.0  0.7588179603502139  0.1191001992133991  0.6156682106456017  1.0000
  C   C40       1.0  0.39248957382085353  0.8125742525125332  0.2729805655413172  1.0000
  C   C41       1.0  0.21601289621889933  0.5952710782845757  0.2681735516689727  1.0000
  C   C42       1.0  0.20955250257925678  0.5714155057590345  0.21639432713552506  1.0000
  C   C43       1.0  0.3168428489564975  0.6204333460523941  0.11178502504279919  1.0000
  C   C44       1.0  0.3455531551286272  0.6866981786587943  0.2885952633015165  1.0000
  C   C45       1.0  0.3857444506645465  0.7766281255574584  0.42508006282126587  1.0000
  C   C46       1.0  0.3795147652977492  0.7921385607894039  0.22114077303357504  1.0000
  C   C47       1.0  0.3332118260231525  0.6545009668082288  0.2010666688663321  1.0000
  C   C48       1.0  0.41736219165401434  0.6193990102320371  0.219285763585205  1.0000
  C   C49       1.0  0.42128645940868387  0.6342014077711937  0.27097406735367  1.0000
  C   C50       1.0  0.32528530827916313  0.6368444468077924  0.1525517707135364  1.0000
  C   C51       1.0  0.3534885560525894  0.7072561901191962  0.3371601687823755  1.0000
  C   C52       1.0  0.3617591538694782  0.7274427553423379  0.3779469441618062  1.0000
  C   C53       1.0  0.3698178330605301  0.11580676321898412  0.3977621447202964  1.0000
  C   C54       1.0  0.45214167500929386  0.2256378757281041  0.38314027128729583  1.0000
  C   C55       1.0  0.439883604169239  0.2390642739676139  0.3393255190605373  1.0000
  C   C56       1.0  0.3902060362286973  0.09780944505349248  0.4434293145495758  1.0000
  C   C57       1.0  0.34463274228198054  0.1421039735205269  0.30883029234591675  1.0000
  C   C58       1.0  0.26139798857846586  0.0323088377132166  0.32393876911726244  1.0000
  C   C59       1.0  0.27413658894378296  0.0196596553760457  0.3678685609063166  1.0000
  C   C60       1.0  0.21662873595931836  0.09334630910124278  0.1503742569911992  1.0000
  C   C61       1.0  0.20644673771410277  0.11152098906127612  0.1071142319860385  1.0000
  C   C62       1.0  0.3950109623940747  0.30776549602360603  0.122544386883007  1.0000
  C   C63       1.0  0.4060009578286524  0.29007895032713554  0.1658409124603963  1.0000
  C   C64       1.0  0.31636895691238465  0.1828886666435423  0.180594568045592  1.0000
  C   C65       1.0  0.32575861171952164  0.16683901555133931  0.2251377750536108  1.0000
  C   C66       1.0  0.3338077229669095  0.1547628714325313  0.26389942684756557  1.0000
  C   C67       1.0  0.3543131542747632  0.7223179969450939  0.5889886166090577  1.0000
  C   C68       1.0  0.2950082233128271  0.2190194846331153  0.09291441910805529  1.0000
  C   C69       1.0  0.7491459491173843  0.11856074495700145  0.4001220320466317  1.0000
  C   C70       1.0  0.7588434571696324  0.028013695076126107  0.3718853090850374  1.0000
  C   C71       1.0  0.7898841059429955  0.0435822160026191  0.3286848286623822  1.0000
  C   C72       1.0  0.8118919385727708  0.15061452484200538  0.3129115131673927  1.0000
  C   C73       1.0  0.8046112850676225  0.24271097885461052  0.3419723359056235  1.0000
  C   C74       1.0  0.7734000988856521  0.22641785863359593  0.38498101712071525  1.0000
  C   C75       1.0  0.9006700549338406  0.3119441425655011  0.1722274467807665  1.0000
  C   C76       1.0  0.9277939003714831  0.3333563854600641  0.128419054324155  1.0000
  C   C77       1.0  0.9166858579413314  0.1372033780471682  0.11175495486353529  1.0000
  C   C78       1.0  0.45000829674339127  0.7333548565612134  0.6130881831008139  1.0000
  C   C79       1.0  0.8908554144995192  0.11655714764405194  0.15472985514283272  1.0000
  C   C80       1.0  0.8833647165482857  0.20420074318334966  0.1861864439196026  1.0000
  C   C81       1.0  0.859332552655097  0.18453619836913762  0.2303544787233349  1.0000
  C   C82       1.0  0.8386531615349992  0.16637012191697662  0.268512575545536  1.0000
  C   C83       1.0  0.9369528845391102  0.24512694987950576  0.09761389535295  1.0000
  C   C84       1.0  0.2762934971567502  0.23655482169125008  0.9220874470721654  1.0000
  C   C85       1.0  0.28670395527601045  0.5536484592413872  0.9399269292249102  1.0000
  C   C86       1.0  0.9551277177670981  0.24958435223668834  0.9236382463768962  1.0000
  C   C87       1.0  0.27699068895349654  0.2426648330990561  0.0480263401457961  1.0000
  C   C88       1.0  0.2906455501752703  0.5722274557182132  0.0645746616945075  1.0000
  C   C89       1.0  0.4408676770772786  0.7036556323685089  0.6554298552935479  1.0000
  C   C90       1.0  0.9751506112212169  0.25936135049521175  0.05133671468568931  1.0000
  Cl  Cl1       1.0  0.09613552752449551  0.06724453888939762  0.7739074123039629  1.0000
  Cl  Cl2       1.0  0.25111601525315314  0.33618863630441354  0.7874009383907179  1.0000
  Cl  Cl3       1.0  0.5770306011368334  0.32035788297796586  0.8140044939954977  1.0000
  Cl  Cl4       1.0  0.3806482588028716  0.9514397847696116  0.7036965138225497  1.0000
  Cl  Cl5       1.0  0.04979344779922468  0.2820989156781977  0.6879133677396895  1.0000
  Cl  Cl6       1.0  0.11074335696395834  0.6027388373561636  0.6762913917938677  1.0000
  Cl  Cl7       1.0  0.12085896101988432  0.6470935697312612  0.5792788142339732  1.0000
  Cl  Cl8       1.0  0.9497526943779421  0.468227858477249  0.1152012430681921  1.0000
  Cl  Cl9       1.0  0.8880060511559406  0.4169558048010344  0.21034518326464277  1.0000
  Cl  Cl10      1.0  0.5598087324053438  0.7165888255327957  0.6835646008115503  1.0000
  O   O1        1.0  0.4879327974601964  0.1729138423687715  0.5625141923874254  1.0000
  O   O2        1.0  0.48222770182012203  0.800290656491278  0.4444899762333137  1.0000
  O   O3        1.0  0.3125088326639516  0.7994471329119793  0.4437975329112476  1.0000
  O   O4        1.0  0.3101193698485505  0.9953971573702776  0.45505295291870607  1.0000
  O   O5        1.0  0.5009777947924902  0.007893757688918902  0.5017982948202757  1.0000
  O   O6        1.0  0.9697221783743615  0.16841771906240405  0.9354570559444467  1.0000
  O   O7        1.0  0.170244046228774  0.16527372386955363  0.9285895447442343  1.0000
  O   O8        1.0  0.3574557804745453  0.3304430153317739  0.9503866744468326  1.0000
  O   O9        1.0  0.3587333038482754  0.5294404083078987  0.9563236220768089  1.0000
  O   O10       1.0  0.1961552806318424  0.5407508211556192  0.9582139200108628  1.0000
  O   O11       1.0  0.9870912951113056  0.35608310249603653  0.9479594529430173  1.0000
  O   O12       1.0  0.690182696426163  0.17665038532759075  0.5601487921314926  1.0000
  O   O13       1.0  0.9915234262169433  0.17717545446300423  0.0310874744491159  1.0000
  O   O14       1.0  0.18383812351566323  0.16194779928467543  0.0229274831618937  1.0000
  O   O15       1.0  0.3565955526564508  0.34838905597510467  0.03853588768650701  1.0000
  O   O16       1.0  0.36170730032758064  0.5475855230154494  0.044896070377539815  1.0000
  O   O17       1.0  0.1940505549294329  0.55050704607131  0.04601538612894981  1.0000
  O   O18       1.0  0.9927817778833938  0.354123819496543  0.03559180831360461  1.0000
  O   O19       1.0  0.16758171438669228  0.3360292165181208  0.9902437706486324  1.0000
  O   O20       1.0  0.6810671657848959  0.9930900893170219  0.5454725001146343  1.0000
  O   O21       1.0  0.4770787400222787  0.798678404060368  0.5312750781523903  1.0000
  O   O22       1.0  0.3108868369167724  0.8022345934218292  0.5310110543930193  1.0000
  O   O23       1.0  0.3057937660111848  0.9973107702470473  0.5431453445430137  1.0000
  O   O24       1.0  0.4853646662597058  0.17953936365125864  0.46716816296515873  1.0000
  O   O25       1.0  0.6840316468392443  0.1764530562790512  0.4657620402793654  1.0000
  O   O26       1.0  0.682766045137079  0.9980348337344724  0.4577588500292507  1.0000
  O   O27       1.0  0.6752433346356524  0.3479329921696462  0.5275668293572764  1.0000
  O   O28       1.0  0.9829284831462315  0.9971000052361203  0.9678510271302088  1.0000
