data_image0
_chemical_formula_structural       Ni8H54C96N24O6
_chemical_formula_sum              "Ni8 H54 C96 N24 O6"
_cell_length_a       23.003524256298967
_cell_length_b       23.002795175902882
_cell_length_c       23.003251831753758
_cell_angle_alpha    59.999188611721785
_cell_angle_beta     60.00033225681952
_cell_angle_gamma    59.99912524737203

_space_group_name_H-M_alt    "P 1"
_space_group_IT_number       1

loop_
  _space_group_symop_operation_xyz
  'x, y, z'

loop_
  _atom_site_type_symbol
  _atom_site_label
  _atom_site_symmetry_multiplicity
  _atom_site_fract_x
  _atom_site_fract_y
  _atom_site_fract_z
  _atom_site_occupancy
  Ni  Ni1       1.0  0.04594708428552959  0.8622205489478174  0.04591515940084186  1.0000
  Ni  Ni2       1.0  0.8621685975499106  0.045930831954720495  0.04595102168848104  1.0000
  Ni  Ni3       1.0  0.04596558426013791  0.04591452403623459  0.0459272357955953  1.0000
  Ni  Ni4       1.0  0.04596439351775657  0.045912158962160506  0.8621977052430906  1.0000
  Ni  Ni5       1.0  0.1378336984191295  0.9540673379372532  0.954045788653808  1.0000
  Ni  Ni6       1.0  0.9540502585519873  0.13778136234670768  0.9540817978935011  1.0000
  Ni  Ni7       1.0  0.954036245551123  0.9540866576037244  0.9540723532043175  1.0000
  Ni  Ni8       1.0  0.9540326068680687  0.9540859319128998  0.1378039473171174  1.0000
  H   H1        1.0  0.09209167731130918  0.9078999138023602  0.9079359821307309  1.0000
  H   H2        1.0  0.9078930856096435  0.0921041980244226  0.0920580441097203  1.0000
  H   H3        1.0  0.09208896941399317  0.9078827286805475  0.09207017559251804  1.0000
  H   H4        1.0  0.9079105130800825  0.09210480219674382  0.9079251793596727  1.0000
  H   H5        1.0  0.9079286880058748  0.9079069889097864  0.092081935487265  1.0000
  H   H6        1.0  0.09206956845086713  0.092094966599113  0.9078996885711349  1.0000
  H   H7        1.0  0.620262618556019  0.5123140580185535  0.9337126996209194  1.0000
  H   H8        1.0  0.8308530325200749  0.3022880164114738  0.9334288511177321  1.0000
  H   H9        1.0  0.5123129209669273  0.6202662507876227  0.9337118763392525  1.0000
  H   H10       1.0  0.30226714088191664  0.8308560902686181  0.9334378177650536  1.0000
  H   H11       1.0  0.9337147486286593  0.933713922520944  0.620264095864819  1.0000
  H   H12       1.0  0.9334411444916529  0.9334330422234414  0.8308473708607098  1.0000
  H   H13       1.0  0.9337150775124744  0.933714406720625  0.5123125797663733  1.0000
  H   H14       1.0  0.9334354831284344  0.9334272713611821  0.30230265641557014  1.0000
  H   H15       1.0  0.9337117090293604  0.5123115826765384  0.6202663514652969  1.0000
  H   H16       1.0  0.9334259787352008  0.3023075296895144  0.8308419970659601  1.0000
  H   H17       1.0  0.9337107806937368  0.6202669153640696  0.512313859026449  1.0000
  H   H18       1.0  0.933441277939537  0.830841682181763  0.3022775251540823  1.0000
  H   H19       1.0  0.5123117689080203  0.9337143793064513  0.9337164736852941  1.0000
  H   H20       1.0  0.3022991591719662  0.9334255869319532  0.9334316444291276  1.0000
  H   H21       1.0  0.6202625120059084  0.9337132515088766  0.9337140744129756  1.0000
  H   H22       1.0  0.8308522944217956  0.9334384898563991  0.9334432705237391  1.0000
  H   H23       1.0  0.9337134807958306  0.5123120341559827  0.9337143074080102  1.0000
  H   H24       1.0  0.933419849147036  0.3023273366947664  0.9334185975343702  1.0000
  H   H25       1.0  0.9337111399414936  0.6202684073976458  0.9337112927027675  1.0000
  H   H26       1.0  0.9334409023995609  0.8308447460770407  0.9334388311056188  1.0000
  H   H27       1.0  0.6202621160349866  0.9337125922373062  0.5123147798605177  1.0000
  H   H28       1.0  0.8308471550270514  0.933437736055552  0.30227132649910976  1.0000
  H   H29       1.0  0.5123108854718836  0.9337122077641097  0.6202650900783553  1.0000
  H   H30       1.0  0.302280669262082  0.9334307195105179  0.8308499324601898  1.0000
  H   H31       1.0  0.4876874092477694  0.37973256167109054  0.06629104900927271  1.0000
  H   H32       1.0  0.6977296336234602  0.16913829676977335  0.06656563479668169  1.0000
  H   H33       1.0  0.3797383973587857  0.4876845706996276  0.06628972376135794  1.0000
  H   H34       1.0  0.16914164188730763  0.6977086178209075  0.06657392195962337  1.0000
  H   H35       1.0  0.0662877112087585  0.06628701969242459  0.37974095917152073  1.0000
  H   H36       1.0  0.06656135213254542  0.06656880626752583  0.16915514385189567  1.0000
  H   H37       1.0  0.06628558875219431  0.06628561128874111  0.487694128209057  1.0000
  H   H38       1.0  0.06656781471597377  0.06657537839313225  0.6977051773004703  1.0000
  H   H39       1.0  0.48768900374670904  0.06628790264066714  0.37973751075583106  1.0000
  H   H40       1.0  0.6977105453994169  0.06657462755564589  0.1691449255137415  1.0000
  H   H41       1.0  0.3797382016306797  0.06628794664217008  0.48768749647405235  1.0000
  H   H42       1.0  0.16914636143874878  0.0665681739945256  0.6977211990954899  1.0000
  H   H43       1.0  0.06628727694201346  0.487691553277706  0.0662882072751572  1.0000
  H   H44       1.0  0.06658054018072355  0.6976819687008555  0.0665828270211435  1.0000
  H   H45       1.0  0.06629022998650673  0.3797349227799173  0.06629139946174695  1.0000
  H   H46       1.0  0.06655797041955942  0.1691578258075097  0.0665607274091542  1.0000
  H   H47       1.0  0.4876930052827362  0.06628539947007542  0.06628689798567693  1.0000
  H   H48       1.0  0.6977106344618206  0.06657573366827312  0.06657049016948956  1.0000
  H   H49       1.0  0.3797409580200792  0.06628783147469622  0.06628929723591878  1.0000
  H   H50       1.0  0.16915086372837612  0.06656228123527796  0.06655753036043421  1.0000
  H   H51       1.0  0.0662899842425518  0.3797314623589542  0.4876890663294304  1.0000
  H   H52       1.0  0.0665640190068685  0.16915079403255362  0.6977171860223237  1.0000
  H   H53       1.0  0.06628923337549274  0.48768697252604176  0.37973675136457535  1.0000
  H   H54       1.0  0.06657924470125237  0.6976848730092156  0.16915339355803385  1.0000
  C   C1        1.0  0.5616333435651272  0.4383655647949993  1.748003271112581e-06  1.0000
  C   C2        1.0  0.6230325388571744  0.37696609314544827  2.1382782621125805e-06  1.0000
  C   C3        1.0  0.6761652216999609  0.32383283902084503  1.3542372770310045e-06  1.0000
  C   C4        1.0  0.7371554174863492  0.2628425271624195  1.0581403986003097e-06  1.0000
  C   C5        1.0  0.43836563113305294  0.5616342001087984  1.1369801883567277e-06  1.0000
  C   C6        1.0  0.37696587919758456  0.6230305066213189  3.4036209372011474e-06  1.0000
  C   C7        1.0  0.32382775473920605  0.6761609272371486  6.0737408774668845e-06  1.0000
  C   C8        1.0  0.262838636376813  0.7371523165917394  3.6824957448868085e-06  1.0000
  C   C9        1.0  4.385056871622828e-07  0.9999993486986367  0.5616355133585242  1.0000
  C   C10       1.0  8.249774198020396e-08  5.571315853385305e-08  0.6230348360068234  1.0000
  C   C11       1.0  2.7559000983436733e-06  2.6528519683616563e-06  0.6761663522240794  1.0000
  C   C12       1.0  3.3705773034878134e-06  4.049317141168722e-06  0.7371548857017274  1.0000
  C   C13       1.0  1.541006284409674e-06  9.10492879309455e-07  0.4383619300689219  1.0000
  C   C14       1.0  2.643431443452643e-06  1.2318213649065086e-06  0.3769685154598932  1.0000
  C   C15       1.0  1.9474085349033687e-06  6.121953362011009e-07  0.32383144708462913  1.0000
  C   C16       1.0  0.9999996280039273  0.9999983011641117  0.2628466250636666  1.0000
  C   C17       1.0  4.326458837267294e-07  0.43836779069261655  0.561631400349633  1.0000
  C   C18       1.0  7.107574761230826e-07  0.37697800419616795  0.6230209594649664  1.0000
  C   C19       1.0  0.9999997652017782  0.3238412279769988  0.6761601177817836  1.0000
  C   C20       1.0  0.999996267686484  0.26286067149034403  0.7371447581761147  1.0000
  C   C21       1.0  0.99999989756882  0.5616310217660967  0.4383715249988925  1.0000
  C   C22       1.0  2.6463656156127064e-06  0.6230192852642914  0.3769802057368495  1.0000
  C   C23       1.0  6.7919241716043595e-06  0.6761542474633371  0.32383672306771427  1.0000
  C   C24       1.0  9.457706994602066e-06  0.7371322331986787  0.2628496285006748  1.0000
  C   C25       1.0  0.4383615603448446  1.185363224590719e-06  2.545658880171545e-06  1.0000
  C   C26       1.0  0.37696349639528387  5.088095137262812e-07  3.375395145650947e-06  1.0000
  C   C27       1.0  0.32383403771247316  0.9999958320802231  0.9999992148607078  1.0000
  C   C28       1.0  0.26284655807019425  0.999991891092918  0.9999936353739686  1.0000
  C   C29       1.0  0.5616367223787152  0.9999996264914867  5.16783849645216e-07  1.0000
  C   C30       1.0  0.6230411653662102  8.495099775875171e-09  2.2046169334199898e-07  1.0000
  C   C31       1.0  0.6761666653389752  5.092206734532032e-06  4.952790995235275e-06  1.0000
  C   C32       1.0  0.7371583505914288  9.761135551490893e-06  7.728387863930389e-06  1.0000
  C   C33       1.0  1.6828197929279873e-06  0.4383672404287039  3.157297150825494e-06  1.0000
  C   C34       1.0  1.1406634998307282e-06  0.37697846089469766  3.2009929426758408e-06  1.0000
  C   C35       1.0  0.9999959266951706  0.32384387924464875  0.9999979738797791  1.0000
  C   C36       1.0  0.9999905524752748  0.26286762006734676  0.9999917787918876  1.0000
  C   C37       1.0  0.9999996019731442  0.561633396153752  0.9999996514667231  1.0000
  C   C38       1.0  0.9999991886272711  0.6230246980642915  0.9999996381898485  1.0000
  C   C39       1.0  3.7850548653293794e-06  0.6761560536805716  4.449480428541323e-06  1.0000
  C   C40       1.0  9.036492599622952e-06  0.7371347985250407  8.814125799085166e-06  1.0000
  C   C41       1.0  0.5616355760147228  7.397797575505294e-07  0.4383662251821506  1.0000
  C   C42       1.0  0.6230364267166166  8.136517025516576e-07  0.3769648314350604  1.0000
  C   C43       1.0  0.676167047030269  3.2691133711852716e-06  0.3238276227449078  1.0000
  C   C44       1.0  0.7371530436669076  7.5537253821184865e-06  0.26283155130537506  1.0000
  C   C45       1.0  0.43836414816774993  3.5695109803582535e-07  0.5616357832593195  1.0000
  C   C46       1.0  0.37696275878566604  6.138508652042609e-07  0.6230363200774748  1.0000
  C   C47       1.0  0.32383024647143094  0.9999994623243251  0.6761712258592142  1.0000
  C   C48       1.0  0.2628403320535071  0.9999973460831342  0.7371626576913926  1.0000
  C   C49       1.0  0.5674632228009315  0.5071964299300974  0.9626711183148585  1.0000
  C   C50       1.0  0.8092141555283874  0.2591062344124921  0.9658397407972005  1.0000
  C   C51       1.0  0.5071949158314271  0.5674653315537055  0.9626709246531108  1.0000
  C   C52       1.0  0.25909766612722523  0.8092105376258444  0.9658455390404512  1.0000
  C   C53       1.0  0.9626721298950187  0.9626714764749946  0.5674636129290036  1.0000
  C   C54       1.0  0.9658419922590868  0.9658464089208181  0.8092152545858654  1.0000
  C   C55       1.0  0.962672422495665  0.9626727252767749  0.507196685770545  1.0000
  C   C56       1.0  0.9658359357893216  0.9658402739411469  0.25911140033479524  1.0000
  C   C57       1.0  0.9626687723424822  0.5071980556544917  0.5674657150307141  1.0000
  C   C58       1.0  0.9658328948731523  0.25912873725707924  0.8092031586780025  1.0000
  C   C59       1.0  0.9626691377646706  0.5674659791975072  0.5071984313716486  1.0000
  C   C60       1.0  0.9658480560298488  0.809192965989325  0.2591073202424354  1.0000
  C   C61       1.0  0.5071951637222086  0.9626725185327555  0.9626739047073585  1.0000
  C   C62       1.0  0.259111850890271  0.9658345916417088  0.9658300625977675  1.0000
  C   C63       1.0  0.5674638617271984  0.9626714793715008  0.9626722359403175  1.0000
  C   C64       1.0  0.8092181114836877  0.9658518047506063  0.9658466496476094  1.0000
  C   C65       1.0  0.9626699800250761  0.5071978254012708  0.9626709867143576  1.0000
  C   C66       1.0  0.9658259650523392  0.2591389713776735  0.9658288419283636  1.0000
  C   C67       1.0  0.9626688894272348  0.5674668145911139  0.9626689467895134  1.0000
  C   C68       1.0  0.9658482124240281  0.8091973226095776  0.9658494376427318  1.0000
  C   C69       1.0  0.5674624698499002  0.9626707426342874  0.507197937873471  1.0000
  C   C70       1.0  0.8092129179376784  0.9658493665563271  0.25909167836482555  1.0000
  C   C71       1.0  0.5071947404113432  0.9626709247591022  0.567464348437916  1.0000
  C   C72       1.0  0.2591033742595031  0.9658385125530201  0.8092210712357045  1.0000
  C   C73       1.0  0.4928056653617858  0.4325337319001504  0.03733149872180526  1.0000
  C   C74       1.0  0.7408995924355537  0.19078259453370094  0.03415602221886631  1.0000
  C   C75       1.0  0.432536746202132  0.4928028907798845  0.03733112757871747  1.0000
  C   C76       1.0  0.19078073940885099  0.740890620366656  0.03416099393738403  1.0000
  C   C77       1.0  0.037329258856530545  0.03732926407142403  0.4325400527564511  1.0000
  C   C78       1.0  0.034159690532270276  0.034154625687960995  0.19078569330922332  1.0000
  C   C79       1.0  0.03732957217151513  0.03732862122390664  0.492806832889265  1.0000
  C   C80       1.0  0.03416698300743788  0.03416286623490087  0.7408904653712086  1.0000
  C   C81       1.0  0.49280539978576604  0.03732943664081027  0.43253775042266085  1.0000
  C   C82       1.0  0.7408881039295493  0.03416535908752401  0.19077393377858706  1.0000
  C   C83       1.0  0.4325374193686925  0.037329367770482305  0.49280466296071523  1.0000
  C   C84       1.0  0.1907798151439337  0.0341557600599458  0.7409008167814264  1.0000
  C   C85       1.0  0.03733086377175706  0.4928041091272489  0.0373314975351775  1.0000
  C   C86       1.0  0.034172386986206886  0.7408656881477281  0.03417074701268064  1.0000
  C   C87       1.0  0.03733177062652267  0.43253580566823047  0.03733303547906532  1.0000
  C   C88       1.0  0.03415106466802343  0.19080478409092186  0.03414858451023412  1.0000
  C   C89       1.0  0.4928079513666646  0.03732820949170448  0.037329111993564444  1.0000
  C   C90       1.0  0.740893455769772  0.03416745861308366  0.03416944029527981  1.0000
  C   C91       1.0  0.4325399390617762  0.037329064912420135  0.03733027879436436  1.0000
  C   C92       1.0  0.1907845877707501  0.034148507417988576  0.03415293936701863  1.0000
  C   C93       1.0  0.03733263108566839  0.43253340250610234  0.49280248608981486  1.0000
  C   C94       1.0  0.034154547451961996  0.19079942504397004  0.7408875074891839  1.0000
  C   C95       1.0  0.03733224357231537  0.4928005730636825  0.432536708351563  1.0000
  C   C96       1.0  0.03417084692997479  0.7408647921691338  0.19079205444993624  1.0000
  N   N1        1.0  0.851075970933806  0.19052089608045011  0.9791986119141356  1.0000
  N   N2        1.0  0.19052249438212954  0.8510799182666489  0.97919531036181  1.0000
  N   N3        1.0  0.9791993832442144  0.9792037169586293  0.8510834415398634  1.0000
  N   N4        1.0  0.9791908310455361  0.9791961144669369  0.19052886655747878  1.0000
  N   N5        1.0  0.9791914667952283  0.19053828122221733  0.851073270849149  1.0000
  N   N6        1.0  0.9791997721695156  0.8510629905985069  0.19052627158879445  1.0000
  N   N7        1.0  0.1905346666371131  0.9791898131461705  0.9791840479349432  1.0000
  N   N8        1.0  0.8510785567948815  0.9792096938925637  0.9792072564250632  1.0000
  N   N9        1.0  0.9791860256051379  0.19054743662992749  0.9791868102516547  1.0000
  N   N10       1.0  0.979203288184145  0.8510697196947772  0.9792061393772546  1.0000
  N   N11       1.0  0.8510731318782024  0.979206272707202  0.190510017006389  1.0000
  N   N12       1.0  0.19052536290158184  0.9791937353710831  0.8510854865922897  1.0000
  N   N13       1.0  0.8094737845679562  0.14891658165026908  0.020800668254359812  1.0000
  N   N14       1.0  0.14891926110453835  0.8094762958282755  0.02079718921333303  1.0000
  N   N15       1.0  0.020801436378477  0.020797323911132485  0.14891783084749483  1.0000
  N   N16       1.0  0.020808519492867033  0.020804326709544744  0.8094728773477727  1.0000
  N   N17       1.0  0.8094667893624673  0.02080733244941502  0.1489084536075184  1.0000
  N   N18       1.0  0.14892107121163187  0.020795107102060305  0.8094820927877037  1.0000
  N   N19       1.0  0.02081218575162342  0.8094579516935168  0.0208100608916695  1.0000
  N   N20       1.0  0.020795798890311832  0.14893393594692833  0.020791056287769998  1.0000
  N   N21       1.0  0.8094715283532709  0.02081051704571717  0.020812027293878585  1.0000
  N   N22       1.0  0.1489246139679281  0.02079108981794771  0.020789792273184615  1.0000
  N   N23       1.0  0.02079875389846826  0.14893140915559394  0.8094690276165721  1.0000
  N   N24       1.0  0.02080749399434746  0.8094556837962085  0.14892202836357887  1.0000
  O   O1        1.0  0.062064415125725365  0.9379851470128951  0.9379310399713104  1.0000
  O   O2        1.0  0.9379331177293863  0.06201521534042355  0.062066743810973456  1.0000
  O   O3        1.0  0.06206496204240655  0.9379886930025446  0.062009062745552554  1.0000
  O   O4        1.0  0.9379332448877021  0.062008865530721685  0.9379876562222621  1.0000
  O   O5        1.0  0.9379011341736219  0.9380118010705158  0.0620380805161887  1.0000
  O   O6        1.0  0.062097763807173516  0.06198905701211288  0.9379583748266214  1.0000
