data_image0
_chemical_formula_structural       Cu4H68C88I4N12O4
_chemical_formula_sum              "Cu4 H68 C88 I4 N12 O4"
_cell_length_a       12.6020922638319
_cell_length_b       13.362222255590808
_cell_length_c       17.38902065319887
_cell_angle_alpha    69.54570784232178
_cell_angle_beta     89.54790500654606
_cell_angle_gamma    64.4372164049836

_space_group_name_H-M_alt    "P 1"
_space_group_IT_number       1

loop_
  _space_group_symop_operation_xyz
  'x, y, z'

loop_
  _atom_site_type_symbol
  _atom_site_label
  _atom_site_symmetry_multiplicity
  _atom_site_fract_x
  _atom_site_fract_y
  _atom_site_fract_z
  _atom_site_occupancy
  Cu  Cu1       1.0  0.4549361475241227  0.4992635992549381  0.5662128540870413  1.0000
  Cu  Cu2       1.0  0.5450598020534516  0.5007361514895903  0.43379168105578  1.0000
  Cu  Cu3       1.0  0.5614234014388021  0.4913038947590634  0.06237488283327514  1.0000
  Cu  Cu4       1.0  0.4385825683477266  0.5086929864059613  0.9376194517842862  1.0000
  H   H1        1.0  0.09529994573654228  0.9080844102123463  0.4164281181022033  1.0000
  H   H2        1.0  0.9046977308891755  0.09190627428259998  0.5835731478409372  1.0000
  H   H3        1.0  0.6509981990358112  0.42617955945745933  0.697045297212888  1.0000
  H   H4        1.0  0.3490080646071051  0.5738219398232117  0.3029563924393059  1.0000
  H   H5        1.0  0.575084891124625  0.28971413579338895  0.36808612594372647  1.0000
  H   H6        1.0  0.42491937271400815  0.7102900160410429  0.6319119714036744  1.0000
  H   H7        1.0  0.7436071819800036  0.27029617072253126  0.8387794868665208  1.0000
  H   H8        1.0  0.2563983888788571  0.7296981039818603  0.1612213178614326  1.0000
  H   H9        1.0  0.8465351523112477  0.8063384066440376  0.1178804931862629  1.0000
  H   H10       1.0  0.153467576793112  0.19366038629763682  0.882120812372996  1.0000
  H   H11       1.0  0.5892106260969072  0.1163075911594333  0.4414956034699813  1.0000
  H   H12       1.0  0.4107865408466724  0.883692960863172  0.5585023776554009  1.0000
  H   H13       1.0  0.8715853164296166  0.08204463650839237  0.2712814902971842  1.0000
  H   H14       1.0  0.12842146171873056  0.917950465403045  0.7287144786543607  1.0000
  H   H15       1.0  0.8753117075334915  0.7939162709893708  0.6170648379949453  1.0000
  H   H16       1.0  0.12468343945275961  0.20608698544496212  0.3829329873076829  1.0000
  H   H17       1.0  0.9301476983147126  0.13376476929067846  0.021034057234785995  1.0000
  H   H18       1.0  0.069850635612248  0.8662367136549064  0.9789659610782665  1.0000
  H   H19       1.0  0.3919235398218675  0.10269149518173039  0.6607318839568703  1.0000
  H   H20       1.0  0.6080759846003617  0.8973108581858751  0.3392661623148072  1.0000
  H   H21       1.0  0.6907189657534332  0.5465274376841833  0.17084334170272092  1.0000
  H   H22       1.0  0.30928697285632006  0.45347126498999313  0.8291522176257117  1.0000
  H   H23       1.0  0.039465059893849797  0.6612256503195509  0.6312082948382737  1.0000
  H   H24       1.0  0.9605296536291164  0.33877682980630647  0.36879779803263085  1.0000
  H   H25       1.0  0.5664722024705215  0.8873475496960876  0.9028246449892305  1.0000
  H   H26       1.0  0.433524563650991  0.1126538833103155  0.09717194622215429  1.0000
  H   H27       1.0  0.7334498320726088  0.7404189025995077  0.6487580787710526  1.0000
  H   H28       1.0  0.2665437135197806  0.25958439032557823  0.35124204689997635  1.0000
  H   H29       1.0  0.5022589737022471  0.4501405837069753  0.22694977152447393  1.0000
  H   H30       1.0  0.4977541385386673  0.5498562974665331  0.7730450936284043  1.0000
  H   H31       1.0  0.3097120785211089  0.7539187608107981  0.44715569472817407  1.0000
  H   H32       1.0  0.6902867262463418  0.24607643712447919  0.5528460485953204  1.0000
  H   H33       1.0  0.2532045321807602  0.5206567684262848  0.6533618260345831  1.0000
  H   H34       1.0  0.7467905620112277  0.4793448825737415  0.34664909323235793  1.0000
  H   H35       1.0  0.7733957245773623  0.169222496639911  0.9650539993462387  1.0000
  H   H36       1.0  0.22660024179442215  0.8307772108896501  0.03494767206154845  1.0000
  H   H37       1.0  0.517707660338786  0.12583803823256548  0.5553489782716454  1.0000
  H   H38       1.0  0.482292651345013  0.8741643314616352  0.444650208803857  1.0000
  H   H39       1.0  0.4936169294698375  0.13714783174545178  0.8159051864234923  1.0000
  H   H40       1.0  0.5063861759974914  0.8628518844355922  0.18409758826661723  1.0000
  H   H41       1.0  0.6088268789205672  0.7176452152076961  0.7584462898737598  1.0000
  H   H42       1.0  0.39116468460894543  0.282358943333982  0.24155130976964045  1.0000
  H   H43       1.0  0.7855533797703487  0.2542888092393625  0.1324494150458406  1.0000
  H   H44       1.0  0.2144454552266738  0.7457063109089714  0.8675471735545839  1.0000
  H   H45       1.0  0.08042353331435953  0.12438163060481601  0.1139518970586764  1.0000
  H   H46       1.0  0.9195740066333545  0.8756198533001579  0.8860481259445689  1.0000
  H   H47       1.0  0.9294439239635182  0.8216894785397953  0.21035568621780235  1.0000
  H   H48       1.0  0.07055318062652562  0.17831471650112718  0.7896447443293153  1.0000
  H   H49       1.0  0.26275700957038595  0.0394148911651939  0.1896760560447248  1.0000
  H   H50       1.0  0.7372393043992461  0.9605892961921185  0.8103238064455738  1.0000
  H   H51       1.0  0.29082774173225806  0.011645151445136998  0.29778894295684916  1.0000
  H   H52       1.0  0.7091701812961162  0.9883572384132222  0.7022114036832292  1.0000
  H   H53       1.0  0.15137186532309954  0.1305674463609776  0.2347849670410156  1.0000
  H   H54       1.0  0.8486244942058646  0.8694331411929921  0.7652153097625812  1.0000
  H   H55       1.0  0.7600379419821905  0.6989970603478354  0.1547535797804542  1.0000
  H   H56       1.0  0.23996679605576796  0.3010007978332964  0.8452456698303763  1.0000
  H   H57       1.0  0.50334045192394  0.7261964634687174  0.9297718247402144  1.0000
  H   H58       1.0  0.4966627134852929  0.2737978746148002  0.0702330032873633  1.0000
  H   H59       1.0  0.4135000319105232  0.2973063212246884  0.6715840309867857  1.0000
  H   H60       1.0  0.5864974979606643  0.7026951886092617  0.32841771025747585  1.0000
  H   H61       1.0  0.08294902740895091  0.8114090842970396  0.3038543242926081  1.0000
  H   H62       1.0  0.9170509189355942  0.18859059250659274  0.6961456054232186  1.0000
  H   H63       1.0  0.3629023761812746  0.04876583613129529  0.7994065230625934  1.0000
  H   H64       1.0  0.6370963298026241  0.9512383224188666  0.2005916071161238  1.0000
  H   H65       1.0  0.29919119641620995  0.948741301116975  0.8424556269744554  1.0000
  H   H66       1.0  0.7008046889134293  0.05126558009029479  0.15754349756571165  1.0000
  H   H67       1.0  0.26559698905180806  0.0350648548334433  0.7327208455687071  1.0000
  H   H68       1.0  0.7343952883620022  0.9649447327043389  0.2672781325290856  1.0000
  C   C1        1.0  0.12716753628313168  0.822925749839925  0.4693996111842083  1.0000
  C   C2        1.0  0.8728344621427199  0.1770676573206131  0.5306031796556994  1.0000
  C   C3        1.0  0.6179780014408323  0.36081058893242346  0.7261335872524127  1.0000
  C   C4        1.0  0.3820255461018578  0.6391863988266948  0.27386763439979933  1.0000
  C   C5        1.0  0.7669919387376113  0.0642626957638299  0.4107941353787226  1.0000
  C   C6        1.0  0.2330116433406889  0.9357324618431303  0.589205288815613  1.0000
  C   C7        1.0  0.7280976385987259  0.1686911312181962  0.33089818473349897  1.0000
  C   C8        1.0  0.27190793561897675  0.8313031348432033  0.6691020472474561  1.0000
  C   C9        1.0  0.7200931450813999  0.9516308605834424  0.5371017206439673  1.0000
  C   C10       1.0  0.27990481248258453  0.048369699122773085  0.4628968285382341  1.0000
  C   C11       1.0  0.6247629492018162  0.27583899163374775  0.3179729447973259  1.0000
  C   C12       1.0  0.37524299035514036  0.7241579673182129  0.6820265445433049  1.0000
  C   C13       1.0  0.6250002077127945  0.1900082932132037  0.840481196464502  1.0000
  C   C14       1.0  0.37500051822844  0.8099931609252308  0.159517089536962  1.0000
  C   C15       1.0  0.8250467895650785  0.9860841072721911  0.0501871878999367  1.0000
  C   C16       1.0  0.17495036058429045  0.01391648796538189  0.9498136569604795  1.0000
  C   C17       1.0  0.6804030689084399  0.0905087508397173  0.9226439724046783  1.0000
  C   C18       1.0  0.3195976747742009  0.9094909163615341  0.07735537987394282  1.0000
  C   C19       1.0  0.6687611904421261  0.27345015658342925  0.8055898938156786  1.0000
  C   C20       1.0  0.3312395388579434  0.726551288912013  0.19440781943878702  1.0000
  C   C21       1.0  0.9165128400462237  0.9788286023833236  0.10722192789108931  1.0000
  C   C22       1.0  0.08348507962330841  0.021173796118027596  0.8927789914959944  1.0000
  C   C23       1.0  0.7973697604384218  0.8904571690604821  0.06473002699132738  1.0000
  C   C24       1.0  0.20263057665166428  0.10954165268833548  0.9352730108795125  1.0000
  C   C25       1.0  0.683082670322996  0.051134998370855576  0.46164130651687413  1.0000
  C   C26       1.0  0.316916077861393  0.9488655690189558  0.5383578107221465  1.0000
  C   C27       1.0  0.789792203539733  0.16272523947563397  0.2637726484393355  1.0000
  C   C28       1.0  0.2102141958339916  0.8372672041172176  0.7362263541405555  1.0000
  C   C29       1.0  0.8418040482502962  0.8696321474826191  0.5573663630896631  1.0000
  C   C30       1.0  0.15819191717428543  0.1303693037691573  0.4426313783059256  1.0000
  C   C31       1.0  0.9613188999267451  0.06300383700156689  0.0830890730916849  1.0000
  C   C32       1.0  0.0386794272825314  0.9369976632300021  0.9169120907153852  1.0000
  C   C33       1.0  0.4670135438770942  0.02270375822885739  0.6592308824319486  1.0000
  C   C34       1.0  0.5329803627485107  0.9773039799520048  0.3407651433335701  1.0000
  C   C35       1.0  0.7076705630983467  0.9023248704330414  0.010045694649583844  1.0000
  C   C36       1.0  0.2923309534632921  0.09767659138899629  0.9899531594086992  1.0000
  C   C37       1.0  0.4948371194833427  0.9080691795445831  0.7181346096058759  1.0000
  C   C38       1.0  0.5051568437253167  0.0919331891817379  0.2818640422441163  1.0000
  C   C39       1.0  0.665154194237502  0.6236676206300515  0.1120885673254932  1.0000
  C   C40       1.0  0.3348517031189646  0.37633292948225966  0.8879099349548268  1.0000
  C   C41       1.0  0.9196573587209189  0.886627635846487  0.5020889938618182  1.0000
  C   C42       1.0  0.0803446109397967  0.1133693279024257  0.49791051892974986  1.0000
  C   C43       1.0  0.637346876297542  0.9352807800752243  0.5947010900557785  1.0000
  C   C44       1.0  0.3626482740475439  0.06472246771611617  0.40529616249983746  1.0000
  C   C45       1.0  0.0948989730010368  0.6875676537736622  0.5884756697025536  1.0000
  C   C46       1.0  0.9050985856352867  0.31243029947191997  0.4115293495900474  1.0000
  C   C47       1.0  0.5954777933970805  0.8131157107135818  0.9630369101791982  1.0000
  C   C48       1.0  0.4045233468015753  0.18688482786908617  0.0369604747482413  1.0000
  C   C49       1.0  0.6603752098604191  0.8203678415869363  0.652318913993497  1.0000
  C   C50       1.0  0.33961675113231865  0.17963544461393607  0.34768064831090567  1.0000
  C   C51       1.0  0.5840726050182851  0.3669859984571673  0.23952266607170708  1.0000
  C   C52       1.0  0.41594054701148775  0.6330055564767747  0.7604776889006785  1.0000
  C   C53       1.0  0.246074807611386  0.7378624389991726  0.48632202912059336  1.0000
  C   C54       1.0  0.7539260003191899  0.26213009773934454  0.5136827337606888  1.0000
  C   C55       1.0  0.21484161257927784  0.6077130017518968  0.6012773253938092  1.0000
  C   C56       1.0  0.7851563368025793  0.392284096438871  0.3987308020538123  1.0000
  C   C57       1.0  0.04760216022700099  0.7987085219405542  0.5206771309839908  1.0000
  C   C58       1.0  0.952397017544584  0.2012876078770915  0.4793266542173597  1.0000
  C   C59       1.0  0.7613811644473147  0.0892991121734497  0.978090577552251  1.0000
  C   C60       1.0  0.23861520946421427  0.9106996970863293  0.021911338275508303  1.0000
  C   C61       1.0  0.09193188989969077  0.9668197249097898  0.21571380718048522  1.0000
  C   C62       1.0  0.9080688470652589  0.03317995957745269  0.7842866905921538  1.0000
  C   C63       1.0  0.5380256805250099  0.03525228445111139  0.5983152808287925  1.0000
  C   C64       1.0  0.4619710822376677  0.9647491571982836  0.40168188312959774  1.0000
  C   C65       1.0  0.5299745908531079  0.20039207506933107  0.7914346984422378  1.0000
  C   C66       1.0  0.47002570308928454  0.7996120815620525  0.2085634223561073  1.0000
  C   C67       1.0  0.5908167658576888  0.8062904116364177  0.7134646322196332  1.0000
  C   C68       1.0  0.4091759569903246  0.1937164388364323  0.28653222009325663  1.0000
  C   C69       1.0  0.7426073416384897  0.2577996551128905  0.18690386375823206  1.0000
  C   C70       1.0  0.257396669079803  0.7421928086441197  0.8130962983862418  1.0000
  C   C71       1.0  0.04729291744692432  0.05815408219386599  0.1359564493137242  1.0000
  C   C72       1.0  0.9527046157831124  0.9418474189970921  0.8640447191835322  1.0000
  C   C73       1.0  0.9625404916714192  0.8881208601885785  0.1879962530090894  1.0000
  C   C74       1.0  0.03745822533620211  0.11188152871039139  0.812004088940803  1.0000
  C   C75       1.0  0.2224674787444982  0.03975044065311548  0.24598702206311165  1.0000
  C   C76       1.0  0.7775308551824625  0.9602510422924695  0.7540129962499406  1.0000
  C   C77       1.0  0.7044301281355061  0.7091670169134898  0.10216592912889416  1.0000
  C   C78       1.0  0.29557456434312007  0.2908344410709915  0.8978329061686381  1.0000
  C   C79       1.0  0.5598707014551251  0.7242977735955592  0.9779454824421021  1.0000
  C   C80       1.0  0.44013597644521946  0.2757028101293457  0.022055306136060403  1.0000
  C   C81       1.0  0.6700848380217651  0.8071144886142534  0.02577000302775197  1.0000
  C   C82       1.0  0.32991865629670514  0.19288785995640714  0.9742280197929816  1.0000
  C   C83       1.0  0.4848020627107417  0.289374700760014  0.7121817641568453  1.0000
  C   C84       1.0  0.5151986430774401  0.7106268052363874  0.28781995832666496  1.0000
  C   C85       1.0  0.04837360925963453  0.881551421353123  0.24153571420319506  1.0000
  C   C86       1.0  0.9516271243464729  0.11844827177711179  0.7584653563164563  1.0000
  C   C87       1.0  0.3348594126893618  0.986503284209924  0.7886189507800692  1.0000
  C   C88       1.0  0.6651352989392054  0.013502683360357497  0.21137928206643855  1.0000
  I   I1        1.0  0.5931564628990318  0.6084642135739884  0.5243570868541381  1.0000
  I   I2        1.0  0.4068402408689381  0.391540862450718  0.47564195377898955  1.0000
  I   I3        1.0  0.6735359742301699  0.4283013955281021  0.9450530523940441  1.0000
  I   I4        1.0  0.32646594892401753  0.5717009117463618  0.05494211607202709  1.0000
  N   N1        1.0  0.5272790925818498  0.3698446850852903  0.6788332638383636  1.0000
  N   N2        1.0  0.4727243883012593  0.6301576980573457  0.32116704997039847  1.0000
  N   N3        1.0  0.5942447187570467  0.6297870276072786  0.05136575222758922  1.0000
  N   N4        1.0  0.40575959064091904  0.37021352442381056  0.94863275943311  1.0000
  N   N5        1.0  0.652076888067839  0.999739705442984  0.9391983728973441  1.0000
  N   N6        1.0  0.3479278600466457  0.00025812680917170004  0.0607991584724701  1.0000
  N   N7        1.0  0.8827425374657455  0.9826165726483963  0.42965446923247436  1.0000
  N   N8        1.0  0.1172586626748142  0.017378587836738298  0.5703449690324262  1.0000
  N   N9        1.0  0.6392256903920241  0.35820191494821063  0.17351870919177506  1.0000
  N   N10       1.0  0.36078147178417197  0.6417923491944039  0.8264815134088009  1.0000
  N   N11       1.0  0.2905135704205079  0.6307852011532589  0.5511371447225313  1.0000
  N   N12       1.0  0.7094848277543946  0.36920915132958493  0.44886828419317476  1.0000
  O   O1        1.0  0.4340719068144878  0.8861990928652829  0.7818993057602127  1.0000
  O   O2        1.0  0.5659192314338739  0.11380775088335329  0.21809698318603668  1.0000
  O   O3        1.0  0.1767652724899025  0.9536900149157146  0.27135804400347746  1.0000
  O   O4        1.0  0.8232362618131364  0.04630965996913969  0.72864187633197  1.0000
