data_image0
_chemical_formula_structural       ZnH28C32N4O8
_chemical_formula_sum              "Zn1 H28 C32 N4 O8"
_cell_length_a       6.426751052799635
_cell_length_b       8.394608248940783
_cell_length_c       13.306506337722421
_cell_angle_alpha    83.95507581666365
_cell_angle_beta     87.81600786133998
_cell_angle_gamma    84.1939802069567

_space_group_name_H-M_alt    "P 1"
_space_group_IT_number       1

loop_
  _space_group_symop_operation_xyz
  'x, y, z'

loop_
  _atom_site_type_symbol
  _atom_site_label
  _atom_site_symmetry_multiplicity
  _atom_site_fract_x
  _atom_site_fract_y
  _atom_site_fract_z
  _atom_site_occupancy
  Zn  Zn1       1.0  0.9999997335304724  0.5000021562527479  0.5000004266661335  1.0000
  H   H1        1.0  0.4516606509338884  0.807034738330323  0.238815610008885  1.0000
  H   H2        1.0  0.5483442864139362  0.19296892154494566  0.7611837739797878  1.0000
  H   H3        1.0  0.7760336465584813  0.700237893607266  0.12428642954285608  1.0000
  H   H4        1.0  0.22397176185135953  0.2997741978277944  0.8757138792510375  1.0000
  H   H5        1.0  0.5105507307349768  0.3574428048903541  0.19431543569373844  1.0000
  H   H6        1.0  0.4894495367577319  0.642560843841345  0.8056840488501038  1.0000
  H   H7        1.0  0.7163303552231496  0.22619863176502972  0.35935692192596497  1.0000
  H   H8        1.0  0.2836658829385356  0.7738001922873607  0.6406437253816932  1.0000
  H   H9        1.0  0.0200748047096795  0.042558148755652794  0.6168237304670257  1.0000
  H   H10       1.0  0.9799224344122092  0.9574455025255445  0.3831825823665795  1.0000
  H   H11       1.0  0.9027062139814106  0.8589818757986761  0.6156950225594714  1.0000
  H   H12       1.0  0.09729382973084451  0.14102296883304888  0.3842991254924684  1.0000
  H   H13       1.0  0.057315268431423795  0.8683670272868937  0.7832514847475949  1.0000
  H   H14       1.0  0.9426627492894254  0.1316040539041339  0.21674691232583138  1.0000
  H   H15       1.0  0.7820117294272536  0.8763868740001114  0.7984795635814308  1.0000
  H   H16       1.0  0.21796354956451572  0.12360466277753798  0.20151300441716558  1.0000
  H   H17       1.0  0.9117994424670497  0.0561084711133404  0.7990839461357595  1.0000
  H   H18       1.0  0.08819471622452114  0.9438710909787102  0.2009233043126457  1.0000
  H   H19       1.0  0.23349722049617577  0.613239725241101  0.9530328229411184  1.0000
  H   H20       1.0  0.7665060118891913  0.3867651356894868  0.04696726807669902  1.0000
  H   H21       1.0  0.0540346437260055  0.7888183879487016  0.9571781850985347  1.0000
  H   H22       1.0  0.9459668554082653  0.21118767071101976  0.04282035919742811  1.0000
  H   H23       1.0  0.3945684840227983  0.8783876823951001  0.8912793869159259  1.0000
  H   H24       1.0  0.605434720073923  0.12161717520930179  0.10871845035089218  1.0000
  H   H25       1.0  0.5287920777671572  0.7635720215901572  0.9928776164599498  1.0000
  H   H26       1.0  0.4712108107823027  0.23643524333648003  0.007120065327711695  1.0000
  H   H27       1.0  0.3513595987315908  0.9353986248422573  0.015702652932098698  1.0000
  H   H28       1.0  0.6486403532138494  0.0646074312116696  0.9842966761325869  1.0000
  C   C1        1.0  0.6490931135187166  0.6909323137752634  0.3691550999859743  1.0000
  C   C2        1.0  0.3509071634035478  0.3090713360651591  0.6308451358081939  1.0000
  C   C3        1.0  0.5958602523597847  0.7399806302400408  0.2645522315040623  1.0000
  C   C4        1.0  0.40414452721440597  0.2600242332963417  0.7354470747450322  1.0000
  C   C5        1.0  0.7614015575133732  0.6855181354063332  0.206119399215666  1.0000
  C   C6        1.0  0.23860448199101106  0.31448914138425715  0.793881220536548  1.0000
  C   C7        1.0  0.91605386882793  0.6012144711889036  0.2743281430224727  1.0000
  C   C8        1.0  0.08395075297262616  0.3987915960085999  0.7256710854870434  1.0000
  C   C9        1.0  0.10920894610438127  0.5230422345221227  0.2443615181673522  1.0000
  C   C10       1.0  0.8907956851257167  0.47696383378410445  0.7556384615924969  1.0000
  C   C11       1.0  0.25966000232999414  0.4339438713537973  0.3072707997889453  1.0000
  C   C12       1.0  0.740340422936356  0.5660585737167878  0.6927287624944682  1.0000
  C   C13       1.0  0.4582634143662291  0.3583037434462781  0.2725732176694891  1.0000
  C   C14       1.0  0.5417356120553835  0.6416974942486676  0.7274264558718997  1.0000
  C   C15       1.0  0.5623145215211665  0.2914014035765361  0.35632028062238424  1.0000
  C   C16       1.0  0.43768450490044586  0.7085998341184094  0.6436793929189975  1.0000
  C   C17       1.0  0.42887848461534617  0.3266452737674682  0.4433158329367545  1.0000
  C   C18       1.0  0.5711205418062663  0.6733559639274771  0.5566838406046344  1.0000
  C   C19       1.0  0.4787072616113902  0.27831550307485026  0.5450496553716704  1.0000
  C   C20       1.0  0.5212916070365878  0.721686938281209  0.45494994043014003  1.0000
  C   C21       1.0  0.6926037775408955  0.192994180495127  0.5607285370275576  1.0000
  C   C22       1.0  0.3073954066543578  0.8070058535386977  0.4392712142534095  1.0000
  C   C23       1.0  0.8968205275896538  0.971512228994584  0.651134075866338  1.0000
  C   C24       1.0  0.10317555279840458  0.028487798718920505  0.3488664937017418  1.0000
  C   C25       1.0  0.9103806320774975  0.9427507374589367  0.7649004245125469  1.0000
  C   C26       1.0  0.08960625920332177  0.0572360206544502  0.2350989810686244  1.0000
  C   C27       1.0  0.1633278096916086  0.5358127463838542  0.1333398974697886  1.0000
  C   C28       1.0  0.8366768309680379  0.46419332303109684  0.8666608335403865  1.0000
  C   C29       1.0  0.2012809755050142  0.7272583633768193  0.9866541902674371  1.0000
  C   C30       1.0  0.7987222568803529  0.27274649755376856  0.013345900750373103  1.0000
  C   C31       1.0  0.37989268545394583  0.8320489959208643  0.9713608683739993  1.0000
  C   C32       1.0  0.6201088136803249  0.1679570627388642  0.028637675921963507  1.0000
  N   N1        1.0  0.8425230006990744  0.6046643543385956  0.3722931939910765  1.0000
  N   N2        1.0  0.1574802316862929  0.3953405065919924  0.6277068970267337  1.0000
  N   N3        1.0  0.24534643655461968  0.41155475290020144  0.410995462328664  1.0000
  N   N4        1.0  0.7546539887117305  0.5884476921703837  0.5890040999547494  1.0000
  O   O1        1.0  0.8520926616782915  0.23939436285636623  0.5175923054563327  1.0000
  O   O2        1.0  0.14790499418722902  0.7606056707891183  0.4824097330940234  1.0000
  O   O3        1.0  0.6934944143066629  0.058773544848960996  0.6253875315216321  1.0000
  O   O4        1.0  0.30650165665184653  0.9412264817558197  0.37461228679611475  1.0000
  O   O5        1.0  0.20547996747922784  0.4208056305964972  0.0840274633057021  1.0000
  O   O6        1.0  0.7945231448506859  0.5792004384301136  0.9159755549738621  1.0000
  O   O7        1.0  0.1624022140329586  0.6915693385690955  0.09515186614187601  1.0000
  O   O8        1.0  0.8376022594235054  0.30843793339825243  0.9048480358783948  1.0000
