data_image0
_chemical_formula_structural       Zn4H24C84N4Cl2O16F20
_chemical_formula_sum              "Zn4 H24 C84 N4 Cl2 O16 F20"
_cell_length_a       16.50108659744224
_cell_length_b       17.898413819823674
_cell_length_c       28.913720444391735
_cell_angle_alpha    90.29374694003317
_cell_angle_beta     89.88192105852006
_cell_angle_gamma    89.9624826977317

_space_group_name_H-M_alt    "P 1"
_space_group_IT_number       1

loop_
  _space_group_symop_operation_xyz
  'x, y, z'

loop_
  _atom_site_type_symbol
  _atom_site_label
  _atom_site_symmetry_multiplicity
  _atom_site_fract_x
  _atom_site_fract_y
  _atom_site_fract_z
  _atom_site_occupancy
  Zn  Zn1       1.0  0.5831034961241387  0.5012622187851862  0.4987803443951508  1.0000
  Zn  Zn2       1.0  0.4160097986249127  0.4998894757656488  0.49950596958871085  1.0000
  Zn  Zn3       1.0  0.4160500916516697  0.5019089081897619  0.8801848150389093  1.0000
  Zn  Zn4       1.0  0.5831693757247507  0.5033872777040999  0.8804773258138143  1.0000
  H   H1        1.0  0.287475880271451  0.5796037761158742  0.5533214620919014  1.0000
  H   H2        1.0  0.28681405082654277  0.418443889902548  0.4485475517152509  1.0000
  H   H3        1.0  0.7111914912157501  0.5786955790918  0.5534614702952041  1.0000
  H   H4        1.0  0.7129411359870303  0.4210014345736398  0.44678255224751245  1.0000
  H   H5        1.0  0.6280772337118776  0.736629999493168  0.49650304386044314  1.0000
  H   H6        1.0  0.3664581972337189  0.7398546589643545  0.5025459036338378  1.0000
  H   H7        1.0  0.6312858825956269  0.26324754308237897  0.5045191404712881  1.0000
  H   H8        1.0  0.3696152910502307  0.2614888568328483  0.4986657945621717  1.0000
  H   H9        1.0  0.5968587990929849  0.3971106685740865  0.7757749741929775  1.0000
  H   H10       1.0  0.677177404460366  0.304001935607495  0.7324704143085301  1.0000
  H   H11       1.0  0.5969690991434787  0.396365155987418  0.6032161376988016  1.0000
  H   H12       1.0  0.6772331356615453  0.30363358863592543  0.646086386738624  1.0000
  H   H13       1.0  0.3703094489787517  0.5051872030028265  0.02774739233905881  1.0000
  H   H14       1.0  0.6320073026485388  0.49685522298550217  0.027327855943646305  1.0000
  H   H15       1.0  0.3707394642233837  0.5027915506390885  0.3520979276115312  1.0000
  H   H16       1.0  0.6324455143274079  0.4948579408764788  0.3516892411347926  1.0000
  H   H17       1.0  0.7117232531579774  0.5808437120066259  0.8261024410851194  1.0000
  H   H18       1.0  0.7126212836332045  0.4238747256551676  0.9322125678998038  1.0000
  H   H19       1.0  0.2881255634479274  0.5814528155998316  0.8266157638852791  1.0000
  H   H20       1.0  0.28623991321082803  0.42088451975256913  0.9307037653098649  1.0000
  H   H21       1.0  0.3666480788380256  0.741629687752635  0.8760255283346797  1.0000
  H   H22       1.0  0.6282334360745523  0.7389914042094291  0.8820856177939903  1.0000
  H   H23       1.0  0.369555035756747  0.2637161380096771  0.8803248445431964  1.0000
  H   H24       1.0  0.6312496678921348  0.2649608308106152  0.8746091236190738  1.0000
  C   C1        1.0  0.49647989188673575  0.6459687511755164  0.49841674873220415  1.0000
  C   C2        1.0  0.5023894289593613  0.5057812973663828  0.5889305537070372  1.0000
  C   C3        1.0  0.49919599628981365  0.3547735494165424  0.501121173265986  1.0000
  C   C4        1.0  0.5014037442295204  0.4967061340407071  0.4090474554836093  1.0000
  C   C5        1.0  0.4967955911221153  0.6480746041651101  0.8807158449753703  1.0000
  C   C6        1.0  0.5023602432596024  0.5065877338477094  0.7905583695956299  1.0000
  C   C7        1.0  0.49934223345750445  0.35676074795912177  0.8782257098258202  1.0000
  C   C8        1.0  0.5009977817005477  0.4995735243685004  0.9703764808118793  1.0000
  C   C9        1.0  0.2516662139540315  0.5444939630922222  0.5301954298433529  1.0000
  C   C10       1.0  0.16761691231510406  0.5456218729384689  0.5307936994693989  1.0000
  C   C11       1.0  0.12164093784043219  0.4998461636142651  0.5009554570288373  1.0000
  C   C12       1.0  0.16725096096745773  0.45364576068231327  0.4710546440884827  1.0000
  C   C13       1.0  0.25124833519585366  0.45421302841102573  0.4714862168542667  1.0000
  C   C14       1.0  0.03650622641141871  0.500022824374213  0.5010175736570022  1.0000
  C   C15       1.0  0.9627535923392045  0.4998643962112654  0.5009620318904597  1.0000
  C   C16       1.0  0.8776329524760482  0.4997805375452202  0.5007501351726802  1.0000
  C   C17       1.0  0.8313453903147019  0.545192661072356  0.5307750092991556  1.0000
  C   C18       1.0  0.7473189838940186  0.5444318429544879  0.5299368655725872  1.0000
  C   C19       1.0  0.74828652221467  0.4555237866094401  0.4704455802905799  1.0000
  C   C20       1.0  0.8322923915284548  0.4542850287304531  0.4704301516187358  1.0000
  C   C21       1.0  0.49718639368896334  0.7296593393624279  0.4995134150430759  1.0000
  C   C22       1.0  0.5713950130449137  0.7676053401576723  0.4983268187984395  1.0000
  C   C23       1.0  0.5712087221806001  0.8447969287122703  0.49939019031459264  1.0000
  C   C24       1.0  0.49943322344583396  0.8877783092875616  0.5010326513253675  1.0000
  C   C25       1.0  0.42644140041241485  0.8465871988717596  0.502048368061061  1.0000
  C   C26       1.0  0.4240516325721444  0.7693763962154706  0.501601001012496  1.0000
  C   C27       1.0  0.5006609102495573  0.9662556561418968  0.501382137429687  1.0000
  C   C28       1.0  0.5018334972277217  0.03436119192242161  0.5014384525360998  1.0000
  C   C29       1.0  0.5016963454815765  0.11285399226100881  0.5014714933750214  1.0000
  C   C30       1.0  0.5737046734928198  0.15544213648944796  0.5028264373451992  1.0000
  C   C31       1.0  0.5743296460170271  0.23270427087807383  0.5031699724867736  1.0000
  C   C32       1.0  0.500346661647164  0.2710788153975089  0.5015346161952012  1.0000
  C   C33       1.0  0.4270481631552059  0.2316779882198574  0.4999271438867582  1.0000
  C   C34       1.0  0.42898005506057046  0.15449944626353582  0.5001537604539905  1.0000
  C   C35       1.0  0.5030269059493762  0.5067454383432166  0.7385550095817026  1.0000
  C   C36       1.0  0.5503749042796356  0.45232799590676376  0.7144167235148802  1.0000
  C   C37       1.0  0.4581897177101483  0.5590398776310865  0.7144863690492899  1.0000
  C   C38       1.0  0.5968512665653164  0.397583930320515  0.7380901176456547  1.0000
  C   C39       1.0  0.6417922143581406  0.3455269631260408  0.7138085792062725  1.0000
  C   C40       1.0  0.5030809477141746  0.5063421170472112  0.6409488721352121  1.0000
  C   C41       1.0  0.45820817131031083  0.5588354654692154  0.6652724252290838  1.0000
  C   C42       1.0  0.5504169178518837  0.4521177758288886  0.6648202158642891  1.0000
  C   C43       1.0  0.5969278172601167  0.39717973035114806  0.6408972482382753  1.0000
  C   C44       1.0  0.6418283103701796  0.3453272194872384  0.664938754536259  1.0000
  C   C45       1.0  0.5011155726146937  0.5004406887116771  0.022182968113313006  1.0000
  C   C46       1.0  0.4274989310956343  0.503288592999006  0.046366295809654914  1.0000
  C   C47       1.0  0.42887688750872854  0.503735791622489  0.09415774941044223  1.0000
  C   C48       1.0  0.5013248386410041  0.5021862118994916  0.12007738075279664  1.0000
  C   C49       1.0  0.573669762367757  0.49999419994956895  0.09390336176521433  1.0000
  C   C50       1.0  0.5748570882267784  0.4987290595169327  0.04611633323975891  1.0000
  C   C51       1.0  0.5014576606603143  0.5025254662756923  0.16865446672736797  1.0000
  C   C52       1.0  0.5016089944818204  0.5022497765650868  0.21080681145382846  1.0000
  C   C53       1.0  0.5016203525994455  0.5012777189122984  0.2593722223212325  1.0000
  C   C54       1.0  0.4292120280230165  0.5023109372527584  0.2855152304619111  1.0000
  C   C55       1.0  0.4278961284702732  0.5012115916506943  0.33329785908581055  1.0000
  C   C56       1.0  0.5015604613437574  0.4981394998028535  0.3572473633156721  1.0000
  C   C57       1.0  0.5752595698389343  0.4968979182683953  0.33309184788236484  1.0000
  C   C58       1.0  0.5740034833695518  0.4988694065055128  0.28531430066665564  1.0000
  C   C59       1.0  0.7476210042508813  0.5466690792471596  0.8494889893222253  1.0000
  C   C60       1.0  0.8316610477758531  0.5473624316613482  0.8486322196263176  1.0000
  C   C61       1.0  0.8777099963840769  0.5020899127204571  0.878473062960815  1.0000
  C   C62       1.0  0.8321453579157847  0.45693609192489504  0.9086892996239302  1.0000
  C   C63       1.0  0.748141284927655  0.4581921444517436  0.9086605074785157  1.0000
  C   C64       1.0  0.9628221409440697  0.5020505728054091  0.8781979862979912  1.0000
  C   C65       1.0  0.03657001435971809  0.5020586451881358  0.8781472579662266  1.0000
  C   C66       1.0  0.1216902457510045  0.5018608903381008  0.8783227005430734  1.0000
  C   C67       1.0  0.16800370515925778  0.5475045248872521  0.8487558057827018  1.0000
  C   C68       1.0  0.25205565407901526  0.5464556189546743  0.8495149073641316  1.0000
  C   C69       1.0  0.25094482321389927  0.45649647804398813  0.9078481424439391  1.0000
  C   C70       1.0  0.1669573224170762  0.45589051601705693  0.9081365165785373  1.0000
  C   C71       1.0  0.49739309106782054  0.731715018819891  0.879102712330614  1.0000
  C   C72       1.0  0.4242054458926105  0.7712423810375952  0.8768178308842425  1.0000
  C   C73       1.0  0.4264422684822121  0.8484323911508798  0.8760911436155752  1.0000
  C   C74       1.0  0.4993392465105728  0.8897637451488337  0.8770220938892168  1.0000
  C   C75       1.0  0.5712140792699005  0.8469787396164463  0.878742161018849  1.0000
  C   C76       1.0  0.5715226557028502  0.76982207217209  0.8800990449452402  1.0000
  C   C77       1.0  0.5003783215880374  0.9682412623484639  0.8767008532531195  1.0000
  C   C78       1.0  0.5014079119043375  0.0363423871947646  0.876860398416085  1.0000
  C   C79       1.0  0.5013513997991338  0.1148341765479586  0.8770769858435232  1.0000
  C   C80       1.0  0.42870709539321433  0.15659685063508286  0.8784706792780955  1.0000
  C   C81       1.0  0.4269268530415715  0.23378699344335271  0.8789812746312011  1.0000
  C   C82       1.0  0.500322386124921  0.27306147719890106  0.8775571661280852  1.0000
  C   C83       1.0  0.5742393469882858  0.23452017215644363  0.8758341905690802  1.0000
  C   C84       1.0  0.5734605251613445  0.15727225792551994  0.875929089018776  1.0000
  N   N1        1.0  0.29149233818064607  0.49928046674909893  0.5007252844606784  1.0000
  N   N2        1.0  0.7077432391400363  0.5002232525029625  0.49990126559892195  1.0000
  N   N3        1.0  0.7078260055707161  0.5026526271766086  0.879344139508156  1.0000
  N   N4        1.0  0.29153140740721284  0.5014280568875903  0.878868343436338  1.0000
  Cl  Cl1       1.0  0.40415754351724326  0.6264396115898094  0.6360981856754367  1.0000
  Cl  Cl2       1.0  0.40414979970530857  0.6269349090081777  0.743980628047915  1.0000
  O   O1        1.0  0.5635452693490847  0.6135803264082966  0.4895550017213426  1.0000
  O   O2        1.0  0.4290880997293982  0.6137026764392743  0.5063561867069739  1.0000
  O   O3        1.0  0.4361088635592622  0.4885093087035627  0.5694992468311568  1.0000
  O   O4        1.0  0.5689049915435476  0.5211805728173005  0.5688609463663497  1.0000
  O   O5        1.0  0.4316890273198908  0.3860494592608745  0.4923747010946969  1.0000
  O   O6        1.0  0.5658769533013768  0.3882988746922607  0.5094761822639813  1.0000
  O   O7        1.0  0.5689273012059816  0.48410166911866537  0.42895725347908353  1.0000
  O   O8        1.0  0.4338473072125808  0.5084168770805633  0.42919528256716444  1.0000
  O   O9        1.0  0.42939777247968886  0.6155235790786123  0.8731638784381633  1.0000
  O   O10       1.0  0.5638656282250096  0.6159908672471346  0.8895967429814108  1.0000
  O   O11       1.0  0.5689009264915583  0.5221548176563432  0.8104961872992505  1.0000
  O   O12       1.0  0.43610703748282015  0.4894477649099046  0.8101134106707948  1.0000
  O   O13       1.0  0.5660598468830714  0.3901098901650216  0.8698057626985192  1.0000
  O   O14       1.0  0.43186790371143496  0.3881999898056847  0.8872200471213393  1.0000
  O   O15       1.0  0.4335055748230445  0.5115684285197093  0.9504620773462522  1.0000
  O   O16       1.0  0.5685281627884252  0.4870263843050751  0.950228291935716  1.0000
  F   F1        1.0  0.12798359808973464  0.4080294986214242  0.44151945532971854  1.0000
  F   F2        1.0  0.12860916762974037  0.591379674357761  0.5604574221527231  1.0000
  F   F3        1.0  0.8718447183423879  0.4088557759117961  0.4408026908235031  1.0000
  F   F4        1.0  0.8700060803920592  0.5902041687898886  0.5608950480704922  1.0000
  F   F5        1.0  0.35586151709168934  0.885446838473918  0.503507703798576  1.0000
  F   F6        1.0  0.6428673171757566  0.881865407093443  0.49860848061889856  1.0000
  F   F7        1.0  0.3582080340095289  0.11608275956707811  0.49894205779581585  1.0000
  F   F8        1.0  0.6451803690281894  0.1179768334095215  0.5038858650543433  1.0000
  F   F9        1.0  0.6447962626092121  0.49900578713172905  0.11730880297898243  1.0000
  F   F10       1.0  0.3578581150681757  0.5058084758524685  0.11782680290740193  1.0000
  F   F11       1.0  0.6450944412215307  0.4983801491971391  0.26169306430355027  1.0000
  F   F12       1.0  0.3581543137267362  0.5045368897344461  0.2620839595471552  1.0000
  F   F13       1.0  0.871448486131399  0.41183880230531866  0.9382381534674453  1.0000
  F   F14       1.0  0.8705797621568223  0.5921532066164304  0.8186881014560046  1.0000
  F   F15       1.0  0.12734680918601526  0.41054178219604154  0.9374621478444143  1.0000
  F   F16       1.0  0.12930385278141898  0.593048239530603  0.8192210081754896  1.0000
  F   F17       1.0  0.6427692008149251  0.8842363254080966  0.879382263023736  1.0000
  F   F18       1.0  0.3558133881693876  0.8871366293646332  0.8745120772103835  1.0000
  F   F19       1.0  0.6448673820841436  0.11968110525864262  0.8748138304063249  1.0000
  F   F20       1.0  0.3578414942084791  0.11832615385271344  0.8794813067224256  1.0000
