data_image0
_chemical_formula_structural       Zn2H38C56N6O8
_chemical_formula_sum              "Zn2 H38 C56 N6 O8"
_cell_length_a       15.712805241206194
_cell_length_b       18.23876646493348
_cell_length_c       19.391060044112052
_cell_angle_alpha    90.59667615718347
_cell_angle_beta     90.25074726227051
_cell_angle_gamma    67.00665844823531

_space_group_name_H-M_alt    "P 1"
_space_group_IT_number       1

loop_
  _space_group_symop_operation_xyz
  'x, y, z'

loop_
  _atom_site_type_symbol
  _atom_site_label
  _atom_site_symmetry_multiplicity
  _atom_site_fract_x
  _atom_site_fract_y
  _atom_site_fract_z
  _atom_site_occupancy
  Zn  Zn1       1.0  0.5107373706886164  0.42028485968024387  0.5005486876211479  1.0000
  Zn  Zn2       1.0  0.5038753904329311  0.5748337144171314  0.4975759167355421  1.0000
  H   H1        1.0  0.12078808751398636  0.28400130427326076  0.44529516006663533  1.0000
  H   H2        1.0  0.8938627745813789  0.713252173797258  0.4437751486746181  1.0000
  H   H3        1.0  0.4207577207429337  0.40946843212796563  0.9301715795600958  1.0000
  H   H4        1.0  0.4105431336066231  0.641479597955822  0.06750404537582  1.0000
  H   H5        1.0  0.3969977798508141  0.34285947098721425  0.4334741879228759  1.0000
  H   H6        1.0  0.6236422645013632  0.6525953922705624  0.5582062277349281  1.0000
  H   H7        1.0  0.38989268902140145  0.2073803189814213  0.429676083737725  1.0000
  H   H8        1.0  0.6240029188623311  0.7901825534572422  0.5638249862253633  1.0000
  H   H9        1.0  0.6118489907152592  0.13172347720750816  0.5785662045601114  1.0000
  H   H10       1.0  0.3885429499191132  0.8655604782981994  0.42676602533904173  1.0000
  H   H11       1.0  0.6082323687667142  0.27047130155182225  0.576781530041153  1.0000
  H   H12       1.0  0.3963452616957851  0.7256052009160568  0.42915646208311403  1.0000
  H   H13       1.0  0.6439252521739647  0.8826387191495825  0.4684748264552567  1.0000
  H   H14       1.0  0.3613863020947719  0.11564252175980266  0.5310551330709716  1.0000
  H   H15       1.0  0.23741879534546242  0.4656250338110082  0.4807650445115713  1.0000
  H   H16       1.0  0.7763814083362133  0.5330353615889292  0.4764393236337199  1.0000
  H   H17       1.0  0.19838550948313138  0.7104379615611405  0.47242545488879983  1.0000
  H   H18       1.0  0.8153850382101239  0.28792330320886333  0.47121324417587834  1.0000
  H   H19       1.0  0.9856133230424147  0.2476955785300205  0.45440317769772787  1.0000
  H   H20       1.0  0.02836275295165072  0.7499780260137499  0.4539350846844387  1.0000
  H   H21       1.0  0.18755911140379306  0.38512713413351907  0.44894490884670557  1.0000
  H   H22       1.0  0.8269081191549785  0.6123396237733302  0.44667294394115237  1.0000
  H   H23       1.0  0.5599494471110444  0.5614083487110618  0.2694390508744178  1.0000
  H   H24       1.0  0.578878257879012  0.3925748020826062  0.7312331446043816  1.0000
  H   H25       1.0  0.5297350345472084  0.5689050688048379  0.14268533217758525  1.0000
  H   H26       1.0  0.54650546433367  0.4065713611946932  0.8577336010254585  1.0000
  H   H27       1.0  0.3199075242174985  0.4755556881295036  0.17323710017998914  1.0000
  H   H28       1.0  0.3242515353658604  0.6335745529342488  0.8232423403661218  1.0000
  H   H29       1.0  0.36085700900250106  0.4574701286907512  0.29772484436146135  1.0000
  H   H30       1.0  0.3662019037244021  0.6236356647619771  0.698727685442954  1.0000
  H   H31       1.0  0.3998145423252453  0.34982157463058156  0.034074100360364  1.0000
  H   H32       1.0  0.4068657714067214  0.38677981481716006  0.113242327426903  1.0000
  H   H33       1.0  0.4106604912400797  0.6683658605750862  0.8840159164477516  1.0000
  H   H34       1.0  0.397075490017194  0.712397747118828  0.9626350656652037  1.0000
  H   H35       1.0  0.6701693319795653  0.07158892392284598  0.4711748071504972  1.0000
  H   H36       1.0  0.7250687127178138  0.971261627798597  0.4648428984773006  1.0000
  H   H37       1.0  0.2804601111890719  0.027292712000253492  0.5362099638791592  1.0000
  H   H38       1.0  0.33491189502979063  0.9268020716300283  0.5294888258125  1.0000
  C   C1        1.0  0.49745251826129067  0.5022128326551395  0.6321655465332798  1.0000
  C   C2        1.0  0.48855418494724745  0.4968854549443476  0.3657025729161845  1.0000
  C   C3        1.0  0.11281533612112336  0.40375127601897975  0.4519019567430008  1.0000
  C   C4        1.0  0.9015495806617508  0.5937940435833152  0.4506936742807923  1.0000
  C   C5        1.0  0.07581060375135715  0.3470666081648018  0.4498606740982042  1.0000
  C   C6        1.0  0.9386705170336572  0.6503487114839642  0.4489922925851816  1.0000
  C   C7        1.0  0.5090672219094046  0.5410606392773188  0.2472172276634197  1.0000
  C   C8        1.0  0.5244859071951142  0.44590828346627365  0.7522911019045468  1.0000
  C   C9        1.0  0.49083389492339086  0.5463299597861065  0.17685892686201043  1.0000
  C   C10       1.0  0.505283740235626  0.4533952778363071  0.8225910058235045  1.0000
  C   C11       1.0  0.4248134084450328  0.5204905785926995  0.14787411757341573  1.0000
  C   C12       1.0  0.4345530539565771  0.5216815216346118  0.8502211444623812  1.0000
  C   C13       1.0  0.37618857390856425  0.4907535013623414  0.19304397879140822  1.0000
  C   C14       1.0  0.383189850261857  0.5820930932376525  0.8041433932993485  1.0000
  C   C15       1.0  0.39718777061256805  0.48219037239815077  0.2631758286405699  1.0000
  C   C16       1.0  0.40481305760389574  0.5761926507595517  0.7341730288004487  1.0000
  C   C17       1.0  0.46448545052333395  0.506625282724947  0.2907867206458903  1.0000
  C   C18       1.0  0.4757800070287105  0.5080842516079683  0.7075787219377504  1.0000
  C   C19       1.0  0.4144896419313967  0.4567074754527523  0.032685653484712404  1.0000
  C   C20       1.0  0.41457656672240256  0.5949351481863087  0.964967160423747  1.0000
  C   C21       1.0  0.41716366683733247  0.46125471541013474  0.9607277644454087  1.0000
  C   C22       1.0  0.41134239367138986  0.5905958140748168  0.03687232432061191  1.0000
  C   C23       1.0  0.6860779612006809  0.4396295318295173  0.4897230619803993  1.0000
  C   C24       1.0  0.32718898303823357  0.5600468893581405  0.4923724804545273  1.0000
  C   C25       1.0  0.4188223901759686  0.5274845568108898  0.9256939539744099  1.0000
  C   C26       1.0  0.41287317148152886  0.5233081378778335  0.0720306727438711  1.0000
  C   C27       1.0  0.44251802959401954  0.2939499383888629  0.464988076922161  1.0000
  C   C28       1.0  0.5726212291287139  0.7022275262523435  0.5304705605076167  1.0000
  C   C29       1.0  0.43928068991075253  0.21883808606441585  0.46316333123866116  1.0000
  C   C30       1.0  0.572640707065254  0.7784167063859612  0.5328350641888733  1.0000
  C   C31       1.0  0.5020195500344115  0.15734338015467836  0.502837552842962  1.0000
  C   C32       1.0  0.504665090155484  0.8404293112939596  0.4968799188101444  1.0000
  C   C33       1.0  0.5638183849229395  0.17637989774529922  0.5448050671828994  1.0000
  C   C34       1.0  0.4405093822109762  0.8208263315024807  0.4581497999180898  1.0000
  C   C35       1.0  0.5621433233098614  0.2530627664133148  0.5444605837320823  1.0000
  C   C36       1.0  0.4448861287024996  0.7433081676174138  0.4582560208829562  1.0000
  C   C37       1.0  0.585723453229235  0.009825193177988498  0.4833645792299991  1.0000
  C   C38       1.0  0.41968170264715343  0.988303771126553  0.5164072727560268  1.0000
  C   C39       1.0  0.5823692010118576  0.9342343937585508  0.48362163935627933  1.0000
  C   C40       1.0  0.42296716493215314  0.06401417146668108  0.5160071360082128  1.0000
  C   C41       1.0  0.5018018939907236  0.9222449853272819  0.4989312524690278  1.0000
  C   C42       1.0  0.5035851472779526  0.07585188957352067  0.5007690905715025  1.0000
  C   C43       1.0  0.7874876102095244  0.4136024198299707  0.4756606495218565  1.0000
  C   C44       1.0  0.22606275859955363  0.5850121705642974  0.4779794720938428  1.0000
  C   C45       1.0  0.9395151236177385  0.3105287395300777  0.4586590506929298  1.0000
  C   C46       1.0  0.07446152350382107  0.6873597711207465  0.45896114205448424  1.0000
  C   C47       1.0  0.8457863950436534  0.33222816034452757  0.46823864171636137  1.0000
  C   C48       1.0  0.1679598121875685  0.6660832917289952  0.4693849076453065  1.0000
  C   C49       1.0  0.8241148432275763  0.4712810762358472  0.4701877738305385  1.0000
  C   C50       1.0  0.18982201111649039  0.5269856321642546  0.4727472585011726  1.0000
  C   C51       1.0  0.9192331115914097  0.45123565640662366  0.45934225976927945  1.0000
  C   C52       1.0  0.0950287361756993  0.5465480487161184  0.46049242916561195  1.0000
  C   C53       1.0  0.9785856917796564  0.3685949776914794  0.45539797382722474  1.0000
  C   C54       1.0  0.03572650515876324  0.6290294355549121  0.4556051371251826  1.0000
  C   C55       1.0  0.9584686478386714  0.5109049803594556  0.45539023617581625  1.0000
  C   C56       1.0  0.0558377007783478  0.48678954188305545  0.45601416567694747  1.0000
  N   N1        1.0  0.5034395604860648  0.3105745773671558  0.5044200841118852  1.0000
  N   N2        1.0  0.5091716268832228  0.6851730664357729  0.4944585905265202  1.0000
  N   N3        1.0  0.42369860969199635  0.3845772487555762  0.06271670021386201  1.0000
  N   N4        1.0  0.4239518059654657  0.6608798228917577  0.9351573383653502  1.0000
  N   N5        1.0  0.6646732481784384  0.019180677588444398  0.4602444946049999  1.0000
  N   N6        1.0  0.34079096212392573  0.9791592439763332  0.539766621782647  1.0000
  O   O1        1.0  0.5303825144986548  0.43284806124247394  0.6046579574087191  1.0000
  O   O2        1.0  0.5189512245270719  0.5458076788195851  0.3930151257298391  1.0000
  O   O3        1.0  0.48012642914845577  0.5675725483819675  0.6007979457407231  1.0000
  O   O4        1.0  0.4766789001968447  0.44039078920867775  0.3969975520422581  1.0000
  O   O5        1.0  0.6500006638879654  0.388511801556426  0.48133206533414363  1.0000
  O   O6        1.0  0.3627008858659196  0.6107550390066121  0.4804846820520299  1.0000
  O   O7        1.0  0.6434499250947141  0.511907229136575  0.5088511416638468  1.0000
  O   O8        1.0  0.37022528132386867  0.4896532558221976  0.514530754184662  1.0000
