data_image0
_chemical_formula_structural       K2H50C26N4O16
_chemical_formula_sum              "K2 H50 C26 N4 O16"
_cell_length_a       7.903922603776147
_cell_length_b       8.124479412578802
_cell_length_c       13.99693240101228
_cell_angle_alpha    90.00004243477211
_cell_angle_beta     89.99984971238074
_cell_angle_gamma    98.46902155202466

_space_group_name_H-M_alt    "P 1"
_space_group_IT_number       1

loop_
  _space_group_symop_operation_xyz
  'x, y, z'

loop_
  _atom_site_type_symbol
  _atom_site_label
  _atom_site_symmetry_multiplicity
  _atom_site_fract_x
  _atom_site_fract_y
  _atom_site_fract_z
  _atom_site_occupancy
  K   K1        1.0  0.23830456635625555  0.8208315475469096  0.2478650234346419  1.0000
  K   K2        1.0  0.7382843568228734  0.8208220643572022  0.7521351461278699  1.0000
  H   H1        1.0  0.17004872116763886  0.8232666837532323  0.5303198214762261  1.0000
  H   H2        1.0  0.6700491034505519  0.8232667708590715  0.46967830684384654  1.0000
  H   H3        1.0  0.37871001939262083  0.7885080342816767  0.5679536200218608  1.0000
  H   H4        1.0  0.8787116325790693  0.7885068385041409  0.4320448989877903  1.0000
  H   H5        1.0  0.3773727500668827  0.5719167677683361  0.4393561116368687  1.0000
  H   H6        1.0  0.8773727184028957  0.5719169126971765  0.560643745981622  1.0000
  H   H7        1.0  0.22109438944962534  0.5225681113985915  0.5317178831458663  1.0000
  H   H8        1.0  0.7210931087091905  0.5225657235818632  0.46828075595573904  1.0000
  H   H9        1.0  0.03769638384490289  0.3368431479143582  0.42260978649127884  1.0000
  H   H10       1.0  0.5376950130810343  0.3368433181177011  0.5773904739267621  1.0000
  H   H11       1.0  0.20979029612369265  0.37894612316146964  0.33951431782665514  1.0000
  H   H12       1.0  0.7097878940648172  0.37895009381045247  0.6604871346072658  1.0000
  H   H13       1.0  0.9281240375419557  0.27940491089421476  0.2648452610530541  1.0000
  H   H14       1.0  0.4281235361130485  0.2794099313214674  0.7351565401551667  1.0000
  H   H15       1.0  0.846434480678809  0.4613201657432386  0.3071696341216993  1.0000
  H   H16       1.0  0.3464291637077394  0.4613177371631921  0.6928287933144832  1.0000
  H   H17       1.0  0.8139829101209842  0.5334315980834392  0.13525343278313073  1.0000
  H   H18       1.0  0.3139784801957433  0.5334317528199224  0.8647493600705191  1.0000
  H   H19       1.0  0.9094650529142498  0.3564106374859081  0.09991200918305052  1.0000
  H   H20       1.0  0.4094646573440741  0.3564132594614053  0.9000855657983353  1.0000
  H   H21       1.0  0.15808276690296452  0.5431164598480792  0.030436667747721906  1.0000
  H   H22       1.0  0.6580817307976616  0.5431143614196188  0.9695620734019885  1.0000
  H   H23       1.0  0.9603583464501995  0.5712075596069328  0.9754124232650556  1.0000
  H   H24       1.0  0.46035688338783126  0.5712096835759582  0.0245887400680331  1.0000
  H   H25       1.0  0.05639496284805289  0.8588684786161809  0.9320172165002631  1.0000
  H   H26       1.0  0.5563953004768152  0.8588645920118625  0.0679825241450231  1.0000
  H   H27       1.0  0.26220445152050337  0.8213839488026411  0.9718029166598825  1.0000
  H   H28       1.0  0.7622013847654898  0.8213813251279805  0.0281979321825361  1.0000
  H   H29       1.0  0.21612644800877942  0.12206554901128192  0.9676754689054194  1.0000
  H   H30       1.0  0.7161286172924903  0.12206411377389516  0.0323230069551599  1.0000
  H   H31       1.0  0.05828159430048171  0.07800074936662331  0.05987666472879741  1.0000
  H   H32       1.0  0.5582828114544398  0.07799611430282032  0.9401241693958442  1.0000
  H   H33       1.0  0.2335760640825839  0.2720876030184203  0.15803022601009084  1.0000
  H   H34       1.0  0.733571863344821  0.27207798675237177  0.8419704312461249  1.0000
  H   H35       1.0  0.4090230450310983  0.3044537656603196  0.0760785748457167  1.0000
  H   H36       1.0  0.9090184713615486  0.30444420148799634  0.9239218364285905  1.0000
  H   H37       1.0  0.582172646871534  0.16052404771826906  0.19719423992160054  1.0000
  H   H38       1.0  0.08216768584070172  0.16051918575333707  0.8028051651005583  1.0000
  H   H39       1.0  0.5268009511913476  0.3598298965794059  0.23119677378096531  1.0000
  H   H40       1.0  0.026799483657008218  0.3598299610690604  0.7688049414447421  1.0000
  H   H41       1.0  0.5329069749870001  0.2881919535036347  0.40355452004001796  1.0000
  H   H42       1.0  0.0329056820594218  0.2881881754355363  0.5964442978608558  1.0000
  H   H43       1.0  0.6122702022707999  0.10504823414928671  0.3619281585187225  1.0000
  H   H44       1.0  0.11227038929977341  0.10504695657580503  0.6380711783076904  1.0000
  H   H45       1.0  0.4728867206335323  0.07420417973803242  0.5257198584901914  1.0000
  H   H46       1.0  0.9728892012737731  0.07420175184631721  0.4742796457060266  1.0000
  H   H47       1.0  0.274954205451195  0.10523935963146872  0.4717574733854732  1.0000
  H   H48       1.0  0.7749539147424399  0.10523699530050833  0.5282423370931468  1.0000
  H   H49       1.0  0.8291641446949783  0.7202100692787072  0.2688956013589419  1.0000
  H   H50       1.0  0.32914516822663836  0.7202103146141854  0.7311029619328338  1.0000
  C   C1        1.0  0.2907391429777846  0.7828236389177335  0.5064151999799478  1.0000
  C   C2        1.0  0.7907396197241071  0.7828249855507537  0.4935834468603844  1.0000
  C   C3        1.0  0.2586872410575581  0.606120613001828  0.4704251572907482  1.0000
  C   C4        1.0  0.7586873507820188  0.6061207381805361  0.5295727472969746  1.0000
  C   C5        1.0  0.09130090162516073  0.42171741505480065  0.36482924720811394  1.0000
  C   C6        1.0  0.5912982082764274  0.42171888094821264  0.6351709699960253  1.0000
  C   C7        1.0  0.9631860036450419  0.4114105346578115  0.28461530939428314  1.0000
  C   C8        1.0  0.46318265991059343  0.4114130831125494  0.7153843528034969  1.0000
  C   C9        1.0  0.9373976565810622  0.4887369653343967  0.1217053633472318  1.0000
  C   C10       1.0  0.4373923086031795  0.48873963197554104  0.8782972277408022  1.0000
  C   C11       1.0  0.03432959336329589  0.5884271354286242  0.0427151736715743  1.0000
  C   C12       1.0  0.5343275534810844  0.5884262881569101  0.9572859133362215  1.0000
  C   C13       1.0  0.1417846155966558  0.8637624556889278  0.9945329952946835  1.0000
  C   C14       1.0  0.6417849910460731  0.8637647656336825  0.005468049892222402  1.0000
  C   C15       1.0  0.17626218069415242  0.040798063354031903  0.0296113664991822  1.0000
  C   C16       1.0  0.6762622004771187  0.04079470648954951  0.9703885626546056  1.0000
  C   C17       1.0  0.35000416599309137  0.22343588429732367  0.13431064646599822  1.0000
  C   C18       1.0  0.8500013234581587  0.22342751281082232  0.8656883887971035  1.0000
  C   C19       1.0  0.4754861543084772  0.22859724244612076  0.21571767784240595  1.0000
  C   C20       1.0  0.9754865710793439  0.22859875923723652  0.7842847460402638  1.0000
  C   C21       1.0  0.49506823647583087  0.15783170639281252  0.3795406870879604  1.0000
  C   C22       1.0  0.995068992259256  0.15783063038330883  0.6204595343310899  1.0000
  C   C23       1.0  0.3979016539518838  0.059031676560827924  0.4587295179376412  1.0000
  C   C24       1.0  0.8979042362364497  0.0590317799156992  0.5412693763776986  1.0000
  C   C25       1.0  0.7519206505845946  0.8188649881120542  0.2527542856020375  1.0000
  C   C26       1.0  0.2518924703299632  0.8188790630212426  0.7472465774158792  1.0000
  N   N1        1.0  0.5826807037751252  0.7864792557039239  0.2373781777012667  1.0000
  N   N2        1.0  0.08266537256221801  0.7864794771855942  0.7626193498765588  1.0000
  N   N3        1.0  0.8199337487615993  0.9809304805799006  0.2502322885941766  1.0000
  N   N4        1.0  0.3199088227981051  0.9809258189712156  0.749771400517368  1.0000
  O   O1        1.0  0.36770131565135245  0.888097381525377  0.4316266353380129  1.0000
  O   O2        1.0  0.8677001891696108  0.8880987903281793  0.5683719423939451  1.0000
  O   O3        1.0  0.12630352283484572  0.5887456361898985  0.4000898401062187  1.0000
  O   O4        1.0  0.6263033124850139  0.5887458060788192  0.5999096819740617  1.0000
  O   O5        1.0  0.041089486567607  0.5053071163727553  0.2052307604447705  1.0000
  O   O6        1.0  0.5410797090671622  0.5053162374830079  0.7947681378303316  1.0000
  O   O7        1.0  0.06251793555297522  0.7593316964334778  0.0695160616541557  1.0000
  O   O8        1.0  0.5625147547377339  0.7593308467549492  0.9304857708576862  1.0000
  O   O9        1.0  0.30781177687210715  0.05636628108151602  0.1002081697831159  1.0000
  O   O10       1.0  0.8078085759049005  0.05635668694085181  0.899790142344834  1.0000
  O   O11       1.0  0.38713956217875994  0.15291083102393807  0.2978771579970712  1.0000
  O   O12       1.0  0.887136360907398  0.15291109514504347  0.7021239355716917  1.0000
  O   O13       1.0  0.5157149773462635  0.6329563911603913  0.24255718651337335  1.0000
  O   O14       1.0  0.015697840489785637  0.6329454103645847  0.7574396603781395  1.0000
  O   O15       1.0  0.9795041465520812  0.011956570065812907  0.2701606164612471  1.0000
  O   O16       1.0  0.47949947413124516  0.011959142340430207  0.7298459958516901  1.0000
