data_image0
_chemical_formula_structural       ZnSiH12C16N4F6
_chemical_formula_sum              "Zn1 Si1 H12 C16 N4 F6"
_cell_length_a       7.829053366747434
_cell_length_b       9.266171160581683
_cell_length_c       9.266151728207712
_cell_angle_alpha    88.6931081584558
_cell_angle_beta     81.03755523595346
_cell_angle_gamma    81.03801507425877

_space_group_name_H-M_alt    "P 1"
_space_group_IT_number       1

loop_
  _space_group_symop_operation_xyz
  'x, y, z'

loop_
  _atom_site_type_symbol
  _atom_site_label
  _atom_site_symmetry_multiplicity
  _atom_site_fract_x
  _atom_site_fract_y
  _atom_site_fract_z
  _atom_site_occupancy
  Zn  Zn1       1.0  0.5000006368012251  0.49999984933498365  0.49999750806515675  1.0000
  Si  Si1       1.0  1.8613217278641509e-06  0.5000012627919334  0.49999751713879453  1.0000
  H   H1        1.0  0.2745417990718266  0.5011966315029783  0.2631313435826216  1.0000
  H   H2        1.0  0.8094110822236689  0.49915428350129093  0.24512686912230217  1.0000
  H   H3        1.0  0.8590415318646692  0.4986518400463711  0.969923949240773  1.0000
  H   H4        1.0  0.7254609909690473  0.49880197146658384  0.736859186360036  1.0000
  H   H5        1.0  0.1905944587889437  0.5008432338818096  0.754870887270073  1.0000
  H   H6        1.0  0.14096571181568862  0.5013434917596982  0.030072559748184305  1.0000
  H   H7        1.0  0.2745461580111836  0.2631361959512617  0.5011779109503112  1.0000
  H   H8        1.0  0.8094111761371324  0.2451253266381244  0.49913352915699266  1.0000
  H   H9        1.0  0.8590346595840541  0.9699243909237153  0.49866034771476847  1.0000
  H   H10       1.0  0.7254496935706598  0.7368646017235394  0.4988274884083881  1.0000
  H   H11       1.0  0.19058925133661114  0.7548721795083253  0.5008530123028622  1.0000
  H   H12       1.0  0.1409616388709409  0.0300742146018109  0.5013364110718612  1.0000
  C   C1        1.0  0.40184229006792554  0.5007109536145151  0.19597163534588455  1.0000
  C   C2        1.0  0.7023691590437765  0.4994344222858089  0.1827516385003421  1.0000
  C   C3        1.0  0.7289028462126411  0.4991803678414187  0.032383736809713105  1.0000
  C   C4        1.0  0.5842001562140737  0.49956721486289285  0.9581151088747861  1.0000
  C   C5        1.0  0.5981597975509843  0.49928437403832493  0.8040222976479825  1.0000
  C   C6        1.0  0.2976338065957691  0.50056309257797  0.8172442899609043  1.0000
  C   C7        1.0  0.27110180083335683  0.5008149649870359  0.9676152637168303  1.0000
  C   C8        1.0  0.4158047195838251  0.5004270210054926  0.041878491498543696  1.0000
  C   C9        1.0  0.4018450456921273  0.19597294552873734  0.5006989293525167  1.0000
  C   C10       1.0  0.7023708089255152  0.1827530534260475  0.49942207303356434  1.0000
  C   C11       1.0  0.7288976933055198  0.0323827588969579  0.4991816761368782  1.0000
  C   C12       1.0  0.5841929217204579  0.9581180154581831  0.4995765284683102  1.0000
  C   C13       1.0  0.5981512261862604  0.8040256644239321  0.4993032287700105  1.0000
  C   C14       1.0  0.2976281021098046  0.8172455484208072  0.5005689546139395  1.0000
  C   C15       1.0  0.2710973121476242  0.9676158462543399  0.500815248551369  1.0000
  C   C16       1.0  0.41580077478486294  0.041880591975157706  0.5004238017230876  1.0000
  N   N1        1.0  0.5396168905158022  0.5000930870943068  0.26338736136094815  1.0000
  N   N2        1.0  0.46038757030088107  0.49990333561078165  0.7366084003813713  1.0000
  N   N3        1.0  0.5396169764524287  0.2633896513819138  0.5000769301853866  1.0000
  N   N4        1.0  0.4603817111463115  0.7366100465395748  0.4999184177481483  1.0000
  F   F1        1.0  0.2231975977866582  0.5058238446522552  0.5058224823308566  1.0000
  F   F2        1.0  0.7768038673604282  0.4941747632556357  0.4941746927164987  1.0000
  F   F3        1.0  5.306966777080877e-06  0.6312690512397054  0.3687258872309585  1.0000
  F   F4        1.0  3.7898593702871557e-06  0.3687323833081777  0.6312684826228648  1.0000
  F   F5        1.0  0.0567814498328971  0.36865149972032907  0.3686489277939558  1.0000
  F   F6        1.0  0.9432192225590231  0.6313514756629743  0.6313450109211092  1.0000
