data_image0
_chemical_formula_structural       K2H30C14S4N2O2
_chemical_formula_sum              "K2 H30 C14 S4 N2 O2"
_cell_length_a       5.2328936363636895
_cell_length_b       10.043309573794916
_cell_length_c       11.742691152542514
_cell_angle_alpha    64.51362113893236
_cell_angle_beta     90.43117847961625
_cell_angle_gamma    78.71919911825343

_space_group_name_H-M_alt    "P 1"
_space_group_IT_number       1

loop_
  _space_group_symop_operation_xyz
  'x, y, z'

loop_
  _atom_site_type_symbol
  _atom_site_label
  _atom_site_symmetry_multiplicity
  _atom_site_fract_x
  _atom_site_fract_y
  _atom_site_fract_z
  _atom_site_occupancy
  K   K1        1.0  0.2501022000814572  0.527937423847533  0.10798451644475897  1.0000
  K   K2        1.0  0.7498748782848776  0.472071226202907  0.8920204806890555  1.0000
  H   H1        1.0  0.7677916092100077  0.542956509435065  0.49023145419412384  1.0000
  H   H2        1.0  0.2321301079722176  0.4570341901226487  0.5097588749621663  1.0000
  H   H3        1.0  0.686754720519481  0.3864201090936207  0.6177254200318888  1.0000
  H   H4        1.0  0.3131875185702954  0.6135674014747181  0.382267627343474  1.0000
  H   H5        1.0  0.836871604908559  0.15253835414260666  0.462977063212634  1.0000
  H   H6        1.0  0.16310392365423354  0.8474517016021111  0.5370138056950682  1.0000
  H   H7        1.0  0.2979217620143616  0.2446411767163283  0.5412893758367973  1.0000
  H   H8        1.0  0.7020734242211903  0.7553382697163329  0.45873349203469643  1.0000
  H   H9        1.0  0.4275688020819429  0.06424949580072341  0.5497288749062861  1.0000
  H   H10       1.0  0.5724180969023395  0.9357374099582858  0.45027075719128384  1.0000
  H   H11       1.0  0.3608156598504308  0.22499028486329561  0.39952989266645045  1.0000
  H   H12       1.0  0.6391349876829724  0.7749988442671168  0.6004828945333858  1.0000
  H   H13       1.0  0.002738843002504224  0.16653979569841942  0.6654086063490824  1.0000
  H   H14       1.0  0.9972622995284867  0.8334720771423108  0.3345753012488189  1.0000
  H   H15       1.0  0.8698690429720769  0.008500815722200602  0.686598389619448  1.0000
  H   H16       1.0  0.13015474332355126  0.9914885985623274  0.31339563225613903  1.0000
  H   H17       1.0  0.6803665007244463  0.1588962295996978  0.71244504414733  1.0000
  H   H18       1.0  0.31964026685010083  0.8410975903582738  0.28754831096297573  1.0000
  H   H19       1.0  0.28553133964358324  0.10309947335588993  0.08242535864995662  1.0000
  H   H20       1.0  0.7145366714999424  0.8969246757808734  0.9175701688941234  1.0000
  H   H21       1.0  0.44673492615051913  0.14283654286077763  0.19416996629211522  1.0000
  H   H22       1.0  0.5532859305069666  0.857199603475145  0.8058180252136895  1.0000
  H   H23       1.0  0.6938528870304311  0.11881956789944331  0.9641664876525272  1.0000
  H   H24       1.0  0.30624235105494085  0.8811778979091544  0.03585436648963737  1.0000
  H   H25       1.0  0.7521201068021028  0.9712336939622833  0.12172557308337413  1.0000
  H   H26       1.0  0.24794659847656667  0.028766097327547903  0.8783100207024219  1.0000
  H   H27       1.0  0.8542394402182938  0.1414422901451076  0.08803918556472472  1.0000
  H   H28       1.0  0.14581088721472216  0.8585776260898116  0.9119811623606823  1.0000
  H   H29       1.0  0.3039288344479587  0.3383231862446935  0.928683561211429  1.0000
  H   H30       1.0  0.6960772980503764  0.6616865467219029  0.07130537873093361  1.0000
  C   C1        1.0  0.6455905550411528  0.45956624943109864  0.5158409088185538  1.0000
  C   C2        1.0  0.35435647312838364  0.5404235725015527  0.4841511989015503  1.0000
  C   C3        1.0  0.7111565266640272  0.20498628751604292  0.5137834071379005  1.0000
  C   C4        1.0  0.28882878094587033  0.7950039397188464  0.48621155445899694  1.0000
  C   C5        1.0  0.4328980626292847  0.18432152867160312  0.49943281110978444  1.0000
  C   C6        1.0  0.5670947660216682  0.8156667859398968  0.5005772942244208  1.0000
  C   C7        1.0  0.82256408389906  0.1317105876514688  0.6528420254184655  1.0000
  C   C8        1.0  0.17744473413675627  0.8682820132696211  0.34714666502156877  1.0000
  C   C9        1.0  0.7740829233055848  0.43191415958310136  0.3254838092755038  1.0000
  C   C10       1.0  0.2258723107777528  0.5680849651358955  0.6745123006715164  1.0000
  C   C11       1.0  0.43563372528473826  0.16006132660598382  0.09513756428167855  1.0000
  C   C12       1.0  0.5644062627935044  0.8399705009780051  0.9048544469422454  1.0000
  C   C13       1.0  0.699164043553033  0.09465550481482413  0.06498315221257661  1.0000
  C   C14       1.0  0.3008953581710188  0.9053507906660768  0.9350380842761938  1.0000
  S   S1        1.0  0.7783869242575817  0.6230694213157976  0.25520781146278887  1.0000
  S   S2        1.0  0.22152988343678007  0.37693053389471504  0.7447900830105427  1.0000
  S   S3        1.0  0.8351750702930688  0.3267525313344777  0.24166513234086312  1.0000
  S   S4        1.0  0.16481811950846045  0.6732456050226148  0.7583215898348431  1.0000
  N   N1        1.0  0.7199999845906861  0.3675649634439396  0.44802867579588934  1.0000
  N   N2        1.0  0.279949520713565  0.6324283011841274  0.5519629329142222  1.0000
  O   O1        1.0  0.35227626774624105  0.32057674798191743  0.018451720209775094  1.0000
  O   O2        1.0  0.6477850832183096  0.6794425137403551  0.9815312724254996  1.0000
