data_image0
_chemical_formula_structural       Cd3Cu2H46C52S2N8O20
_chemical_formula_sum              "Cd3 Cu2 H46 C52 S2 N8 O20"
_cell_length_a       9.628398840605483
_cell_length_b       12.245774936336577
_cell_length_c       13.085596393879586
_cell_angle_alpha    70.97115953156522
_cell_angle_beta     75.63287486353204
_cell_angle_gamma    67.22150253942881

_space_group_name_H-M_alt    "P 1"
_space_group_IT_number       1

loop_
  _space_group_symop_operation_xyz
  'x, y, z'

loop_
  _atom_site_type_symbol
  _atom_site_label
  _atom_site_symmetry_multiplicity
  _atom_site_fract_x
  _atom_site_fract_y
  _atom_site_fract_z
  _atom_site_occupancy
  Cd  Cd1       1.0  0.7606866429973848  0.7636764702131204  0.8698651425358292  1.0000
  Cd  Cd2       1.0  0.23931787072719854  0.23631841779260304  0.13013341964708755  1.0000
  Cd  Cd3       1.0  2.7960330370940053e-06  0.49999889212607934  2.222364585708854e-06  1.0000
  Cu  Cu1       1.0  0.7849857546957467  0.7987650223755762  0.4246278780568816  1.0000
  Cu  Cu2       1.0  0.2150136560431335  0.20123721214363852  0.5753709197058754  1.0000
  H   H1        1.0  0.9182024695124085  0.9065193815082752  0.8555939403733107  1.0000
  H   H2        1.0  0.08179804433579818  0.09347734890055652  0.1444093658528018  1.0000
  H   H3        1.0  0.7484850111129121  0.0075135363705172  0.8402147522448972  1.0000
  H   H4        1.0  0.25151481677524157  0.9924823052119717  0.1597858848913063  1.0000
  H   H5        1.0  0.09997980465580975  0.5857864434691179  0.7683105857603254  1.0000
  H   H6        1.0  0.9000167255263704  0.4142148962033474  0.23169128391773341  1.0000
  H   H7        1.0  0.2281128266484557  0.4603145105478675  0.8189869232326715  1.0000
  H   H8        1.0  0.7718843953755792  0.5396877220433255  0.18101684904043225  1.0000
  H   H9        1.0  0.4118236164020175  0.77403544890619  0.7309085802016568  1.0000
  H   H10       1.0  0.5881808664785096  0.22596217322102066  0.2690899333488304  1.0000
  H   H11       1.0  0.1479028885110978  0.8012552237264002  0.7277240675938472  1.0000
  H   H12       1.0  0.8521001005081387  0.1987488026506696  0.27227279435381035  1.0000
  H   H13       1.0  0.04084892092611637  0.8852395144591367  0.5511931213258948  1.0000
  H   H14       1.0  0.9591543559843672  0.11476905137476479  0.4488061519603478  1.0000
  H   H15       1.0  0.20991830138576967  0.9367794400903261  0.377604722389215  1.0000
  H   H16       1.0  0.7900843159619626  0.06322274411996891  0.6223965780410908  1.0000
  H   H17       1.0  0.4201022040605336  0.9566341431515825  0.28367844841952206  1.0000
  H   H18       1.0  0.5798954513231179  0.043364463363410294  0.7163209826357929  1.0000
  H   H19       1.0  0.6681395690082397  0.04885897459555372  0.20030437337342732  1.0000
  H   H20       1.0  0.33186168961803725  0.9511386855634286  0.7996939369940675  1.0000
  H   H21       1.0  0.5909644645356095  0.9639673735377273  0.1574321314620803  1.0000
  H   H22       1.0  0.40903353311054486  0.0360330546821288  0.8425666935848427  1.0000
  H   H23       1.0  0.8505264949602276  0.9384871388621222  0.06905574330104254  1.0000
  H   H24       1.0  0.1494729583863119  0.0615123697203686  0.9309415701044443  1.0000
  H   H25       1.0  0.8470027067805642  0.7957323430623261  0.15746797721233458  1.0000
  H   H26       1.0  0.15299601799825518  0.2042690026305465  0.8425281514605276  1.0000
  H   H27       1.0  0.06731700071053118  0.8720795788597188  0.157345716803995  1.0000
  H   H28       1.0  0.9326846427859082  0.1279171770674026  0.8426505031978309  1.0000
  H   H29       1.0  0.9255788509675821  0.9809768890970362  0.2235880943088446  1.0000
  H   H30       1.0  0.07442347705385538  0.019023510239819096  0.7764069136761907  1.0000
  H   H31       1.0  0.2002569598539948  0.7328763315539321  0.2615118060304127  1.0000
  H   H32       1.0  0.7997425052561409  0.26712318521331474  0.7384839743853747  1.0000
  H   H33       1.0  0.37876221484826533  0.5605484365949992  0.3363436850252342  1.0000
  H   H34       1.0  0.621236120613645  0.4394510546539578  0.6636591816148325  1.0000
  H   H35       1.0  0.4781421422694264  0.383477156887885  0.4908333638468108  1.0000
  H   H36       1.0  0.5218536843072952  0.6165232816810972  0.5091681362259024  1.0000
  H   H37       1.0  0.3042122753804504  0.34602722780726225  0.665837782471435  1.0000
  H   H38       1.0  0.6957806941667711  0.6539723322844893  0.3341637235371736  1.0000
  H   H39       1.0  0.0387288790987767  0.4859230817717234  0.6857406376179753  1.0000
  H   H40       1.0  0.9612651833708055  0.5140792338674274  0.314254500028767  1.0000
  H   H41       1.0  0.2583525318361024  0.8206975720390588  0.9988430454307676  1.0000
  H   H42       1.0  0.7416555954596402  0.17929913237880166  0.0011489819679368475  1.0000
  H   H43       1.0  0.4362626912000207  0.3745701608117075  0.163736638773905  1.0000
  H   H44       1.0  0.5637348818384282  0.6254283884099577  0.8362735232093286  1.0000
  H   H45       1.0  0.577935074627774  0.4993075775794368  0.17730197509596485  1.0000
  H   H46       1.0  0.42206247933021496  0.500693713948479  0.8227066052651325  1.0000
  C   C1        1.0  0.854576263734202  0.7242582427170277  0.6338022190811472  1.0000
  C   C2        1.0  0.1454198977881661  0.27574676804782416  0.3661955603713381  1.0000
  C   C3        1.0  0.6830824922240452  0.7912128558247745  0.6432934409186046  1.0000
  C   C4        1.0  0.31691366929832293  0.20879215494007755  0.3567043385338735  1.0000
  C   C5        1.0  0.4679789100549454  0.8361251832330864  0.556147344547405  1.0000
  C   C6        1.0  0.5320212233698527  0.1638752100833685  0.44385340444283383  1.0000
  C   C7        1.0  0.36933104879477696  0.8088837303358503  0.6530747443920576  1.0000
  C   C8        1.0  0.6306726819908306  0.19111571253221632  0.3469256504052111  1.0000
  C   C9        1.0  0.21893380021057854  0.8249062082650697  0.6508873092789358  1.0000
  C   C10       1.0  0.7810695325062156  0.17509688523347927  0.3491128277670158  1.0000
  C   C11       1.0  0.15916778562534967  0.8715724855038759  0.5522293563856665  1.0000
  C   C12       1.0  0.8408344644976253  0.12843061521542862  0.4477717349257587  1.0000
  C   C13       1.0  0.25339635865076793  0.8997841769644596  0.4559268317128513  1.0000
  C   C14       1.0  0.7466048514860475  0.10021620503886913  0.5440737295067706  1.0000
  C   C15       1.0  0.40783833962402133  0.8810881520123316  0.4556553287794785  1.0000
  C   C16       1.0  0.5921653970433881  0.11891129494811989  0.5443442995229334  1.0000
  C   C17       1.0  0.491349396206225  0.9130458032649784  0.3490370607679126  1.0000
  C   C18       1.0  0.5086518315759889  0.0869545910154912  0.6509612009671529  1.0000
  C   C19       1.0  0.6762935514027504  0.9552166749515151  0.20464855019812225  1.0000
  C   C20       1.0  0.3237080494860223  0.04478280691233042  0.7953491541609736  1.0000
  C   C21       1.0  0.8346243464848728  0.8894305072376623  0.1555507783441001  1.0000
  C   C22       1.0  0.16537940782794175  0.11056895199992312  0.8444465504737695  1.0000
  C   C23       1.0  0.9566968182780895  0.8899956770931113  0.2099926728632013  1.0000
  C   C24       1.0  0.043304084887026285  0.110002907759629  0.7900038953957066  1.0000
  C   C25       1.0  0.10870718724905243  0.7240883548453071  0.32993500168364415  1.0000
  C   C26       1.0  0.8912940522967646  0.2759120476199186  0.6700617270617146  1.0000
  C   C27       1.0  0.15593882663446115  0.6261351029805482  0.42500345224833325  1.0000
  C   C28       1.0  0.8440573598501615  0.37386716957043836  0.5749951423314313  1.0000
  C   C29       1.0  0.3062763351414901  0.5442276647031435  0.41426118992334443  1.0000
  C   C30       1.0  0.6937209045279431  0.45577458016519046  0.5857402828652029  1.0000
  C   C31       1.0  0.3611236921724482  0.4447973981460507  0.49980681814887623  1.0000
  C   C32       1.0  0.6388739147217493  0.5552039302132813  0.5001948637585585  1.0000
  C   C33       1.0  0.26329172787004745  0.42343534681737066  0.5974302961426404  1.0000
  C   C34       1.0  0.7367033701389544  0.576566928861979  0.4025700191974479  1.0000
  C   C35       1.0  0.11478315724489356  0.5036966722678997  0.6101211880648023  1.0000
  C   C36       1.0  0.8852101898556342  0.4963047340830047  0.3898751129663012  1.0000
  C   C37       1.0  0.06051837658159092  0.608744200002576  0.5262168846613164  1.0000
  C   C38       1.0  0.9394760354673579  0.39125718685043154  0.4737807615888768  1.0000
  C   C39       1.0  0.42437742524441546  0.6699123748421059  0.0907998014032714  1.0000
  C   C40       1.0  0.5756259632786963  0.3300852463210973  0.9092011994023894  1.0000
  C   C41       1.0  0.29693392998516516  0.7226118707988292  0.037189361494640076  1.0000
  C   C42       1.0  0.7030716296073791  0.2773857400152552  0.9628089642852304  1.0000
  C   C43       1.0  0.21224950185786168  0.6548981358035278  0.02993664313186173  1.0000
  C   C44       1.0  0.7877585416576238  0.3451012659043969  0.9700622340880829  1.0000
  C   C45       1.0  0.26500161842937314  0.5241694526298774  0.0778919748938023  1.0000
  C   C46       1.0  0.7350010121170172  0.47582998518179664  0.9221116736534897  1.0000
  C   C47       1.0  0.39690098094005316  0.4736131120490795  0.1303090787439061  1.0000
  C   C48       1.0  0.6030955080695221  0.5263881989767256  0.8696981563981083  1.0000
  C   C49       1.0  0.47591992580954917  0.5431492124129774  0.1375926959069247  1.0000
  C   C50       1.0  0.5240798241801414  0.4568493305519468  0.862414024555669  1.0000
  C   C51       1.0  0.07545644410429715  0.7320107799526455  0.9711583976288054  1.0000
  C   C52       1.0  0.9245505667418852  0.2679831525483038  0.028843064111171695  1.0000
  S   S1        1.0  0.5116876347375482  0.7672574677233045  0.10305672192480117  1.0000
  S   S2        1.0  0.48831648680002365  0.2327410750052792  0.8969408160119487  1.0000
  N   N1        1.0  0.9149589073390485  0.692336407307195  0.5401077481915522  1.0000
  N   N2        1.0  0.08503725418331946  0.30766860345765684  0.4598900312609331  1.0000
  N   N3        1.0  0.622020341404962  0.8118931702759868  0.5544889147043577  1.0000
  N   N4        1.0  0.3779786595015011  0.18811270668894764  0.4455111582967889  1.0000
  N   N5        1.0  0.6351667975188562  0.8973780206425271  0.3204045336359301  1.0000
  N   N6        1.0  0.3648341056462598  0.10262056421021272  0.6795920346229707  1.0000
  N   N7        1.0  0.972605119167781  0.7996015918345235  0.3157413543661819  1.0000
  N   N8        1.0  0.027398279683872262  0.20039879209682712  0.6842542323430935  1.0000
  O   O1        1.0  0.9222207201449916  0.7008626455821274  0.713920010436567  1.0000
  O   O2        1.0  0.07777293980903716  0.29914056201174344  0.2860795170604008  1.0000
  O   O3        1.0  0.6136920251647522  0.8152414766972599  0.733121645914139  1.0000
  O   O4        1.0  0.386300563959061  0.18476174630212225  0.26687730285859607  1.0000
  O   O5        1.0  0.5576809679973846  0.8346006150356758  0.990097179261852  1.0000
  O   O6        1.0  0.44232353841034916  0.16539702346105403  0.009898268309235916  1.0000
  O   O7        1.0  0.39382047323301345  0.8533202650719146  0.1618790142385008  1.0000
  O   O8        1.0  0.6061786554964285  0.14667743408284653  0.8381166056908214  1.0000
  O   O9        1.0  0.6414834365689398  0.6902073308712389  0.16255575931654692  1.0000
  O   O10       1.0  0.35851812759397456  0.309794881021709  0.8374426629049766  1.0000
  O   O11       1.0  0.07217151963226326  0.8372663444229006  0.9114069776496195  1.0000
  O   O12       1.0  0.9278326283026246  0.1627267055084332  0.08859525652109572  1.0000
  O   O13       1.0  0.9613683438494646  0.6941443477169287  0.9862792041758368  1.0000
  O   O14       1.0  0.03863464215807965  0.30585416540098725  0.01372618648004929  1.0000
  O   O15       1.0  0.202815943179651  0.44659348696658446  0.07465357491930992  1.0000
  O   O16       1.0  0.7971870487096949  0.5534050302437167  0.9253510492417263  1.0000
  O   O17       1.0  0.8265195745096674  0.9360324503856036  0.816155506947311  1.0000
  O   O18       1.0  0.173481685551657  0.06396245518998711  0.18384668452686986  1.0000
  O   O19       1.0  0.16074405665775512  0.5418832206200435  0.8288596318924562  1.0000
  O   O20       1.0  0.8392463628316733  0.45811725814506593  0.17114587301275458  1.0000
