data_image0
_chemical_formula_structural       Na2H26C30S2O24
_chemical_formula_sum              "Na2 H26 C30 S2 O24"
_cell_length_a       7.535400234422383
_cell_length_b       10.052328896017256
_cell_length_c       11.813475306547526
_cell_angle_alpha    75.87737205229803
_cell_angle_beta     82.6524717565862
_cell_angle_gamma    78.74278332743148

_space_group_name_H-M_alt    "P 1"
_space_group_IT_number       1

loop_
  _space_group_symop_operation_xyz
  'x, y, z'

loop_
  _atom_site_type_symbol
  _atom_site_label
  _atom_site_symmetry_multiplicity
  _atom_site_fract_x
  _atom_site_fract_y
  _atom_site_fract_z
  _atom_site_occupancy
  Na  Na1       1.0  0.4798124036732361  0.22434365748547686  0.09860077165627959  1.0000
  Na  Na2       1.0  0.5201873290713267  0.7756568831113951  0.9013980126188559  1.0000
  H   H1        1.0  0.6030854717173924  0.5208880613333733  0.10350741151689397  1.0000
  H   H2        1.0  0.3969155964122209  0.47911249047576365  0.8964912511415337  1.0000
  H   H3        1.0  0.5562231366841673  0.7267937158001342  0.6742123491681584  1.0000
  H   H4        1.0  0.4437698125594667  0.2732015529077214  0.3257880983939856  1.0000
  H   H5        1.0  0.21945715340935834  0.031934826881581585  0.8015150889164603  1.0000
  H   H6        1.0  0.7805456024428636  0.9680699110444234  0.19848258363911955  1.0000
  H   H7        1.0  0.2830673092557134  0.9760532617852674  0.04186966210883017  1.0000
  H   H8        1.0  0.7169381060602333  0.02394622590198029  0.9581330583252882  1.0000
  H   H9        1.0  0.8722375574729996  0.46649808119618524  0.3866517355816158  1.0000
  H   H10       1.0  0.1277654250872261  0.5335056271738521  0.6133452765096409  1.0000
  H   H11       1.0  0.271621572647341  0.9890538057495629  0.23195462940104525  1.0000
  H   H12       1.0  0.7283789735982965  0.010943566609569197  0.7680481037529178  1.0000
  H   H13       1.0  0.545209844583745  0.6293424512075773  0.46654912209185556  1.0000
  H   H14       1.0  0.454787432792358  0.37065176474550293  0.5334545360642977  1.0000
  H   H15       1.0  0.6129362222638552  0.506233101662509  0.3052860375424516  1.0000
  H   H16       1.0  0.3870629695428677  0.4937642708514786  0.6947159700465236  1.0000
  H   H17       1.0  0.9103886572248642  0.3482243166433818  0.6874887383251862  1.0000
  H   H18       1.0  0.08961710268115305  0.6517846299788841  0.3125069753291499  1.0000
  H   H19       1.0  0.7629940993096727  0.37184766974718997  0.012157511870810794  1.0000
  H   H20       1.0  0.2369995355552206  0.6281559601370078  0.9878403515373579  1.0000
  H   H21       1.0  0.8141178416952715  0.31577258572421835  0.14342378060235467  1.0000
  H   H22       1.0  0.18588138047169175  0.6842300480859435  0.8565737830563622  1.0000
  H   H23       1.0  0.15754356830793637  0.17808619526330458  0.950243125427285  1.0000
  H   H24       1.0  0.8424526688590959  0.8219122184834827  0.04975724431436395  1.0000
  H   H25       1.0  0.11551753846634946  0.17120019405597725  0.08777678961889285  1.0000
  H   H26       1.0  0.8844773633156325  0.8287982084785452  0.912223701739457  1.0000
  C   C1        1.0  0.35161224970698185  0.8849437662260582  0.24759911180289865  1.0000
  C   C2        1.0  0.648391174962896  0.11505261036874966  0.7524018704716442  1.0000
  C   C3        1.0  0.1010100579354258  0.16066633585380424  0.678256753268876  1.0000
  C   C4        1.0  0.8989929627325353  0.8393373497819995  0.3217419531857574  1.0000
  C   C5        1.0  0.5026630414552217  0.6827761811904053  0.3805118396429777  1.0000
  C   C6        1.0  0.4973408556845341  0.31721812492533985  0.6194886688845999  1.0000
  C   C7        1.0  0.4896659891592778  0.6784207522703269  0.17750561722537134  1.0000
  C   C8        1.0  0.5103374545644641  0.3215756129573605  0.8224962122308599  1.0000
  C   C9        1.0  0.5426552565863929  0.6136827858500878  0.28941885514323934  1.0000
  C   C10       1.0  0.4573426760507361  0.386314529983167  0.7105866627891901  1.0000
  C   C11       1.0  0.3925569166637573  0.8163458964731799  0.1568245287680839  1.0000
  C   C12       1.0  0.6074500797991077  0.1836525615032371  0.8431782567666987  1.0000
  C   C13       1.0  0.9675131271449404  0.3215211589093555  0.5105903901937128  1.0000
  C   C14       1.0  0.0324925261853863  0.6784825718852119  0.4894063786641355  1.0000
  C   C15       1.0  0.9856567568117712  0.28092476654469317  0.63187836084645  1.0000
  C   C16       1.0  0.014345979986586627  0.7190799827484325  0.36811846452744135  1.0000
  C   C17       1.0  0.193041658847342  0.07114882937621297  0.6040154305326979  1.0000
  C   C18       1.0  0.8069602912513006  0.9288537927571239  0.3959844314376826  1.0000
  C   C19       1.0  0.1690131560826273  0.11101824213164238  0.48406129514705043  1.0000
  C   C20       1.0  0.8309874205232431  0.8889843915236637  0.5159369940766539  1.0000
  C   C21       1.0  0.4051701824569634  0.820049662048788  0.36104634197986496  1.0000
  C   C22       1.0  0.5948279387804476  0.17994664696273327  0.6389568211248646  1.0000
  C   C23       1.0  0.38364554879377993  0.8542703103029223  0.5702486313700348  1.0000
  C   C24       1.0  0.6163483205266191  0.14572700599489957  0.4297547098674386  1.0000
  C   C25       1.0  0.3494617007330305  0.8960304073981573  0.45323520634438813  1.0000
  C   C26       1.0  0.650531884717765  0.10396797255698688  0.5467662538123507  1.0000
  C   C27       1.0  0.31080110935441513  0.9438299523531763  0.649358904756767  1.0000
  C   C28       1.0  0.6891995434669056  0.05617263583366139  0.35064277319368403  1.0000
  C   C29       1.0  0.065427868693277  0.2393638294908556  0.4329102558923097  1.0000
  C   C30       1.0  0.9345731803824792  0.7606367336853948  0.5670875595844294  1.0000
  S   S1        1.0  0.07827326840315152  0.30346713514485646  0.2788141318213492  1.0000
  S   S2        1.0  0.921727761618733  0.6965334393985143  0.7211828364737088  1.0000
  O   O1        1.0  0.524122101621764  0.6156120166723935  0.08540202632563881  1.0000
  O   O2        1.0  0.4758817134933935  0.3843885120927907  0.9145997818261337  1.0000
  O   O3        1.0  0.2730252106430271  0.2978334630022203  0.23865635813688618  1.0000
  O   O4        1.0  0.7269757509108957  0.7021618729792107  0.7613433597250535  1.0000
  O   O5        1.0  0.9768641621951203  0.4465653579038216  0.25938075041273123  1.0000
  O   O6        1.0  0.023141736897080982  0.5534373319676504  0.7406162051624747  1.0000
  O   O7        1.0  0.48025852470352964  0.7265076484600924  0.6111795554263751  1.0000
  O   O8        1.0  0.519726734207147  0.273486466582625  0.38882519728009163  1.0000
  O   O9        1.0  0.1263627713527526  0.12276959927799416  0.7937357641872966  1.0000
  O   O10       1.0  0.8736397387375948  0.877236179571099  0.20626172165092543  1.0000
  O   O11       1.0  0.3405394857241292  0.8760337444495857  0.04612810690793632  1.0000
  O   O12       1.0  0.6594682974384513  0.12396684068662717  0.9538716420303573  1.0000
  O   O13       1.0  0.997632413850674  0.21498040085317158  0.22247881323622223  1.0000
  O   O14       1.0  0.0023641566000521448  0.7850221991653467  0.7775198408375845  1.0000
  O   O15       1.0  0.8533771778500495  0.44016015411949627  0.4740945870040179  1.0000
  O   O16       1.0  0.14662093563987363  0.5598414389224331  0.5259024378070764  1.0000
  O   O17       1.0  0.3481647965603115  0.9109316863157843  0.7565751683332496  1.0000
  O   O18       1.0  0.6518273524269774  0.08907291644364788  0.24342686588269663  1.0000
  O   O19       1.0  0.248370541337657  0.025072430494446993  0.41272502537667327  1.0000
  O   O20       1.0  0.7516329899079041  0.9749291619280671  0.5872749016943645  1.0000
  O   O21       1.0  0.7152053049020638  0.3674654505864367  0.09328905743580417  1.0000
  O   O22       1.0  0.28479151131053027  0.6325361085089934  0.9067097833553677  1.0000
  O   O23       1.0  0.20972710531182062  0.14684337079061288  0.026125845244337136  1.0000
  O   O24       1.0  0.7902685337557717  0.8531519089746521  0.973875206266094  1.0000
