data_image0
_chemical_formula_structural       Zn2H26C42N6O8
_chemical_formula_sum              "Zn2 H26 C42 N6 O8"
_cell_length_a       16.123062878203392
_cell_length_b       16.632207646992292
_cell_length_c       17.717264725743842
_cell_angle_alpha    90.43018683378756
_cell_angle_beta     90.50194443470426
_cell_angle_gamma    89.68725512896742

_space_group_name_H-M_alt    "P 1"
_space_group_IT_number       1

loop_
  _space_group_symop_operation_xyz
  'x, y, z'

loop_
  _atom_site_type_symbol
  _atom_site_label
  _atom_site_symmetry_multiplicity
  _atom_site_fract_x
  _atom_site_fract_y
  _atom_site_fract_z
  _atom_site_occupancy
  Zn  Zn1       1.0  0.5020879246044031  0.5856368681260804  0.5027656179769548  1.0000
  Zn  Zn2       1.0  0.5061043572848902  0.4114202239984692  0.4974110315912766  1.0000
  H   H1        1.0  0.5911156353293306  0.7094669826182383  0.4314080295681037  1.0000
  H   H2        1.0  0.4657749259675937  0.37130434245108296  0.8772517582036341  1.0000
  H   H3        1.0  0.4687706652954302  0.6346036090674475  0.264514063237435  1.0000
  H   H4        1.0  0.48980061477323716  0.3679634553678496  0.7377469326441355  1.0000
  H   H5        1.0  0.4716136859100216  0.3767876835376782  0.26261503889446647  1.0000
  H   H6        1.0  0.5030658297845177  0.62530530789207  0.7350806156457421  1.0000
  H   H7        1.0  0.4588381961005794  0.3760323997810318  0.12148792678514297  1.0000
  H   H8        1.0  0.47841782089279394  0.6301917932754931  0.8746275834349075  1.0000
  H   H9        1.0  0.39697675729911447  0.871191700631698  0.5827653046385989  1.0000
  H   H10       1.0  0.605655107965134  0.12477426665160607  0.41675135339445984  1.0000
  H   H11       1.0  0.013011592235642397  0.4273917123353569  0.6744147681422488  1.0000
  H   H12       1.0  0.41581972562693176  0.2890416498428222  0.5703473716962717  1.0000
  H   H13       1.0  0.10371475586753577  0.4724185442263433  0.6613927736148069  1.0000
  H   H14       1.0  0.9950320541640633  0.5742281320845777  0.32514959763467016  1.0000
  H   H15       1.0  0.9038008469344587  0.5302056051843776  0.3384144276544844  1.0000
  H   H16       1.0  0.33876844597376277  0.7430104054780459  0.6171674427023672  1.0000
  H   H17       1.0  0.37254334360275704  0.6520816528663715  0.5787636500207254  1.0000
  H   H18       1.0  0.6355413629639982  0.34315982457713556  0.42523813770240787  1.0000
  H   H19       1.0  0.6681647835008843  0.25284611740264046  0.3851077739556956  1.0000
  H   H20       1.0  0.598585174814218  0.8594937835311853  0.42321808160234287  1.0000
  H   H21       1.0  0.4047580480216482  0.13898847865383598  0.5769368922450295  1.0000
  H   H22       1.0  0.9525369531769171  0.5947029618669646  0.5971764174964633  1.0000
  H   H23       1.0  0.05514122670563638  0.40706776222008034  0.4023085162952213  1.0000
  H   H24       1.0  0.9450162115556395  0.3673492860318249  0.5211783246431949  1.0000
  H   H25       1.0  0.06291180548866745  0.6343510075746365  0.478566869843128  1.0000
  H   H26       1.0  0.45846961299507416  0.6353213439404186  0.12329259827397715  1.0000
  C   C1        1.0  0.5119329863030017  0.49489673550236546  0.6451133398970369  1.0000
  C   C2        1.0  0.4809936412424135  0.5729043010718015  0.844388729324798  1.0000
  C   C3        1.0  0.45864428279377706  0.5056695771118811  0.11306600337359636  1.0000
  C   C4        1.0  0.4709480817388537  0.5009922655466423  0.8851887280675822  1.0000
  C   C5        1.0  0.45730126330563076  0.5050731427583414  0.03324904386079909  1.0000
  C   C6        1.0  0.4611304137985711  0.5031582642979942  0.9644146695293967  1.0000
  C   C7        1.0  0.44080566852633746  0.837102600474601  0.5484923692366264  1.0000
  C   C8        1.0  0.5627896451136746  0.15945461500049157  0.4515327770089853  1.0000
  C   C9        1.0  0.43913222607368135  0.752134022975916  0.548751346124213  1.0000
  C   C10       1.0  0.5667166965583731  0.2443063874609948  0.4526072207406172  1.0000
  C   C11       1.0  0.5490032751104152  0.748089749351969  0.4632941216016774  1.0000
  C   C12       1.0  0.48190712000251057  0.5047860109372165  0.35553405485753586  1.0000
  C   C13       1.0  0.45681425565444994  0.2497970036918034  0.5379394113882795  1.0000
  C   C14       1.0  0.5534134970159527  0.8307445200106968  0.45918042400538167  1.0000
  C   C15       1.0  0.45042979962239116  0.16721902083207135  0.541131414617972  1.0000
  C   C16       1.0  0.34135679286031717  0.48855245610545245  0.5147758470885078  1.0000
  C   C17       1.0  0.6662210883029971  0.5064595430956231  0.4847023011791618  1.0000
  C   C18       1.0  0.49763859597098997  0.8769765253045564  0.5033538910705528  1.0000
  C   C19       1.0  0.5050366592899208  0.1203342586584029  0.4963381997267361  1.0000
  C   C20       1.0  0.49933693380276617  0.9620832246315559  0.5010207632674619  1.0000
  C   C21       1.0  0.5019472729883532  0.0352435005241389  0.49805337303677516  1.0000
  C   C22       1.0  0.9761668223361537  0.5533486179327837  0.5539816764422552  1.0000
  C   C23       1.0  0.4667487056609829  0.5785321921554072  0.23234906688744408  1.0000
  C   C24       1.0  0.03162443331060419  0.4484024388782544  0.4455959099323293  1.0000
  C   C25       1.0  0.027720931040029494  0.47313700553076626  0.568925757404422  1.0000
  C   C26       1.0  0.980061024259015  0.5286827103214903  0.4306984346207655  1.0000
  C   C27       1.0  0.25185273161913085  0.4903752539498995  0.5140078437662439  1.0000
  C   C28       1.0  0.7557891112153284  0.5085922080925087  0.48564107855820976  1.0000
  C   C29       1.0  0.03595224911804709  0.5752296437239008  0.48856278535454567  1.0000
  C   C30       1.0  0.9719023929758136  0.42648247331935346  0.5110852662981173  1.0000
  C   C31       1.0  0.08899137322053009  0.4967492932622121  0.5027294513422403  1.0000
  C   C32       1.0  0.9187699716614472  0.5048903201461955  0.49675497279524433  1.0000
  C   C33       1.0  0.1764327057697699  0.49285600021315895  0.5082562980878009  1.0000
  C   C34       1.0  0.4873924444877459  0.4248680461246011  0.7685593383437491  1.0000
  C   C35       1.0  0.8312588470662517  0.5081629861075359  0.49141349149779495  1.0000
  C   C36       1.0  0.46072334331059744  0.5788336943146105  0.15407555304171436  1.0000
  C   C37       1.0  0.4738254569842297  0.4268007070921911  0.8458500029609508  1.0000
  C   C38       1.0  0.47154576006769117  0.5056594098261015  0.27151832641657586  1.0000
  C   C39       1.0  0.4985880153368143  0.4964430896120362  0.7285948982010595  1.0000
  C   C40       1.0  0.46816299777754716  0.43279390993908606  0.231196761665167  1.0000
  C   C41       1.0  0.49486972625228265  0.5703361839011692  0.7671834958149331  1.0000
  C   C42       1.0  0.4612264391502804  0.43249188643370917  0.1530717872710525  1.0000
  N   N1        1.0  0.4938902371995581  0.7089562481510042  0.5065898981879825  1.0000
  N   N2        1.0  0.5129037582922463  0.2881230882086427  0.49509730604070495  1.0000
  N   N3        1.0  0.0585091051451627  0.4385127854337369  0.6362995121606259  1.0000
  N   N4        1.0  0.9495199758725759  0.5635582564744651  0.3633680775896906  1.0000
  N   N5        1.0  0.3843184793108704  0.7113611899711785  0.5914723031256697  1.0000
  N   N6        1.0  0.6229346975431439  0.2846509315855955  0.4110570577983309  1.0000
  O   O1        1.0  0.5267407506676063  0.5618306423959537  0.6135589674117056  1.0000
  O   O2        1.0  0.4980210960997908  0.4369027469261653  0.3852583395667324  1.0000
  O   O3        1.0  0.5061817035376066  0.4269614161028841  0.6115966836297415  1.0000
  O   O4        1.0  0.47452601849049353  0.5715405731218652  0.3908063331270525  1.0000
  O   O5        1.0  0.37797715312114377  0.5553420993860456  0.528749916714652  1.0000
  O   O6        1.0  0.6336634076545519  0.4366625847360197  0.49034827781157014  1.0000
  O   O7        1.0  0.3765067868731861  0.42179470494785676  0.5006298214253417  1.0000
  O   O8        1.0  0.6276171615387013  0.5729683843137037  0.47941591774313225  1.0000
