data_image0
_chemical_formula_structural       Zn4H26C48N16Cl2O2
_chemical_formula_sum              "Zn4 H26 C48 N16 Cl2 O2"
_cell_length_a       15.6969537328664
_cell_length_b       15.859105515385675
_cell_length_c       17.49928255682842
_cell_angle_alpha    102.91350212730364
_cell_angle_beta     107.99806754116905
_cell_angle_gamma    112.70897816200517

_space_group_name_H-M_alt    "P 1"
_space_group_IT_number       1

loop_
  _space_group_symop_operation_xyz
  'x, y, z'

loop_
  _atom_site_type_symbol
  _atom_site_label
  _atom_site_symmetry_multiplicity
  _atom_site_fract_x
  _atom_site_fract_y
  _atom_site_fract_z
  _atom_site_occupancy
  Zn  Zn1       1.0  0.8700141520707874  0.8688351063818588  0.49412273765110354  1.0000
  Zn  Zn2       1.0  0.13584343350044747  0.13754821315255578  0.4976159127449191  1.0000
  Zn  Zn3       1.0  0.1228599021753143  0.997920151656807  0.6112495055107772  1.0000
  Zn  Zn4       1.0  0.8827206579631053  0.006692681633545309  0.3804224278198944  1.0000
  H   H1        1.0  0.8065222195393321  0.7686029850796106  0.6336565057082523  1.0000
  H   H2        1.0  0.8918617062298608  0.7733047598305305  0.9657585399584361  1.0000
  H   H3        1.0  0.17737890784027857  0.34830461427742426  0.46233534928023085  1.0000
  H   H4        1.0  0.12333471613320773  0.13665362807644502  0.7770246646583698  1.0000
  H   H5        1.0  0.8252880480072378  0.16000253904399395  0.48136587293669914  1.0000
  H   H6        1.0  0.13861287810863848  0.322450255967354  0.6278699960594805  1.0000
  H   H7        1.0  0.8132491022406968  0.9792273945557571  0.6351206145939657  1.0000
  H   H8        1.0  0.6401622186219386  0.667993483651678  0.35229433419535644  1.0000
  H   H9        1.0  0.2210799302684094  0.7482995383083517  0.4557394792434834  1.0000
  H   H10       1.0  0.18949312368425109  0.7119062410285792  0.5369484150111673  1.0000
  H   H11       1.0  0.3572304656395958  0.8570986783702496  0.6547500331744514  1.0000
  H   H12       1.0  0.381615290304005  0.21821288280349904  0.5300666240585625  1.0000
  H   H13       1.0  0.37820776123869854  0.7798218842937815  0.5804877595695216  1.0000
  H   H14       1.0  0.3899312844851225  0.8939927401887717  0.5739844300323752  1.0000
  H   H15       1.0  0.24532314630368313  0.8871193204847857  0.13723852681412305  1.0000
  H   H16       1.0  0.24257127115469512  0.9996461112191996  0.14235811455521485  1.0000
  H   H17       1.0  0.3155811518646843  0.010508719806125605  0.03305654360292459  1.0000
  H   H18       1.0  0.3990597192850985  0.006480795525980906  0.1264805921664802  1.0000
  H   H19       1.0  0.31850188778420846  0.8982775313713632  0.027718439407969756  1.0000
  H   H20       1.0  0.8714489120596909  0.8524451510549087  0.2162830506758198  1.0000
  H   H21       1.0  0.20244716180405217  0.017120155916977402  0.3726675104403582  1.0000
  H   H22       1.0  0.8490935459938099  0.6851058267537127  0.3526133089404552  1.0000
  H   H23       1.0  0.6557656055718225  0.8527562468179324  0.20267930533911022  1.0000
  H   H24       1.0  0.36200452191670957  0.03779801446844291  0.6835645041826837  1.0000
  H   H25       1.0  0.3289528481526389  0.426331436619492  0.041204121735297916  1.0000
  H   H26       1.0  0.330163015272852  0.5778531398128735  0.9567343496196299  1.0000
  C   C1        1.0  0.8888161061006983  0.8163506245657217  0.6592142799773199  1.0000
  C   C2        1.0  0.9284011051445447  0.7368024669963661  0.3998796105437136  1.0000
  C   C3        1.0  0.6682079107771275  0.8208549854049921  0.2511396525686962  1.0000
  C   C4        1.0  0.09686180701394428  0.29161271200291605  0.4285603146267291  1.0000
  C   C5        1.0  0.3502348647390576  0.08007534342543472  0.6444019726608018  1.0000
  C   C6        1.0  0.6057016529267545  0.7257989048476577  0.24633984708341222  1.0000
  C   C7        1.0  0.4165448622616879  0.13524654906093053  0.6136755360721436  1.0000
  C   C8        1.0  0.013116821390817004  0.7195811893908373  0.42166180217136434  1.0000
  C   C9        1.0  0.04277595565246646  0.9153473959810584  0.26201083910329  1.0000
  C   C10       1.0  0.7361110119042137  0.11906653311843482  0.604108988778364  1.0000
  C   C11       1.0  0.6704268659005236  0.13501903983420502  0.6176880012077317  1.0000
  C   C12       1.0  0.011173992151960136  0.300153916063181  0.3826263559995481  1.0000
  C   C13       1.0  0.5903696301487144  0.14349490281715302  0.62409955391049  1.0000
  C   C14       1.0  0.5117747005067201  0.14385160977526115  0.6226941122631756  1.0000
  C   C15       1.0  0.008415835379189265  0.3844231591700762  0.3732270795890642  1.0000
  C   C16       1.0  0.12225349772651845  0.1681679081409088  0.727905974174014  1.0000
  C   C17       1.0  0.006696233306008972  0.46084752707134397  0.371814164797584  1.0000
  C   C18       1.0  0.007023711104892589  0.5472398092259851  0.3782902026294224  1.0000
  C   C19       1.0  0.010416259716940802  0.628301896678558  0.39423737954054155  1.0000
  C   C20       1.0  0.1858243526419586  0.3486890244211623  0.8128775171520173  1.0000
  C   C21       1.0  0.3067868203853764  0.5047219276448659  0.9600157569733128  1.0000
  C   C22       1.0  0.35333276184380236  0.49937579050705966  0.03766361604591146  1.0000
  C   C23       1.0  0.14384659047999554  0.26572639227060085  0.7358135244531353  1.0000
  C   C24       1.0  0.4358648591232922  0.5808191339408707  0.1121867752943899  1.0000
  C   C25       1.0  0.23662126833585267  0.4212405477832989  0.8822232479380645  1.0000
  C   C26       1.0  0.5135341709108019  0.648514150881013  0.1760808681376673  1.0000
  C   C27       1.0  0.053343067529048924  0.8802476945385747  0.18624337658516044  1.0000
  C   C28       1.0  0.8309413449527979  0.10899808734701821  0.5123491485749198  1.0000
  C   C29       1.0  0.05414245775408959  0.8453038680193005  0.03266717430612693  1.0000
  C   C30       1.0  0.9630606153284305  0.8044708791016151  0.9591246760036611  1.0000
  C   C31       1.0  0.9599204115688595  0.8090168414063613  0.8797577603462726  1.0000
  C   C32       1.0  0.05651030806456001  0.8584753239365597  0.11585094356485831  1.0000
  C   C33       1.0  0.9599246696228365  0.8209643048335452  0.8130122366820627  1.0000
  C   C34       1.0  0.7972402125489851  0.08801957906640474  0.5753829898300324  1.0000
  C   C35       1.0  0.13028844123728334  0.2634400623813633  0.6515998767096746  1.0000
  C   C36       1.0  0.8243211068479893  0.016109300995211108  0.5909011796108884  1.0000
  C   C37       1.0  0.928258057320889  0.20371760492156452  0.35368555337995383  1.0000
  C   C38       1.0  0.05680914248527105  0.9060693426870046  0.7372150600355168  1.0000
  C   C39       1.0  0.9668462114570389  0.8441299728212855  0.7418852907512131  1.0000
  C   C40       1.0  0.23366763883093009  0.7755556760034352  0.5240317662696867  1.0000
  C   C41       1.0  0.34646714962883624  0.8303504331825736  0.5870944298114934  1.0000
  C   C42       1.0  0.23957900680800054  0.9343168549413506  0.10044711929756299  1.0000
  C   C43       1.0  0.3231158386810265  0.9641099059996067  0.07000106162297474  1.0000
  C   C44       1.0  0.6601564099011908  0.7263477597561661  0.32764096325958997  1.0000
  C   C45       1.0  0.3598791646465642  0.17173914046216515  0.5653032905703126  1.0000
  C   C46       1.0  0.09577044081475378  0.8130177285421853  0.4874673821902249  1.0000
  C   C47       1.0  0.9499633237676193  0.9007243576503683  0.2663974905349066  1.0000
  C   C48       1.0  0.11953975184436437  0.9848767648594859  0.3463650853616684  1.0000
  N   N1        1.0  0.929403109958855  0.8579852949042035  0.6109950257596921  1.0000
  N   N2        1.0  0.10030282419186423  0.11436108222084583  0.6464412276003344  1.0000
  N   N3        1.0  0.8720041124584057  0.05225305267424571  0.4915206965895607  1.0000
  N   N4        1.0  0.10548928996117723  0.17278321356464232  0.599639984082003  1.0000
  N   N5        1.0  0.8678873042841957  0.9952869258617129  0.5395065934129163  1.0000
  N   N6        1.0  0.9615621371339741  0.1443153710932421  0.37993270235036647  1.0000
  N   N7        1.0  0.03420722818494703  0.9140758611303855  0.6597239787063174  1.0000
  N   N8        1.0  0.7469519484554326  0.8139777099137078  0.3759584694796415  1.0000
  N   N9        1.0  0.2681669800482638  0.14029143261651464  0.5671592687469837  1.0000
  N   N10       1.0  0.06115320630114966  0.8775719018772608  0.5020002607914122  1.0000
  N   N11       1.0  0.971264648303894  0.9587149774128892  0.34599097275346236  1.0000
  N   N12       1.0  0.07500258744660468  0.010450949222807506  0.39505719155838637  1.0000
  N   N13       1.0  0.9578179970637277  0.8301376068015929  0.44856680613457905  1.0000
  N   N14       1.0  0.7519262796226015  0.8725948254149429  0.32834001339408286  1.0000
  N   N15       1.0  0.2622932538276713  0.08314492739355471  0.6161793433199279  1.0000
  N   N16       1.0  0.06673756988396926  0.19925874586811435  0.42669189494350945  1.0000
  Cl  Cl1       1.0  0.8003930996994624  0.16004739742563603  0.29460696519767987  1.0000
  Cl  Cl2       1.0  0.18103009538935336  0.967088081614641  0.8148747682672094  1.0000
  O   O1        1.0  0.19566344881029374  0.8453305506447821  0.5359682855243193  1.0000
  O   O2        1.0  0.1428466909329062  0.8793722910639307  0.023128377498615335  1.0000
