data_image0
_chemical_formula_structural       Zr6H24C52S10N4O32
_chemical_formula_sum              "Zr6 H24 C52 S10 N4 O32"
_cell_length_a       16.433428651649486
_cell_length_b       16.462473521867423
_cell_length_c       16.51102127957211
_cell_angle_alpha    62.15487615820348
_cell_angle_beta     59.960414524187634
_cell_angle_gamma    60.24345218688195

_space_group_name_H-M_alt    "P 1"
_space_group_IT_number       1

loop_
  _space_group_symop_operation_xyz
  'x, y, z'

loop_
  _atom_site_type_symbol
  _atom_site_label
  _atom_site_symmetry_multiplicity
  _atom_site_fract_x
  _atom_site_fract_y
  _atom_site_fract_z
  _atom_site_occupancy
  Zr  Zr1       1.0  0.8882942839119394  0.9027256629782132  0.5998016915896544  1.0000
  Zr  Zr2       1.0  0.10923011078991611  0.10532703427347197  0.3973633039073621  1.0000
  Zr  Zr3       1.0  0.10222443209858077  0.8979308061630958  0.6052717513875479  1.0000
  Zr  Zr4       1.0  0.894583488138046  0.11071506073835767  0.3925522203637756  1.0000
  Zr  Zr5       1.0  0.10810425878295146  0.8947604210337515  0.3891593544886547  1.0000
  Zr  Zr6       1.0  0.8890767866165206  0.11368024935397614  0.608214454729584  1.0000
  H   H1        1.0  0.0788871168540269  0.754855630811285  0.5774262914271733  1.0000
  H   H2        1.0  0.08883553656852429  0.0830623815523595  0.249469066697344  1.0000
  H   H3        1.0  0.08266168922861543  0.08568116738121029  0.5884590642297384  1.0000
  H   H4        1.0  0.7433213275466954  0.09395141219281565  0.5801534770313522  1.0000
  H   H5        1.0  0.8599262501990949  0.40756487553484544  0.6212516943717006  1.0000
  H   H6        1.0  0.12500362457536354  0.6133718836923876  0.36146002956236606  1.0000
  H   H7        1.0  0.3997748026579161  0.8675302782850096  0.1076697913718405  1.0000
  H   H8        1.0  0.611174011314283  0.12704318963106678  0.9015651147843615  1.0000
  H   H9        1.0  0.11832545219839109  0.8720284389121317  0.8889171532385023  1.0000
  H   H10       1.0  0.86421462439057  0.12402807044369281  0.12268427286716128  1.0000
  H   H11       1.0  0.38954115083155466  0.628632359367792  0.6178266581056563  1.0000
  H   H12       1.0  0.6210222098623672  0.39431371620849387  0.3663446824916934  1.0000
  H   H13       1.0  0.8668942549897024  0.6476817099428018  0.8285865916514867  1.0000
  H   H14       1.0  0.15624283061131192  0.33467347828247535  0.14266517680824364  1.0000
  H   H15       1.0  0.3937749570966956  0.11530388312809958  0.36892326148824856  1.0000
  H   H16       1.0  0.6222602088133583  0.8737045041692113  0.6102505019439592  1.0000
  H   H17       1.0  0.2409278604907641  0.4862175780106739  0.9194854789581727  1.0000
  H   H18       1.0  0.24839991088133928  0.42803099623715474  0.030197435195013556  1.0000
  H   H19       1.0  0.10621262555363856  0.716927885269328  0.8334686074266389  1.0000
  H   H20       1.0  0.14532940392131652  0.6232914349027326  0.9329501411813085  1.0000
  H   H21       1.0  0.8535692809029528  0.424533784351489  0.9804179898322192  1.0000
  H   H22       1.0  0.7940404287854503  0.5351574806711737  0.9216375457741038  1.0000
  H   H23       1.0  0.8437678850106634  0.33821325763526755  0.21084817718011814  1.0000
  H   H24       1.0  0.7986525802614892  0.4377452334277904  0.11740418602426683  1.0000
  C   C1        1.0  0.994441405086789  0.7398998275207304  0.485038586976657  1.0000
  C   C2        1.0  0.2805422400951797  0.9909663689189186  0.23430511968772558  1.0000
  C   C3        1.0  0.9956965135521401  0.2761897351544178  0.5031455752280607  1.0000
  C   C4        1.0  0.7249722972107902  0.008656364909136035  0.7705920405354546  1.0000
  C   C5        1.0  0.9845017123289637  0.7430547331344285  0.7661258212215786  1.0000
  C   C6        1.0  0.7310704216422363  0.004312796605297943  0.4885548590910815  1.0000
  C   C7        1.0  0.0061006687550390105  0.27170282070321145  0.23770713789568995  1.0000
  C   C8        1.0  0.2761848524566733  0.9935758709776008  0.49919077028797443  1.0000
  C   C9        1.0  0.27436164716033334  0.7346320796037062  0.49308253259655294  1.0000
  C   C10       1.0  0.9903646078007925  0.0019147280213474148  0.7769311535848403  1.0000
  C   C11       1.0  0.7308750425687478  0.28235543345111574  0.49638064360398465  1.0000
  C   C12       1.0  0.9979276692709009  0.9990294703537825  0.22897252908903457  1.0000
  C   C13       1.0  0.9234176167141256  0.4265871480511054  0.5599467090361047  1.0000
  C   C14       1.0  0.06084435903755293  0.5950140782505997  0.4220741889537508  1.0000
  C   C15       1.0  0.9930214207760741  0.36892118346250424  0.49799420561898705  1.0000
  C   C16       1.0  0.9924393142922414  0.6516803053907124  0.48514392726978883  1.0000
  C   C17       1.0  0.035542449736105854  0.5133549384144158  0.44880218953147033  1.0000
  C   C18       1.0  0.9476080173491608  0.509238898944524  0.532106557764486  1.0000
  C   C19       1.0  0.4217053404190949  0.9281510419464923  0.08923638437371315  1.0000
  C   C20       1.0  0.5898272777112437  0.06582039152721808  0.9206479379314346  1.0000
  C   C21       1.0  0.3705080987844342  0.991203189630795  0.14590258907865214  1.0000
  C   C22       1.0  0.639834434881415  0.0037532525247102586  0.8631110461947105  1.0000
  C   C23       1.0  0.5107483187869306  0.038111104133655364  0.0032624701003384888  1.0000
  C   C24       1.0  0.5019078104649214  0.9548152439053722  0.007477654605992323  1.0000
  C   C25       1.0  0.05595605710492213  0.9325146552151646  0.9156227997107466  1.0000
  C   C26       1.0  0.9256137908272494  0.0628222297182788  0.09648571907936097  1.0000
  C   C27       1.0  0.9883538009590682  0.9997172928416092  0.8680488521332138  1.0000
  C   C28       1.0  0.9945508669190348  0.9966347175033833  0.14275079103099136  1.0000
  C   C29       1.0  0.9474239624668569  0.039346845010534634  0.014159775234794707  1.0000
  C   C30       1.0  0.03295936103099026  0.9549504820916463  0.9990078221739865  1.0000
  C   C31       1.0  0.4155714708856665  0.6023659322538676  0.5566675139535492  1.0000
  C   C32       1.0  0.5962223324478445  0.42113430802604784  0.4267289103538161  1.0000
  C   C33       1.0  0.3665677564319552  0.6485847354357902  0.4904886853340714  1.0000
  C   C34       1.0  0.6441546396909034  0.37361669156785376  0.49396146831578874  1.0000
  C   C35       1.0  0.5135264656533495  0.5046835889359402  0.4489776835644151  1.0000
  C   C36       1.0  0.4995568545795877  0.5199823795007605  0.5332636533624895  1.0000
  C   C37       1.0  0.044431447343420485  0.6104021675979253  0.9048387757620662  1.0000
  C   C38       1.0  0.9110188471376618  0.6135968354768553  0.8753418683189054  1.0000
  C   C39       1.0  0.8980534675672445  0.533195843501744  0.9543842256389895  1.0000
  C   C40       1.0  0.958703151285455  0.48726172798411943  0.013958805688872485  1.0000
  C   C41       1.0  0.9403846467653878  0.40999806298096086  0.104625245375388  1.0000
  C   C42       1.0  0.09954333493800498  0.3812246271705035  0.10844236606693868  1.0000
  C   C43       1.0  0.11379837799813697  0.4602730041158836  0.028067638566277222  1.0000
  C   C44       1.0  0.039672468907383594  0.5196179455126425  0.9819367740899098  1.0000
  C   C45       1.0  0.9803191302469543  0.6556308495947152  0.8506180722566441  1.0000
  C   C46       1.0  0.013206018042510061  0.35614237013977146  0.15018852259058244  1.0000
  C   C47       1.0  0.41934570947775995  0.05565406196419794  0.4272456177711916  1.0000
  C   C48       1.0  0.5979104452830196  0.9321139700992802  0.5506845740392666  1.0000
  C   C49       1.0  0.36926278819227326  0.9903395996763108  0.4944610895696613  1.0000
  C   C50       1.0  0.6459583077274899  0.9994576289068887  0.4854440393878577  1.0000
  C   C51       1.0  0.5159967800441196  0.9518098496444978  0.5290758935416306  1.0000
  C   C52       1.0  0.5031489927585753  0.034043651502443546  0.4469690413659039  1.0000
  S   S1        1.0  0.08744250137924332  0.41491575210974213  0.4053623887844111  1.0000
  S   S2        1.0  0.8967611057345976  0.6068033025118923  0.5765644696755886  1.0000
  S   S3        1.0  0.41969916029075444  0.08263717808587509  0.10082054276697514  1.0000
  S   S4        1.0  0.5918869969583014  0.9112324486024194  0.9091287292654826  1.0000
  S   S5        1.0  0.8961240239382203  0.09006908925459105  0.9248272473714255  1.0000
  S   S6        1.0  0.08543708534028834  0.9051243077158021  0.087191328042323  1.0000
  S   S7        1.0  0.4227377123295214  0.5929006335592888  0.39908335687458424  1.0000
  S   S8        1.0  0.5893830185869432  0.4306147294547318  0.5840938643669206  1.0000
  S   S9        1.0  0.42411283362421454  0.9017629521650291  0.5810558562457474  1.0000
  S   S10       1.0  0.5929547000672172  0.0861530093007945  0.39701211886650617  1.0000
  N   N1        1.0  0.2025242914869024  0.4811521655562103  0.9920208553707186  1.0000
  N   N2        1.0  0.10761597659939093  0.652124830103183  0.8868664507802038  1.0000
  N   N3        1.0  0.8246086766564173  0.49714793568900734  0.9750214249375233  1.0000
  N   N4        1.0  0.8538834896096573  0.39133673027417615  0.14582593385740236  1.0000
  O   O1        1.0  0.9237369382954836  0.777599823455283  0.5535487297209587  1.0000
  O   O2        1.0  0.24507491925412236  0.05939206722643316  0.2721117826576389  1.0000
  O   O3        1.0  0.06890732415941868  0.2360012113126401  0.43729453976284566  1.0000
  O   O4        1.0  0.7579951779537948  0.9426072159291367  0.7305946676814725  1.0000
  O   O5        1.0  0.05371132266326133  0.7784208332075905  0.7338172404533196  1.0000
  O   O6        1.0  0.7650082194183199  0.07312055439600577  0.4235652285695224  1.0000
  O   O7        1.0  0.9338855174936425  0.23934501421921814  0.2730421988617736  1.0000
  O   O8        1.0  0.2383275679201091  0.9286635470342759  0.5680039042701921  1.0000
  O   O9        1.0  0.24065728551774881  0.7666976398580161  0.4246891260508934  1.0000
  O   O10       1.0  0.9227541389131844  0.0722524591801063  0.7424579649313829  1.0000
  O   O11       1.0  0.7626153975285135  0.2479504682949525  0.5666989487708637  1.0000
  O   O12       1.0  0.06793557520210693  0.9305647423452041  0.2610516609181203  1.0000
  O   O13       1.0  0.061118388750117165  0.9337358511093469  0.7388261149119302  1.0000
  O   O14       1.0  0.7662766960101663  0.24410552392176055  0.4283569797667044  1.0000
  O   O15       1.0  0.9311156828938961  0.07052399643512798  0.263750152816499  1.0000
  O   O16       1.0  0.23483135625609466  0.7692325965889281  0.5647015095239781  1.0000
  O   O17       1.0  0.9194127434003077  0.779941626346357  0.7255788475058937  1.0000
  O   O18       1.0  0.23983833686229866  0.06313634491146305  0.43415522886077457  1.0000
  O   O19       1.0  0.07478198563551801  0.23130926524737552  0.27465078887639294  1.0000
  O   O20       1.0  0.7629085082756787  0.9393808128852044  0.5581309309408982  1.0000
  O   O21       1.0  0.7581706913285798  0.0781168281765759  0.7371594400125405  1.0000
  O   O22       1.0  0.06660264952869005  0.7705592475101497  0.4188301829864046  1.0000
  O   O23       1.0  0.2440282280019448  0.9246750642308185  0.2650209348610134  1.0000
  O   O24       1.0  0.9264777611690247  0.2427633791187134  0.5725936832082044  1.0000
  O   O25       1.0  0.8158477847030736  0.06923237401351687  0.5569998004267447  1.0000
  O   O26       1.0  0.057999097827760714  0.0624747660954056  0.5638070613979381  1.0000
  O   O27       1.0  0.0637788718541827  0.05926003513300768  0.3202706192044786  1.0000
  O   O28       1.0  0.05695305922282776  0.8256691526362515  0.5536407897196794  1.0000
  O   O29       1.0  0.1331660003988377  0.956179135561392  0.4556185437176482  1.0000
  O   O30       1.0  0.9551670388149845  0.961040259992167  0.45065315259810046  1.0000
  O   O31       1.0  0.9556776790041182  0.1353632418308664  0.45876438542985926  1.0000
  O   O32       1.0  0.9503085850694505  0.9642040420386807  0.6298502118064206  1.0000
