data_image0
_chemical_formula_structural       Cd2H32C32N8O8
_chemical_formula_sum              "Cd2 H32 C32 N8 O8"
_cell_length_a       8.967193223293764
_cell_length_b       9.837490505292255
_cell_length_c       12.011523109882912
_cell_angle_alpha    79.06328811836804
_cell_angle_beta     86.54115595512054
_cell_angle_gamma    65.54150497568614

_space_group_name_H-M_alt    "P 1"
_space_group_IT_number       1

loop_
  _space_group_symop_operation_xyz
  'x, y, z'

loop_
  _atom_site_type_symbol
  _atom_site_label
  _atom_site_symmetry_multiplicity
  _atom_site_fract_x
  _atom_site_fract_y
  _atom_site_fract_z
  _atom_site_occupancy
  Cd  Cd1       1.0  0.8399660539578733  0.13421402254303422  0.38415616579106887  1.0000
  Cd  Cd2       1.0  0.16003672509038583  0.8657864179819016  0.6158439312723516  1.0000
  H   H1        1.0  0.03941123828509774  0.20872038660665024  0.18357410796416218  1.0000
  H   H2        1.0  0.9605927027491391  0.7912799562901469  0.8164334442717378  1.0000
  H   H3        1.0  0.2664960030906372  0.8460393167212955  0.9919806754518492  1.0000
  H   H4        1.0  0.7335122044151917  0.153966702204599  0.008016676646548102  1.0000
  H   H5        1.0  0.15138681360152637  0.6914096447478713  0.13263738707450307  1.0000
  H   H6        1.0  0.8486288132248275  0.3085894951722922  0.8673606592660761  1.0000
  H   H7        1.0  0.9844270824548146  0.8077729082306958  0.2922395014506378  1.0000
  H   H8        1.0  0.01557811027494439  0.19222190029020683  0.707757166523578  1.0000
  H   H9        1.0  0.1893669878707982  0.2539068943314504  0.016145411605819518  1.0000
  H   H10       1.0  0.8106317327736929  0.7461004022264606  0.9838513451921714  1.0000
  H   H11       1.0  0.43810188042340303  0.05908394983809021  0.7356795063564052  1.0000
  H   H12       1.0  0.5618970565370136  0.940909814215715  0.2643184329743562  1.0000
  H   H13       1.0  0.4389275728948904  0.4391813518307615  0.7786348440829585  1.0000
  H   H14       1.0  0.5610641428235824  0.5608136205575744  0.22136573824004566  1.0000
  H   H15       1.0  0.5972779827390939  0.5603819662055827  0.6502817110110045  1.0000
  H   H16       1.0  0.4027145337177205  0.43961635207588756  0.3497208321860726  1.0000
  H   H17       1.0  0.7585906783960825  0.4311155722937556  0.49343153905837783  1.0000
  H   H18       1.0  0.24140327220031566  0.5688872196211463  0.5065719351048444  1.0000
  H   H19       1.0  0.6142593110288247  0.07720193971865537  0.5835187601548384  1.0000
  H   H20       1.0  0.3857410433990225  0.9227963339567964  0.41647677526998456  1.0000
  H   H21       1.0  0.3799688195642474  0.3841737527033402  0.12638498737478443  1.0000
  H   H22       1.0  0.6200242088051411  0.6158233761979373  0.8736227060306093  1.0000
  H   H23       1.0  0.31558397841243396  0.2511945019174108  0.21764417258962251  1.0000
  H   H24       1.0  0.6844148537314755  0.7487969090276962  0.7823632817294737  1.0000
  H   H25       1.0  0.45698237407091097  0.19234321468954357  0.10750232796473821  1.0000
  H   H26       1.0  0.5430170998103138  0.8076493060017356  0.8925057638824756  1.0000
  H   H27       1.0  0.19230550173466546  0.38531952709614364  0.4501638191199859  1.0000
  H   H28       1.0  0.8076959422572829  0.6146866277457974  0.5498304878446733  1.0000
  H   H29       1.0  0.33585953438789323  0.1927642746451568  0.4550656507415455  1.0000
  H   H30       1.0  0.6641406386335332  0.8072396337132731  0.5449298823209503  1.0000
  H   H31       1.0  0.21988617065077423  0.24541880444530761  0.5763276395120229  1.0000
  H   H32       1.0  0.7801154281741562  0.7545895955406579  0.42366715708056557  1.0000
  C   C1        1.0  0.06782292967368161  0.0944823657203671  0.1685971626763347  1.0000
  C   C2        1.0  0.932178720732914  0.9055181004562554  0.8314021489587876  1.0000
  C   C3        1.0  0.1629583504653098  0.03962667840211509  0.07694842418843  1.0000
  C   C4        1.0  0.8370505503595143  0.9603725164606017  0.9230540804806111  1.0000
  C   C5        1.0  0.1943062125737355  0.8913302933901831  0.06317253743852551  1.0000
  C   C6        1.0  0.8057033049801705  0.10867006520103221  0.9368256024505044  1.0000
  C   C7        1.0  0.1303830578019998  0.8064677731483768  0.14051574294141742  1.0000
  C   C8        1.0  0.8696275842255264  0.19353256878820696  0.8594823486578848  1.0000
  C   C9        1.0  0.037028574435027016  0.8703741046162392  0.22960751925647577  1.0000
  C   C10       1.0  0.9629817745986955  0.12962171104405226  0.7703929279590371  1.0000
  C   C11       1.0  0.22560268401549172  0.13737023095387704  0.0016586113633393974  1.0000
  C   C12       1.0  0.7743958943001344  0.8626347934688354  0.9983401569607794  1.0000
  C   C13       1.0  0.44050213131551885  0.1576062032503813  0.765241357224518  1.0000
  C   C14       1.0  0.5594935745529028  0.8423898829025375  0.23475471544929152  1.0000
  C   C15       1.0  0.518147800335072  0.24503413664958626  0.6932986268821963  1.0000
  C   C16       1.0  0.48184757346198387  0.7549653300452306  0.3066977875193615  1.0000
  C   C17       1.0  0.5122732444872542  0.3843473624075244  0.7111803328279862  1.0000
  C   C18       1.0  0.487720220770001  0.6156487390605605  0.288817503861317  1.0000
  C   C19       1.0  0.6000058867088781  0.451980586256184  0.639870682390189  1.0000
  C   C20       1.0  0.3999895120964184  0.5480188264562997  0.36013073431950465  1.0000
  C   C21       1.0  0.6892025877989525  0.3815977888907796  0.5522704328901612  1.0000
  C   C22       1.0  0.31078973057928744  0.618406200061898  0.4477287730724911  1.0000
  C   C23       1.0  0.6085308654425249  0.1838417516970239  0.6016670612357943  1.0000
  C   C24       1.0  0.3914694889853154  0.8161565219784278  0.39832847418902884  1.0000
  C   C25       1.0  0.5637496204215466  0.22025758306212853  0.2496293205687934  1.0000
  C   C26       1.0  0.43625275821355575  0.7797281612301958  0.7503763238074157  1.0000
  C   C27       1.0  0.4182199260771711  0.2666912180881624  0.171230304737378  1.0000
  C   C28       1.0  0.5817779405941366  0.7333024456585591  0.8287785212174016  1.0000
  C   C29       1.0  0.0841009121801477  0.22889888101207131  0.4411818180576078  1.0000
  C   C30       1.0  0.9158960547575108  0.771107295463139  0.558816850656058  1.0000
  C   C31       1.0  0.21518317460746775  0.26676581289228807  0.48328037566759025  1.0000
  C   C32       1.0  0.7848166621745634  0.7332414850050952  0.516714665404635  1.0000
  N   N1        1.0  0.007298377526929299  0.011426930098942  0.2433743156013648  1.0000
  N   N2        1.0  0.9927048925937143  0.9885723660310718  0.7566267630802557  1.0000
  N   N3        1.0  0.32310363286015337  0.08817812597009579  0.9207184445544032  1.0000
  N   N4        1.0  0.6768948072946518  0.9118246173203629  0.0792831690138769  1.0000
  N   N5        1.0  0.37957101915125685  0.1921487395697028  0.8618641281197345  1.0000
  N   N6        1.0  0.6204288567083298  0.8078506515094971  0.1381329268409459  1.0000
  N   N7        1.0  0.6919218994329769  0.2503246248903466  0.5331058953440222  1.0000
  N   N8        1.0  0.3080753995760476  0.749678171042966  0.46689243164188815  1.0000
  O   O1        1.0  0.661082428067175  0.28599349478529484  0.22575831470500424  1.0000
  O   O2        1.0  0.33891107470243764  0.7140025257092901  0.774247025446499  1.0000
  O   O3        1.0  0.5860218846471241  0.1147864749481116  0.33598359907475833  1.0000
  O   O4        1.0  0.41397871370772804  0.8852060290885291  0.6640244444827348  1.0000
  O   O5        1.0  0.07597262665448308  0.10315931410791988  0.4888034934025428  1.0000
  O   O6        1.0  0.9240249986926586  0.8968479361252406  0.5111991477113307  1.0000
  O   O7        1.0  0.9859695482351685  0.3178249345760804  0.3617031850196924  1.0000
  O   O8        1.0  0.01403432194239686  0.682175561270661  0.6382901940098266  1.0000
