data_image0
_chemical_formula_structural       U2Cu2H22C34N4O18
_chemical_formula_sum              "U2 Cu2 H22 C34 N4 O18"
_cell_length_a       8.407920179755424
_cell_length_b       10.834030446915733
_cell_length_c       11.365496795199812
_cell_angle_alpha    101.53172327466324
_cell_angle_beta     100.3431728853546
_cell_angle_gamma    109.05748627544659

_space_group_name_H-M_alt    "P 1"
_space_group_IT_number       1

loop_
  _space_group_symop_operation_xyz
  'x, y, z'

loop_
  _atom_site_type_symbol
  _atom_site_label
  _atom_site_symmetry_multiplicity
  _atom_site_fract_x
  _atom_site_fract_y
  _atom_site_fract_z
  _atom_site_occupancy
  U   U1        1.0  0.29189356209086986  0.4628451901693326  0.06313315516834453  1.0000
  U   U2        1.0  0.7081042234171662  0.5371506324444583  0.9368647738912088  1.0000
  Cu  Cu1       1.0  0.1516656796437275  0.03888789377229781  0.230830977528413  1.0000
  Cu  Cu2       1.0  0.8482537609704791  0.9611008699722986  0.7691598372360672  1.0000
  H   H1        1.0  0.5340174719463988  0.2098614651704338  0.0017730640679900188  1.0000
  H   H2        1.0  0.4659863570677417  0.7901343544348692  0.9982256499408918  1.0000
  H   H3        1.0  0.756299364181089  0.2349354813544124  0.1870322209934585  1.0000
  H   H4        1.0  0.24370336722791575  0.7650705276161106  0.8129726704193416  1.0000
  H   H5        1.0  0.7784727161340613  0.40417451891094913  0.25200540747592026  1.0000
  H   H6        1.0  0.2215297156889592  0.5958334795440623  0.747990141454551  1.0000
  H   H7        1.0  0.10523369488879553  0.31028741120604053  0.322467883515074  1.0000
  H   H8        1.0  0.894744731383433  0.68970840893779  0.6775248892158457  1.0000
  H   H9        1.0  0.1266284950382684  0.44660656118195174  0.5360319230101283  1.0000
  H   H10       1.0  0.873365199800361  0.553388262746971  0.46396880558067  1.0000
  H   H11       1.0  0.20186303496104332  0.3616426163053391  0.7219978890588122  1.0000
  H   H12       1.0  0.7981470208835406  0.6383684935177102  0.2780133152323856  1.0000
  H   H13       1.0  0.34746397394973655  0.9718563850179439  0.7601861360152213  1.0000
  H   H14       1.0  0.6525459185867603  0.028139443676003902  0.2398160074337738  1.0000
  H   H15       1.0  0.2831745220645558  0.18327612807531327  0.8034549158606266  1.0000
  H   H16       1.0  0.7168354171764977  0.8167197288452928  0.19655339806684685  1.0000
  H   H17       1.0  0.3659823865956184  0.777854303518211  0.6017355147777295  1.0000
  H   H18       1.0  0.6340246978726042  0.2221333391972352  0.39825328230620016  1.0000
  H   H19       1.0  0.3236490378246516  0.6641365701717065  0.37448774304974103  1.0000
  H   H20       1.0  0.6763515872898082  0.33587034774745217  0.6254932894531889  1.0000
  H   H21       1.0  0.22930753322181377  0.7689297250087465  0.21261142049636567  1.0000
  H   H22       1.0  0.7706936153424663  0.23108328979832754  0.787369949451076  1.0000
  C   C1        1.0  0.4293094177041326  0.24046939436622247  0.1577806545829716  1.0000
  C   C2        1.0  0.570689583177206  0.7595264316782535  0.8422183129633821  1.0000
  C   C3        1.0  0.562994750264089  0.29405705953294614  0.08602461314288949  1.0000
  C   C4        1.0  0.43700472185506106  0.7059397710338686  0.91397196539954  1.0000
  C   C5        1.0  0.7474820288778121  0.3265389791609082  0.16346888693037442  1.0000
  C   C6        1.0  0.2525199061837073  0.6734629385357069  0.836529850543286  1.0000
  C   C7        1.0  0.886268750958827  0.3754917437514464  0.09714746217377263  1.0000
  C   C8        1.0  0.11372830375787404  0.624505088018772  0.9028488023889307  1.0000
  C   C9        1.0  0.05051606351521108  0.9554705625176257  0.9806713332692638  1.0000
  C   C10       1.0  0.9495020377060328  0.04452945061715501  0.01935906198428231  1.0000
  C   C11       1.0  0.1370544699841432  0.2772809004353078  0.40539416620336505  1.0000
  C   C12       1.0  0.8629409554990204  0.7226925442732083  0.5945974780804448  1.0000
  C   C13       1.0  0.14996263946235194  0.3522373863479943  0.5255548183351592  1.0000
  C   C14       1.0  0.8500382019949696  0.6477523093461244  0.47443707377099986  1.0000
  C   C15       1.0  0.19185240596001316  0.3064675245018621  0.6278356049493468  1.0000
  C   C16       1.0  0.808148863866343  0.6935405027815024  0.3721659574697398  1.0000
  C   C17       1.0  0.22315659549751385  0.1843891370536994  0.6103397502986282  1.0000
  C   C18       1.0  0.7768484944298565  0.8156117743154713  0.38966184714855256  1.0000
  C   C19       1.0  0.20759020853545002  0.11512224485629474  0.4869009265737319  1.0000
  C   C20       1.0  0.7924032577807908  0.8848847331263632  0.5130915049469635  1.0000
  C   C21       1.0  0.23920890332814077  0.9918896486651646  0.46124704980528713  1.0000
  C   C22       1.0  0.7607926155438631  0.008099005613502202  0.5387394548223269  1.0000
  C   C23       1.0  0.28970455476559936  0.9398706522142536  0.5600800486424546  1.0000
  C   C24       1.0  0.7102990613995958  0.06012720929647491  0.4399207823441387  1.0000
  C   C25       1.0  0.3060353439017049  0.0122159415927712  0.6848206123104957  1.0000
  C   C26       1.0  0.6939668373691604  0.9877839543603174  0.3151804156700919  1.0000
  C   C27       1.0  0.2721838786909245  0.12874151473131695  0.7089261175108916  1.0000
  C   C28       1.0  0.7278282372506767  0.8712614268683371  0.29107677585933805  1.0000
  C   C29       1.0  0.32100863466890683  0.8184703386505279  0.5275984782052134  1.0000
  C   C30       1.0  0.6789970804611444  0.18152443893762182  0.4723950053149863  1.0000
  C   C31       1.0  0.298989920479464  0.7566151256978558  0.40374322416888486  1.0000
  C   C32       1.0  0.7010039770421201  0.2433928326128765  0.5962415293663382  1.0000
  C   C33       1.0  0.24788197162396836  0.8154312782060842  0.3110180735466415  1.0000
  C   C34       1.0  0.7521133034143688  0.18459702477095874  0.6889724537905977  1.0000
  N   N1        1.0  0.1644230418370611  0.16138901459311233  0.38788248146475  1.0000
  N   N2        1.0  0.8355602537650954  0.8386017631992788  0.6121196522372473  1.0000
  N   N3        1.0  0.21987122235081116  0.9305343274549431  0.3398106861459099  1.0000
  N   N4        1.0  0.7801445695771889  0.0694838249182581  0.6601867535883841  1.0000
  O   O1        1.0  0.16350651264806262  0.33654549203323114  0.9154276108774937  1.0000
  O   O2        1.0  0.8364869626695394  0.6634513697687369  0.08457435319409266  1.0000
  O   O3        1.0  0.4150560915203486  0.5884294679441384  0.21185397493710675  1.0000
  O   O4        1.0  0.5849460830784423  0.4115704239765705  0.7881461715465575  1.0000
  O   O5        1.0  0.3071006606598985  0.2876723218101703  0.1512974823613931  1.0000
  O   O6        1.0  0.6928951586672624  0.7123244944322238  0.8486950992237325  1.0000
  O   O7        1.0  0.4399966739911322  0.15467891720679466  0.2149467415385615  1.0000
  O   O8        1.0  0.5600076918169918  0.8453230073511832  0.7850540729086859  1.0000
  O   O9        1.0  0.043729234109704994  0.40333520356683294  0.1527804931200265  1.0000
  O   O10       1.0  0.956270224665289  0.5966616189352296  0.847214322428556  1.0000
  O   O11       1.0  0.8373447854796011  0.3862769030546502  0.9876717588293715  1.0000
  O   O12       1.0  0.16265590201285832  0.6137199309428497  0.012325858199851351  1.0000
  O   O13       1.0  0.5416641375824014  0.40710575451479514  0.051224375104489205  1.0000
  O   O14       1.0  0.4583324058640061  0.5928900485387987  0.9487689894805769  1.0000
  O   O15       1.0  0.14469449101171267  0.931318754067384  0.06628098383898624  1.0000
  O   O16       1.0  0.8552889590477619  0.06870682302447761  0.9337770023860301  1.0000
  O   O17       1.0  0.03441434960981148  0.9130553311524637  0.8655680350227755  1.0000
  O   O18       1.0  0.9656457655695972  0.0869365342266732  0.1344680449446329  1.0000
