data_image0
_chemical_formula_structural       Zn2H30C42S2N6O8
_chemical_formula_sum              "Zn2 H30 C42 S2 N6 O8"
_cell_length_a       5.112759109135
_cell_length_b       12.277876293408944
_cell_length_c       15.26081647401797
_cell_angle_alpha    90.00009292316969
_cell_angle_beta     89.99989263562611
_cell_angle_gamma    95.16551530819993

_space_group_name_H-M_alt    "P 1"
_space_group_IT_number       1

loop_
  _space_group_symop_operation_xyz
  'x, y, z'

loop_
  _atom_site_type_symbol
  _atom_site_label
  _atom_site_symmetry_multiplicity
  _atom_site_fract_x
  _atom_site_fract_y
  _atom_site_fract_z
  _atom_site_occupancy
  Zn  Zn1       1.0  0.7647073914225115  0.7444515489551549  0.05094989496262061  1.0000
  Zn  Zn2       1.0  0.23529988311621955  0.25554478989200646  0.5509444712130148  1.0000
  H   H1        1.0  0.058591441418329296  0.5310445290740515  0.0220332956639595  1.0000
  H   H2        1.0  0.9414043211494486  0.46895999550213213  0.5220338892869949  1.0000
  H   H3        1.0  0.1477167158633321  0.3655932888662291  0.11274324339866133  1.0000
  H   H4        1.0  0.8522732294529263  0.6344064652873128  0.6127506695831572  1.0000
  H   H5        1.0  0.8839076728584769  0.32868407148487216  0.2525934226316907  1.0000
  H   H6        1.0  0.11610360251672344  0.6713117021288324  0.7525965346068519  1.0000
  H   H7        1.0  0.5411954499179927  0.4486579000410344  0.2902068866443912  1.0000
  H   H8        1.0  0.45882663641803834  0.5513436151148665  0.7902011955220446  1.0000
  H   H9        1.0  0.2103439125909503  0.5580592307842236  0.2966123120133517  1.0000
  H   H10       1.0  0.7896371040986734  0.4419342501500266  0.7966122534868066  1.0000
  H   H11       1.0  0.1454852295060149  0.9051612576718495  0.26603231029686475  1.0000
  H   H12       1.0  0.8545036648811363  0.0948313371788529  0.7660336663677542  1.0000
  H   H13       1.0  0.41858464048247157  0.05071141222963858  0.24149164377423926  1.0000
  H   H14       1.0  0.5814038531577168  0.9492868805335916  0.7414950453431788  1.0000
  H   H15       1.0  0.6875338396734845  0.20708987818989028  0.17764389521933316  1.0000
  H   H16       1.0  0.31245322816905485  0.7929083349504535  0.6776458254352351  1.0000
  H   H17       1.0  0.0022559833127786945  0.17490095596932773  0.05434388405927142  1.0000
  H   H18       1.0  0.9977493087448366  0.8250953942100309  0.5543423860869724  1.0000
  H   H19       1.0  0.018775937847834677  0.9818969525094654  0.9989872737889203  1.0000
  H   H20       1.0  0.9812557856118572  0.018094984667961  0.4989744832233357  1.0000
  H   H21       1.0  0.870395579115211  0.8983445364123522  0.35329030849903387  1.0000
  H   H22       1.0  0.1295898166103697  0.10166128094238047  0.8532866456548762  1.0000
  H   H23       1.0  0.5102881514517107  0.8855452702739511  0.45840858048894273  1.0000
  H   H24       1.0  0.4897176792132569  0.1144597973638284  0.9583950024571666  1.0000
  H   H25       1.0  0.34020684503359894  0.7043359634559466  0.5205860047854147  1.0000
  H   H26       1.0  0.6598010416396605  0.29567015425151766  0.020569802515197508  1.0000
  H   H27       1.0  0.5488325824723644  0.5363422083288042  0.4762939818892492  1.0000
  H   H28       1.0  0.45116586138964015  0.46366536376248035  0.9762901243975437  1.0000
  H   H29       1.0  0.9179922939116097  0.5480062007091815  0.3768864113280444  1.0000
  H   H30       1.0  0.0819896016153692  0.4519939309378954  0.8768878865045908  1.0000
  C   C1        1.0  0.9513786151504957  0.5088017652242484  0.08229204666233872  1.0000
  C   C2        1.0  0.048619785607797894  0.491199556313468  0.5822916259280648  1.0000
  C   C3        1.0  0.9954670978381656  0.4171351880886575  0.13249177418934727  1.0000
  C   C4        1.0  0.004532069998234106  0.5828629235465426  0.6324947833037913  1.0000
  C   C5        1.0  0.8474904983705613  0.395353846700324  0.20826688613161082  1.0000
  C   C6        1.0  0.15251643841532564  0.6046467937712945  0.7082672641100773  1.0000
  C   C7        1.0  0.6554871019128682  0.4644392597069781  0.23057114743360074  1.0000
  C   C8        1.0  0.3445255133525436  0.5355613907133543  0.7305661209405302  1.0000
  C   C9        1.0  0.6303343132945686  0.5571176004570546  0.17916768152138476  1.0000
  C   C10       1.0  0.36967424000745547  0.4428805406125135  0.6791625055479431  1.0000
  C   C11       1.0  0.4690235408885569  0.646125030038938  0.20524042823922886  1.0000
  C   C12       1.0  0.5309795373635708  0.35386743540856  0.7052357237135428  1.0000
  C   C13       1.0  0.2673017274255542  0.6371222075462909  0.2669304661305035  1.0000
  C   C14       1.0  0.732678738182109  0.3628761465753738  0.7669257161979319  1.0000
  C   C15       1.0  0.14111436333264749  0.7303093858850145  0.2900354797749004  1.0000
  C   C16       1.0  0.8588778301121777  0.26968977682521705  0.7900351368326357  1.0000
  C   C17       1.0  0.2317423041549205  0.8298684636137421  0.25015628724927563  1.0000
  C   C18       1.0  0.7682425948947581  0.17013148987576432  0.7501531971771558  1.0000
  C   C19       1.0  0.43769781401189783  0.8330139045104872  0.19032066665207037  1.0000
  C   C20       1.0  0.5622916820629342  0.16698677233144105  0.6903137005803759  1.0000
  C   C21       1.0  0.5698231809866242  0.9337827642432752  0.15165503443827086  1.0000
  C   C22       1.0  0.43017211242357695  0.06621620455184998  0.6516512290165297  1.0000
  C   C23       1.0  0.5456093538936032  0.03787168641375869  0.18586811693388233  1.0000
  C   C24       1.0  0.45437940731273585  0.9621257133445552  0.6858689543859884  1.0000
  C   C25       1.0  0.7011502473641825  0.12593386216443034  0.1505607453335358  1.0000
  C   C26       1.0  0.29883861321064126  0.8740626720703372  0.6505614934283063  1.0000
  C   C27       1.0  0.8754767854724077  0.10821440522447999  0.08288608326346045  1.0000
  C   C28       1.0  0.12452163549989581  0.8917787327110811  0.5828842886057829  1.0000
  C   C29       1.0  0.8865586913024116  0.0018888894226307988  0.05161703094645991  1.0000
  C   C30       1.0  0.11345953222085108  0.9981041388279476  0.5516121261934404  1.0000
  C   C31       1.0  0.9257864045407586  0.7242523361465556  0.3550495747391907  1.0000
  C   C32       1.0  0.0741999663610144  0.2757493880170685  0.855047505617762  1.0000
  C   C33       1.0  0.8054142192023335  0.8181945194921878  0.38012433855115557  1.0000
  C   C34       1.0  0.1945697968402911  0.1818064275575608  0.8801188136951981  1.0000
  C   C35       1.0  0.5992557989798399  0.8114364018508123  0.4400222073374709  1.0000
  C   C36       1.0  0.40074451369017783  0.18856947890507306  0.9400153217782975  1.0000
  C   C37       1.0  0.5053572904851222  0.7104088735722057  0.4753269388588493  1.0000
  C   C38       1.0  0.4946572073132953  0.28959209442651695  0.9753195253520064  1.0000
  C   C39       1.0  0.622017138605422  0.6164835833452926  0.4510253976679267  1.0000
  C   C40       1.0  0.3779778237715021  0.38351660140482835  0.9510181624172491  1.0000
  C   C41       1.0  0.8326890525785942  0.6236443578812043  0.39285286216540544  1.0000
  C   C42       1.0  0.16729034545564758  0.3763623509680087  0.8928476436071977  1.0000
  S   S1        1.0  0.2512363389901394  0.7384859873168703  0.9320581307698463  1.0000
  S   S2        1.0  0.748771857071418  0.2615198557131037  0.4320536449347402  1.0000
  N   N1        1.0  0.7768866668034703  0.5781680844554841  0.10624431704061274  1.0000
  N   N2        1.0  0.2231117286014808  0.42183408724488186  0.6062411176380353  1.0000
  N   N3        1.0  0.5469362387663921  0.7421374921668968  0.16767238250252356  1.0000
  N   N4        1.0  0.4530759325797574  0.2578589843443808  0.6676688641896436  1.0000
  N   N5        1.0  0.7372276413314155  0.9171994249954878  0.08543508017067583  1.0000
  N   N6        1.0  0.26278697226115355  0.08279611577573577  0.5854313493128063  1.0000
  O   O1        1.0  0.539045779472339  0.7242096400204756  0.9476306388786216  1.0000
  O   O2        1.0  0.46097577532415085  0.27579535913421427  0.4476256041465661  1.0000
  O   O3        1.0  0.22657050050447938  0.8249040920139235  0.8671154106059833  1.0000
  O   O4        1.0  0.7734425026711519  0.1751114696300107  0.3671042323104103  1.0000
  O   O5        1.0  0.1414800272947332  0.7718580929374638  0.020866427009004006  1.0000
  O   O6        1.0  0.8585247702348723  0.2281349408896601  0.520858812462457  1.0000
  O   O7        1.0  0.1177298703152445  0.6319363523303351  0.9058504276531071  1.0000
  O   O8        1.0  0.8822851774573761  0.3680727061089542  0.4058578609025362  1.0000
