data_image0
_chemical_formula_structural       Cd2H20C28S4N16
_chemical_formula_sum              "Cd2 H20 C28 S4 N16"
_cell_length_a       7.270227737785906
_cell_length_b       9.04115624544443
_cell_length_c       13.1662298542859
_cell_angle_alpha    110.07533696098793
_cell_angle_beta     101.92002199481104
_cell_angle_gamma    89.99738963505393

_space_group_name_H-M_alt    "P 1"
_space_group_IT_number       1

loop_
  _space_group_symop_operation_xyz
  'x, y, z'

loop_
  _atom_site_type_symbol
  _atom_site_label
  _atom_site_symmetry_multiplicity
  _atom_site_fract_x
  _atom_site_fract_y
  _atom_site_fract_z
  _atom_site_occupancy
  Cd  Cd1       1.0  0.7499597739567109  0.6047357023829038  0.9999363459650893  1.0000
  Cd  Cd2       1.0  0.2500436485803093  0.39526026985286217  6.319136952728319e-05  1.0000
  H   H1        1.0  0.18735274447408307  0.9203910768684126  0.8520353677102646  1.0000
  H   H2        1.0  0.31252584067063793  0.06894188346333151  0.1477834761829868  1.0000
  H   H3        1.0  0.8126526283734351  0.0796108007521923  0.1479657967527572  1.0000
  H   H4        1.0  0.6874723081712445  0.9310576450636178  0.8522132541779044  1.0000
  H   H5        1.0  0.10903830292863861  0.1311492762675002  0.7714241482734039  1.0000
  H   H6        1.0  0.39128098239604003  0.36023841065412654  0.22853099699748466  1.0000
  H   H7        1.0  0.8909600354726238  0.8688525992108538  0.22857695839351785  1.0000
  H   H8        1.0  0.6087170462309857  0.6397599306491201  0.7714669568674279  1.0000
  H   H9        1.0  0.911905117256879  0.06485113633058148  0.5829359315408666  1.0000
  H   H10       1.0  0.5882762060869239  0.4821195648190296  0.417068041142322  1.0000
  H   H11       1.0  0.08809017484932723  0.935148368120622  0.4170665376112481  1.0000
  H   H12       1.0  0.4117181441631388  0.517884679544224  0.5829316452433203  1.0000
  H   H13       1.0  0.7955506849915535  0.7839672712666329  0.4696583366723601  1.0000
  H   H14       1.0  0.7038990716218835  0.3142677526242322  0.5303558920938443  1.0000
  H   H15       1.0  0.20444471037272646  0.21603341124293962  0.5303451834137576  1.0000
  H   H16       1.0  0.2960920145124462  0.6857317584849056  0.4696445712009947  1.0000
  H   H17       1.0  0.8709506857670989  0.573771998695392  0.5501640555413871  1.0000
  H   H18       1.0  0.6282541239999587  0.0236600437810353  0.4496840125347176  1.0000
  H   H19       1.0  0.12904882361550563  0.4262275052080895  0.4498389031759941  1.0000
  H   H20       1.0  0.3717440474509673  0.976339496966361  0.5503096852421477  1.0000
  C   C1        1.0  0.0712738733668701  0.6144963015805159  0.8552871388730878  1.0000
  C   C2        1.0  0.4287842547529621  0.7594513320074797  0.1446308882241283  1.0000
  C   C3        1.0  0.9287257618828522  0.3855043926017814  0.1447138381942636  1.0000
  C   C4        1.0  0.5712206937577237  0.24054582726942195  0.8553675887948912  1.0000
  C   C5        1.0  0.027286141746181214  0.7369569191552543  0.7065285085471302  1.0000
  C   C6        1.0  0.4722413026313107  0.030736062159419902  0.29328940642329115  1.0000
  C   C7        1.0  0.9727163106733981  0.2630437777170158  0.2934720367510478  1.0000
  C   C8        1.0  0.527755560666634  0.9692646537738058  0.7067059372451681  1.0000
  C   C9        1.0  0.0963812963370643  0.8924347976740706  0.7700057927756417  1.0000
  C   C10       1.0  0.40345693798837345  0.1228686346996852  0.22984485074850614  1.0000
  C   C11       1.0  0.903624070858193  0.1075670768914208  0.22999612983338835  1.0000
  C   C12       1.0  0.5965436956400935  0.8771273501216755  0.7701513276252427  1.0000
  C   C13       1.0  0.05312994325772279  0.009613335254179803  0.7244736810688435  1.0000
  C   C14       1.0  0.446925557796689  0.2855435235693804  0.2754608655780828  1.0000
  C   C15       1.0  0.9468696919919994  0.9903873589281242  0.27552729599850057  1.0000
  C   C16       1.0  0.5530744324453494  0.7144607292289251  0.7245371991232188  1.0000
  C   C17       1.0  0.9441347393471418  0.9716315347613501  0.6171396030128092  1.0000
  C   C18       1.0  0.5558389623008537  0.3547212612457642  0.38283704508539523  1.0000
  C   C19       1.0  0.0558620674282011  0.0283691506207617  0.38286332211572466  1.0000
  C   C20       1.0  0.4441561345937118  0.6452758931989138  0.6171618059066971  1.0000
  C   C21       1.0  0.8785322044111155  0.8150690085010481  0.5540840375464384  1.0000
  C   C22       1.0  0.6210229318393488  0.2610900135581105  0.4458741652513681  1.0000
  C   C23       1.0  0.12146579030235224  0.18492931447152475  0.44591846519451644  1.0000
  C   C24       1.0  0.3789701385190368  0.7389154212665404  0.55412337629582  1.0000
  C   C25       1.0  0.9198496747523703  0.6964631619373305  0.5985425545376302  1.0000
  C   C26       1.0  0.579534731036226  0.09807098070501752  0.40133158788862733  1.0000
  C   C27       1.0  0.08015005810316471  0.3035387072482223  0.4014602316097323  1.0000
  C   C28       1.0  0.42046179422617774  0.9019261857775404  0.5986643937078497  1.0000
  S   S1        1.0  0.997741659984314  0.7580687479385162  0.9592603327734108  1.0000
  S   S2        1.0  0.5026101444063046  0.7990627301198289  0.04075290268036015  1.0000
  S   S3        1.0  0.0022592664616069903  0.24193076189261822  0.040741272840371275  1.0000
  S   S4        1.0  0.4973962042109223  0.20093442591938532  0.9592464956730851  1.0000
  N   N1        1.0  0.0725836070233754  0.616099919440984  0.7519421104187811  1.0000
  N   N2        1.0  0.4269156354018478  0.8644886441822521  0.24786145203547963  1.0000
  N   N3        1.0  0.9274189486542853  0.3839019554896481  0.248059485813414  1.0000
  N   N4        1.0  0.5730852103950356  0.1355096998109602  0.7521360700602668  1.0000
  N   N5        1.0  0.1351631928298147  0.4780907081846236  0.6913696595647351  1.0000
  N   N6        1.0  0.3641203889665405  0.7871038952714073  0.3084042741425037  1.0000
  N   N7        1.0  0.8648407629543798  0.5219111635083281  0.3086328580018786  1.0000
  N   N8        1.0  0.6358804568303427  0.21289444872180502  0.6915932479532428  1.0000
  N   N9        1.0  0.17388416329376352  0.3956163849965505  0.7548362256926493  1.0000
  N   N10       1.0  0.32581501567710797  0.6411023112481261  0.24503210058519898  1.0000
  N   N11       1.0  0.8261197924904381  0.6043854866964012  0.24516629187397135  1.0000
  N   N12       1.0  0.6741900360916517  0.35889602608714455  0.7549674273678235  1.0000
  N   N13       1.0  0.13845786014686473  0.4754794517081252  0.8559578193595172  1.0000
  N   N14       1.0  0.3617064081986215  0.6197536443418913  0.14399172232000274  1.0000
  N   N15       1.0  0.8615433930300753  0.5245236014634571  0.1440446646182564  1.0000
  N   N16       1.0  0.6383013461774  0.3802435115147489  0.8560078392218671  1.0000
