data_image0
_chemical_formula_structural       Cu4H36C48I4N4O4
_chemical_formula_sum              "Cu4 H36 C48 I4 N4 O4"
_cell_length_a       4.053396231632373
_cell_length_b       11.18799126777382
_cell_length_c       24.28870498577937
_cell_angle_alpha    90.00014048903185
_cell_angle_beta     90.00088979427485
_cell_angle_gamma    96.642577442931

_space_group_name_H-M_alt    "P 1"
_space_group_IT_number       1

loop_
  _space_group_symop_operation_xyz
  'x, y, z'

loop_
  _atom_site_type_symbol
  _atom_site_label
  _atom_site_symmetry_multiplicity
  _atom_site_fract_x
  _atom_site_fract_y
  _atom_site_fract_z
  _atom_site_occupancy
  Cu  Cu1       1.0  0.7382608775842884  0.9685190869425  0.4665484033014593  1.0000
  Cu  Cu2       1.0  0.76174104191103  0.5314757567812407  0.9665501454884975  1.0000
  Cu  Cu3       1.0  0.261737075386371  0.031473173917660795  0.5334532542109613  1.0000
  Cu  Cu4       1.0  0.2382686652298602  0.4685228307511693  0.0334502769007656  1.0000
  H   H1        1.0  0.005184158566159104  0.8751381880470104  0.36054915462993625  1.0000
  H   H2        1.0  0.4948205142951635  0.6248701449974591  0.8605536675080714  1.0000
  H   H3        1.0  0.9947920522016033  0.12486390123424232  0.6394492091475925  1.0000
  H   H4        1.0  0.5052069583061751  0.3751383824685277  0.1394471666239099  1.0000
  H   H5        1.0  0.028630605520959338  0.9348555612556878  0.2628877746568818  1.0000
  H   H6        1.0  0.4713512669274849  0.5651563132728086  0.7628921595954382  1.0000
  H   H7        1.0  0.971336801131315  0.06515009946657808  0.7371101773971632  1.0000
  H   H8        1.0  0.5286523180963342  0.43485484399820246  0.2371090862208831  1.0000
  H   H9        1.0  0.5016540993057816  0.23617209773575357  0.3064835731639164  1.0000
  H   H10       1.0  0.9983098685923011  0.26382621405497986  0.806484545166427  1.0000
  H   H11       1.0  0.49832844637923296  0.7638264131379698  0.6935156140478824  1.0000
  H   H12       1.0  0.00167842007102344  0.7361750102393144  0.1935138186263643  1.0000
  H   H13       1.0  0.4794653199312791  0.1582008083167423  0.4032107654930073  1.0000
  H   H14       1.0  0.020512446376024215  0.3417849992129547  0.9032126375126168  1.0000
  H   H15       1.0  0.5205071361409354  0.8417886833579189  0.5967880099865894  1.0000
  H   H16       1.0  0.9794756296443978  0.6582072337657079  0.096787373130887  1.0000
  H   H17       1.0  0.5280994806053271  0.9096550104288422  0.2031552970109303  1.0000
  H   H18       1.0  0.9719040687146503  0.590352723055389  0.7031572412578697  1.0000
  H   H19       1.0  0.47190442808484084  0.09034895517716988  0.7968459488017885  1.0000
  H   H20       1.0  0.028094364896276095  0.4096494289302797  0.29683865226463985  1.0000
  H   H21       1.0  0.5712161365848515  0.7902833000032956  0.1178440275437396  1.0000
  H   H22       1.0  0.9287850089273347  0.7097263468603642  0.6178435225830654  1.0000
  H   H23       1.0  0.42878830843422827  0.20972246525528956  0.8821559831286762  1.0000
  H   H24       1.0  0.0712170220317248  0.2902713199047113  0.38214990065759485  1.0000
  H   H25       1.0  0.9267548134760164  0.8717353142115272  0.0408980710782387  1.0000
  H   H26       1.0  0.5732499891371888  0.6282691467488845  0.5408944894942351  1.0000
  H   H27       1.0  0.07327620121728272  0.1282768195492707  0.9591048216303975  1.0000
  H   H28       1.0  0.42674576241635254  0.37172400693340524  0.4590989337357172  1.0000
  H   H29       1.0  0.2172788235332135  0.0814948411562639  0.04599907599729391  1.0000
  H   H30       1.0  0.28275801381673205  0.4185022646032408  0.5459934831781369  1.0000
  H   H31       1.0  0.7827549842016098  0.9185101079234242  0.9540071104230137  1.0000
  H   H32       1.0  0.7172456820732691  0.5814927096717  0.4540061157732609  1.0000
  H   H33       1.0  0.1411336179114997  0.2072376567545433  0.1282467420610587  1.0000
  H   H34       1.0  0.35885996942253945  0.2927708649821881  0.628247382811395  1.0000
  H   H35       1.0  0.8588666934501958  0.7927707940739952  0.8717573857475145  1.0000
  H   H36       1.0  0.6411329895219565  0.7072294734236805  0.3717518044149982  1.0000
  C   C1        1.0  0.8864779283605131  0.9526483363746222  0.3469069681430668  1.0000
  C   C2        1.0  0.6135341417932806  0.5473598314255453  0.8469099885205509  1.0000
  C   C3        1.0  0.11352377920741219  0.0473565220824739  0.6530922190972603  1.0000
  C   C4        1.0  0.3864821129470783  0.4526441690188319  0.1530904338802728  1.0000
  C   C5        1.0  0.9000865185346213  0.9874140575351474  0.2918443743249171  1.0000
  C   C6        1.0  0.5999208298009934  0.5125953935502708  0.7918460851959352  1.0000
  C   C7        1.0  0.09989189327676228  0.012587138887298002  0.70815440116899  1.0000
  C   C8        1.0  0.40009102285213066  0.4874103926117075  0.2081535137721389  1.0000
  C   C9        1.0  0.7637638328049619  0.09161888463730608  0.27607751963192584  1.0000
  C   C10       1.0  0.7362005052350398  0.4083818484606779  0.7760771464839991  1.0000
  C   C11       1.0  0.23618307117160953  0.9083759293730652  0.7239241378153735  1.0000
  C   C12       1.0  0.26379299003836815  0.591620289597749  0.22392080560208433  1.0000
  C   C13       1.0  0.6101717644267809  0.1544803044026466  0.3168831529971996  1.0000
  C   C14       1.0  0.8898044144002311  0.3455226319322334  0.8168839334445083  1.0000
  C   C15       1.0  0.38979269224937957  0.8455154582140878  0.6831180927595072  1.0000
  C   C16       1.0  0.11019128199542645  0.6544786132751169  0.1831160772139739  1.0000
  C   C17       1.0  0.599041140255963  0.11215228006506811  0.3704981593764316  1.0000
  C   C18       1.0  0.900945688857149  0.3878448811707143  0.8705006630457319  1.0000
  C   C19       1.0  0.40095101414602413  0.8878453588571207  0.6295018512754069  1.0000
  C   C20       1.0  0.09905360500459182  0.6121518788276249  0.1294993476149315  1.0000
  C   C21       1.0  0.80208386220027  0.14508581352286853  0.2196089651583293  1.0000
  C   C22       1.0  0.6978975745829104  0.354915352567744  0.7196084323322509  1.0000
  C   C23       1.0  0.19788880679005422  0.8549126694944604  0.7803939274666192  1.0000
  C   C24       1.0  0.302102791975976  0.6450850067395918  0.2803899314758027  1.0000
  C   C25       1.0  0.836534977274212  0.06652208434509528  0.17136143706360227  1.0000
  C   C26       1.0  0.6634827006385464  0.4334832399319311  0.6713613140370853  1.0000
  C   C27       1.0  0.16348100935083915  0.9334810162778238  0.828640632192389  1.0000
  C   C28       1.0  0.3365245371861576  0.5665153406223807  0.3286370497789335  1.0000
  C   C29       1.0  0.6785440755142673  0.9478062994347737  0.16877327792609984  1.0000
  C   C30       1.0  0.8214754076891778  0.5521993676909389  0.668771081859944  1.0000
  C   C31       1.0  0.32147878247488393  0.052195022444770686  0.8312308499078824  1.0000
  C   C32       1.0  0.17853456740976273  0.44780011964747507  0.33122439996211744  1.0000
  C   C33       1.0  0.7043836245552839  0.8802723639042964  0.1210988506671811  1.0000
  C   C34       1.0  0.79564612131783  0.6197328979481042  0.6210962510538138  1.0000
  C   C35       1.0  0.2956469093011691  0.1197298787116878  0.8789056888913223  1.0000
  C   C36       1.0  0.2043589153059955  0.3802665754495606  0.3788984073337859  1.0000
  C   C37       1.0  0.899331184668391  0.9274500178292868  0.07708649235841142  1.0000
  C   C38       1.0  0.6007036986502499  0.5725530594863811  0.5770812731506467  1.0000
  C   C39       1.0  0.10068753954542589  0.07255398960862888  0.9229192823276975  1.0000
  C   C40       1.0  0.3993123430540422  0.4274419496037467  0.4229125618207945  1.0000
  C   C41       1.0  0.0601733992962679  0.0446778555187706  0.079777926128088  1.0000
  C   C42       1.0  0.43985512226236506  0.455322231661988  0.5797731957945303  1.0000
  C   C43       1.0  0.9398568664448773  0.9553234872757553  0.9202282602855831  1.0000
  C   C44       1.0  0.5601554448148107  0.544670963852198  0.4202247563088122  1.0000
  C   C45       1.0  0.022748747885231107  0.11486282111999911  0.1261056232572813  1.0000
  C   C46       1.0  0.4772547798342758  0.38514660821942936  0.6261017354109981  1.0000
  C   C47       1.0  0.9772737865161999  0.8851456924322604  0.8739001514363167  1.0000
  C   C48       1.0  0.5227524579511069  0.6148519723310245  0.3738958049770105  1.0000
  I   I1        1.0  0.18543433799479203  0.8201090406335823  0.4829008799173025  1.0000
  I   I2        1.0  0.3145637166886601  0.6798887001937571  0.9829012789419168  1.0000
  I   I3        1.0  0.814551537040991  0.17988408520967877  0.5170999541518384  1.0000
  I   I4        1.0  0.6854328397612405  0.3201071530069584  0.0170987317146682  1.0000
  N   N1        1.0  0.7397654428952619  0.013567026430479199  0.3860310219601005  1.0000
  N   N2        1.0  0.7602214731165517  0.4864338728225163  0.8860345041220369  1.0000
  N   N3        1.0  0.2602190355607873  0.9864296917475383  0.6139669301111965  1.0000
  N   N4        1.0  0.23977368687155828  0.5135655727245448  0.1139650948207347  1.0000
  O   O1        1.0  0.8118553229088263  0.2558215336397041  0.2145033744411222  1.0000
  O   O2        1.0  0.6881171458455099  0.24417596434499697  0.7145018688614541  1.0000
  O   O3        1.0  0.18812641844991154  0.7441742777715772  0.7855011650501851  1.0000
  O   O4        1.0  0.3118689972662664  0.7558180613158568  0.2854964949245158  1.0000
