data_image0
_chemical_formula_structural       Ag4H88C64S8N4O12
_chemical_formula_sum              "Ag4 H88 C64 S8 N4 O12"
_cell_length_a       8.754312106014536
_cell_length_b       12.311079024048711
_cell_length_c       19.74447859510907
_cell_angle_alpha    90.00031993184149
_cell_angle_beta     90.00020879581633
_cell_angle_gamma    90.00001843328235

_space_group_name_H-M_alt    "P 1"
_space_group_IT_number       1

loop_
  _space_group_symop_operation_xyz
  'x, y, z'

loop_
  _atom_site_type_symbol
  _atom_site_label
  _atom_site_symmetry_multiplicity
  _atom_site_fract_x
  _atom_site_fract_y
  _atom_site_fract_z
  _atom_site_occupancy
  Ag  Ag1       1.0  0.7356079905899051  0.6550402207515377  0.0167005847339752  1.0000
  Ag  Ag2       1.0  0.26438734764052185  0.34495828274785373  0.5166996980438725  1.0000
  Ag  Ag3       1.0  0.7643888966124521  0.155044034664428  0.5167007809445539  1.0000
  Ag  Ag4       1.0  0.23561101079878444  0.84495365656349  0.01670051477696431  1.0000
  H   H1        1.0  0.4784719069675986  0.4785411867669254  0.870592964319215  1.0000
  H   H2        1.0  0.5215252080603179  0.5214572184101769  0.3705940514830104  1.0000
  H   H3        1.0  0.021526005843341495  0.9785421989362176  0.3705929299215924  1.0000
  H   H4        1.0  0.9784745360698467  0.0214586430729753  0.8705945923583657  1.0000
  H   H5        1.0  0.440855358618343  0.5422069545599726  0.9499646020981131  1.0000
  H   H6        1.0  0.5591469802814616  0.4577929695527914  0.44996502040577724  1.0000
  H   H7        1.0  0.059147575006747395  0.0422070835319914  0.44996389023535244  1.0000
  H   H8        1.0  0.9408547638930571  0.9577928405807725  0.949965732268538  1.0000
  H   H9        1.0  0.357194690338595  0.708069503113407  0.8962606974646832  1.0000
  H   H10       1.0  0.6428083478660156  0.2919299428495635  0.3962581372687737  1.0000
  H   H11       1.0  0.1428101620793853  0.20806802611915745  0.3962586008796336  1.0000
  H   H12       1.0  0.8571905915286492  0.7919322321110303  0.8962582079705896  1.0000
  H   H13       1.0  0.12337255544416338  0.6454955338477221  0.8458883427382275  1.0000
  H   H14       1.0  0.8766277826848992  0.35450752503163585  0.3458878975353414  1.0000
  H   H15       1.0  0.37662842547958064  0.14549167199413662  0.3458876355336998  1.0000
  H   H16       1.0  0.6233719126426535  0.8545089500490093  0.8458870853234899  1.0000
  H   H17       1.0  0.1746640875934631  0.5506722875780882  0.9088708890240157  1.0000
  H   H18       1.0  0.8253356277539298  0.4493288952190755  0.4088706933049835  1.0000
  H   H19       1.0  0.325337368712212  0.0506700388759285  0.4088695927742094  1.0000
  H   H20       1.0  0.6746623466306261  0.9493295193637508  0.9088709766105368  1.0000
  H   H21       1.0  0.2755134332373999  0.4228667107760132  0.8232260436836542  1.0000
  H   H22       1.0  0.7244855756734835  0.577135334066618  0.3232271461102343  1.0000
  H   H23       1.0  0.22448520524418564  0.9228637066606497  0.323224310153627  1.0000
  H   H24       1.0  0.7755126613681256  0.07713752590085927  0.823227866696513  1.0000
  H   H25       1.0  0.0865744701960551  0.4567092884446424  0.8032735374123519  1.0000
  H   H26       1.0  0.9134220895445891  0.543292578752883  0.3032738125664167  1.0000
  H   H27       1.0  0.4134228771656439  0.9567063263223262  0.30327261453795273  1.0000
  H   H28       1.0  0.586574824866929  0.043294728596585196  0.8032742289696132  1.0000
  H   H29       1.0  0.17610830165084929  0.5871345193392797  0.7157212599708062  1.0000
  H   H30       1.0  0.8238852513214853  0.41286819291050864  0.2157204277650564  1.0000
  H   H31       1.0  0.32388929384535464  0.08713308259896732  0.21572148080628037  1.0000
  H   H32       1.0  0.6761099706020061  0.9128688173794757  0.7157212198741618  1.0000
  H   H33       1.0  0.4987871471637817  0.519455046357997  0.7562000593980613  1.0000
  H   H34       1.0  0.5012090242912279  0.48054558945898407  0.2562004641094617  1.0000
  H   H35       1.0  0.0012107507238567996  0.019453537903629605  0.2561997607306949  1.0000
  H   H36       1.0  0.9987865630276288  0.9805479101922143  0.7562012692498784  1.0000
  H   H37       1.0  0.4506906015790618  0.6096661771066323  0.6909728294425719  1.0000
  H   H38       1.0  0.5493050318437938  0.39033550252661087  0.1909719827338492  1.0000
  H   H39       1.0  0.0493079425512235  0.10966467933484127  0.190971088797582  1.0000
  H   H40       1.0  0.950689975453784  0.8903370002918862  0.6909722039685633  1.0000
  H   H41       1.0  0.5282528245815428  0.7107154614877799  0.7935060372205953  1.0000
  H   H42       1.0  0.47174708146724953  0.2892838819115227  0.2935047117697991  1.0000
  H   H43       1.0  0.9717486563423133  0.21071568215214853  0.2935044702220324  1.0000
  H   H44       1.0  0.028251249701149603  0.7892877226228238  0.7935047593633584  1.0000
  H   H45       1.0  0.33378630743214194  0.7372581197587849  0.7757976854129893  1.0000
  H   H46       1.0  0.666213452544362  0.26274350280318265  0.2757950606882035  1.0000
  H   H47       1.0  0.16621642263727668  0.23725583569248704  0.2757961329822862  1.0000
  H   H48       1.0  0.8337844796271696  0.7627457868628368  0.7757950937077069  1.0000
  H   H49       1.0  0.13647730479073766  0.4170850268776363  0.6667198895780118  1.0000
  H   H50       1.0  0.8635181285884953  0.5829164368343099  0.1667207296209767  1.0000
  H   H51       1.0  0.3635211823559956  0.9170844904941973  0.166718886366759  1.0000
  H   H52       1.0  0.6364788201917122  0.0829169732092367  0.6667197069530887  1.0000
  H   H53       1.0  0.27441752227460375  0.3518042335835786  0.7179261005027371  1.0000
  H   H54       1.0  0.7255783334755391  0.6481984982995642  0.2179259341368578  1.0000
  H   H55       1.0  0.22558021456952562  0.851802041988165  0.21792436873779047  1.0000
  H   H56       1.0  0.7744190680525946  0.14819987760760261  0.7179251335496133  1.0000
  H   H57       1.0  0.44499715508324295  0.23765798842352842  0.6508176565549207  1.0000
  H   H58       1.0  0.5549970048284436  0.7623433337035905  0.1508176152906984  1.0000
  H   H59       1.0  0.054997690517971896  0.737659820310853  0.15081818252028975  1.0000
  H   H60       1.0  0.9450010385787095  0.2623406895493119  0.6508191152104104  1.0000
  H   H61       1.0  0.5877289010040058  0.30017869403896213  0.5988544930295205  1.0000
  H   H62       1.0  0.41226368799074453  0.6998213531688009  0.09885349655357352  1.0000
  H   H63       1.0  0.9122641622150454  0.8001806053275259  0.0988555941844282  1.0000
  H   H64       1.0  0.087735280563372  0.19981781734831824  0.5988569536376858  1.0000
  H   H65       1.0  0.4734442019763208  0.2338180828274616  0.770879085778205  1.0000
  H   H66       1.0  0.5265578020198374  0.766184308222293  0.2708769862875969  1.0000
  H   H67       1.0  0.0265562013420251  0.7338199083931584  0.2708795659491656  1.0000
  H   H68       1.0  0.9734423757973473  0.26617679675013056  0.7708830902230944  1.0000
  H   H69       1.0  0.5944672978526313  0.3009548429079913  0.8765868275426101  1.0000
  H   H70       1.0  0.4055447164347824  0.6990476770106752  0.3765863239906935  1.0000
  H   H71       1.0  0.9055383372539083  0.8009543158731702  0.37658842432546896  1.0000
  H   H72       1.0  0.09446682328555765  0.1990417058531406  0.8765892854272934  1.0000
  H   H73       1.0  0.8709454707852373  0.5212502328214014  0.7593622587363313  1.0000
  H   H74       1.0  0.1290587228202114  0.47874880660577196  0.2593645903548918  1.0000
  H   H75       1.0  0.6290522134676665  0.021249565069325602  0.25936520471564256  1.0000
  H   H76       1.0  0.3709474109647529  0.9787478498088762  0.7593626573104686  1.0000
  H   H77       1.0  0.7562129873656148  0.449641890635192  0.653485352990586  1.0000
  H   H78       1.0  0.243781194555531  0.550357830695731  0.1534866006741069  1.0000
  H   H79       1.0  0.743782880627684  0.9496429522116897  0.1534882087749168  1.0000
  H   H80       1.0  0.2562170127774052  0.050358393686366305  0.6534867837214478  1.0000
  H   H81       1.0  0.9024504795930355  0.501914576471343  0.8900752486920069  1.0000
  H   H82       1.0  0.09755479218355129  0.4980880635313483  0.3900735455423359  1.0000
  H   H83       1.0  0.5975505584308748  0.0019155262639856004  0.3900766245426439  1.0000
  H   H84       1.0  0.402451286482659  0.9980814278254685  0.8900772343860339  1.0000
  H   H85       1.0  0.7629696694450487  0.4248662737252786  0.9347259653536923  1.0000
  H   H86       1.0  0.2370382552295069  0.5751343269914813  0.43472627599310704  1.0000
  H   H87       1.0  0.7370307914217804  0.9248673338006413  0.4347288102636711  1.0000
  H   H88       1.0  0.26297142179997485  0.0751308301063176  0.9347279893106162  1.0000
  C   C1        1.0  0.47739942198224833  0.5565125387015896  0.8975388609160647  1.0000
  C   C2        1.0  0.522601342190626  0.4434861063794173  0.39753967675880386  1.0000
  C   C3        1.0  0.022601943576084697  0.05651347183265901  0.39753910316004953  1.0000
  C   C4        1.0  0.9773999628934574  0.9434867978037005  0.8975399409892902  1.0000
  C   C5        1.0  0.3662986226408265  0.63630066866142  0.8633278279859837  1.0000
  C   C6        1.0  0.6337030016322344  0.36370010865650937  0.3633275303472558  1.0000
  C   C7        1.0  0.1337047824428623  0.1362983773739757  0.3633272361534026  1.0000
  C   C8        1.0  0.866294557239506  0.8637015876649631  0.8633276157058704  1.0000
  C   C9        1.0  0.20764991862483126  0.5823573498803682  0.8588883900910176  1.0000
  C   C10       1.0  0.7923493844408185  0.41764338791182354  0.3588880303054864  1.0000
  C   C11       1.0  0.2923499978547426  0.0823542815750926  0.3588880536737733  1.0000
  C   C12       1.0  0.7076493052105236  0.9176448316641341  0.8588883667198814  1.0000
  C   C13       1.0  0.2025333450468736  0.4907445122209709  0.8063915240140177  1.0000
  C   C14       1.0  0.7974632404114315  0.5092581950117393  0.3063914932900289  1.0000
  C   C15       1.0  0.29746632846626403  0.9907407120577927  0.3063919338619385  1.0000
  C   C16       1.0  0.7025336838763749  0.009260370624581103  0.8063915899127283  1.0000
  C   C17       1.0  0.2570262063672004  0.5260449268625109  0.7355880380289008  1.0000
  C   C18       1.0  0.7429709373681205  0.47395958682793077  0.2355893153688484  1.0000
  C   C19       1.0  0.24297380915653827  0.026042659860046096  0.23558762211884954  1.0000
  C   C20       1.0  0.7570256191668179  0.9739602292776793  0.7355897312778978  1.0000
  C   C21       1.0  0.41380040943614926  0.5803212828615543  0.7409411481504407  1.0000
  C   C22       1.0  0.5861956361539526  0.4196824662056144  0.24094097007253618  1.0000
  C   C23       1.0  0.0862008177945341  0.08031898101678081  0.2409404798396793  1.0000
  C   C24       1.0  0.9137997969718229  0.9196823312214376  0.7409416383827008  1.0000
  C   C25       1.0  0.41414447283719363  0.6733499121710622  0.7921500578610434  1.0000
  C   C26       1.0  0.5858542797304551  0.3266526682583901  0.2921480340364511  1.0000
  C   C27       1.0  0.08585722008348988  0.17334842252635957  0.2921493889981477  1.0000
  C   C28       1.0  0.9141426747762721  0.8266541579009612  0.7921481964295581  1.0000
  C   C29       1.0  0.25090557728232443  0.4257667484978924  0.6886962672665717  1.0000
  C   C30       1.0  0.7490888950741519  0.5742349108730807  0.1886968926802481  1.0000
  C   C31       1.0  0.24909195288402938  0.9257661866853651  0.1886955862992323  1.0000
  C   C32       1.0  0.7509070886452845  0.07423628495809  0.6886965607112857  1.0000
  C   C33       1.0  0.5142407314095222  0.31095535593296125  0.6433170094908149  1.0000
  C   C34       1.0  0.48575565121706166  0.6890426503048132  0.1433160935887869  1.0000
  C   C35       1.0  0.9857549881610338  0.8109580958285036  0.1433177224922844  1.0000
  C   C36       1.0  0.014242536772862  0.18904234725237504  0.6433184194167296  1.0000
  C   C37       1.0  0.6031366136160372  0.3396947962260057  0.7053370015913458  1.0000
  C   C38       1.0  0.3968648497660113  0.6603078235768365  0.20533736135016056  1.0000
  C   C39       1.0  0.8968630577850476  0.8396958918145144  0.2053380779442051  1.0000
  C   C40       1.0  0.1031384056068774  0.1603042911701422  0.7053388173465578  1.0000
  C   C41       1.0  0.5620748129697546  0.2960555174211805  0.7682202948975103  1.0000
  C   C42       1.0  0.43792716910088797  0.7039411640288407  0.268219860635341  1.0000
  C   C43       1.0  0.9379253568143255  0.7960566221333212  0.2682209308883046  1.0000
  C   C44       1.0  0.06207548297881968  0.203940059334613  0.7682232764092661  1.0000
  C   C45       1.0  0.6300461414454899  0.3339168088995664  0.8276750120037945  1.0000
  C   C46       1.0  0.36996775398218756  0.6660852755491148  0.3276748422116356  1.0000
  C   C47       1.0  0.8699579632567094  0.8339162739573213  0.3276765515045668  1.0000
  C   C48       1.0  0.13004679383269746  0.16608012457298577  0.8276773544591975  1.0000
  C   C49       1.0  0.7381368839520519  0.4178558390639325  0.8255890931547613  1.0000
  C   C50       1.0  0.26187014050179164  0.5821421654281167  0.3255884553776411  1.0000
  C   C51       1.0  0.7618638157280344  0.9178552801030831  0.32559147157140705  1.0000
  C   C52       1.0  0.23813863956721798  0.0821402875792998  0.8255906351894  1.0000
  C   C53       1.0  0.7865516279639451  0.4560983502791202  0.7619334284924264  1.0000
  C   C54       1.0  0.21345715602225815  0.5439023365880261  0.26193460473498226  1.0000
  C   C55       1.0  0.7134485644485977  0.956097780558224  0.26193572896240624  1.0000
  C   C56       1.0  0.2865522234878454  0.04389965721336611  0.7619348366064074  1.0000
  C   C57       1.0  0.7215673986114197  0.41674247053045116  0.7025080864746372  1.0000
  C   C58       1.0  0.2784306145525476  0.5832544381504193  0.2025084922050624  1.0000
  C   C59       1.0  0.778430000725855  0.9167427275259642  0.2025099850957091  1.0000
  C   C60       1.0  0.22156915474523228  0.083255805721528  0.7025096324119886  1.0000
  C   C61       1.0  0.7829539317819679  0.4747666560562607  0.8895260907193717  1.0000
  C   C62       1.0  0.21705362006208162  0.5252327299617718  0.389526700904817  1.0000
  C   C63       1.0  0.7170461794752471  0.974766899413673  0.38952890345358787  1.0000
  C   C64       1.0  0.2829556609139133  0.02523004979230589  0.8895279399273761  1.0000
  S   S1        1.0  0.6753041880198153  0.6031859668091997  0.8973750054416172  1.0000
  S   S2        1.0  0.32469771709561  0.39681186453671563  0.3973758456864047  1.0000
  S   S3        1.0  0.8246980996385602  0.10318696708208817  0.39737624052114745  1.0000
  S   S4        1.0  0.1753015208947275  0.8968108642703428  0.8973761300171503  1.0000
  S   S5        1.0  0.3853201839499505  0.42169369185551636  0.6174227718609089  1.0000
  S   S6        1.0  0.6146748427956864  0.5783073329479151  0.11742218219275459  1.0000
  S   S7        1.0  0.11467447182963748  0.9216931001673103  0.11742136801713339  1.0000
  S   S8        1.0  0.8853228395019528  0.07830630008115239  0.6174230795648228  1.0000
  N   N1        1.0  0.08427073222869551  0.6171418175701363  0.0286445991726083  1.0000
  N   N2        1.0  0.9157258468292824  0.3828559800071289  0.5286469197159107  1.0000
  N   N3        1.0  0.4157333302078285  0.11714810196542663  0.5286490908072352  1.0000
  N   N4        1.0  0.5842655334658956  0.8828505079178938  0.0286490122037151  1.0000
  O   O1        1.0  0.0024350848991688  0.6906141015398004  0.9994856951862657  1.0000
  O   O2        1.0  0.9975608087073342  0.309387075741256  0.4994852866795299  1.0000
  O   O3        1.0  0.4975614724955904  0.19061838932167774  0.4994836632859148  1.0000
  O   O4        1.0  0.5024355633878415  0.8093803511120113  0.9994832668108913  1.0000
  O   O5        1.0  0.22701755353990902  0.6339307997426431  0.0339540758823773  1.0000
  O   O6        1.0  0.7729779270097623  0.36606785737202324  0.5339540819314905  1.0000
  O   O7        1.0  0.27298427590611135  0.13393217874483554  0.5339563118058309  1.0000
  O   O8        1.0  0.7270146315449821  0.8660664783904937  0.0339564042471423  1.0000
  O   O9        1.0  0.0235098921981489  0.5322378994625582  0.051231475641550596  1.0000
  O   O10       1.0  0.9764868731939913  0.46775766240956784  0.5512402689811466  1.0000
  O   O11       1.0  0.4765011708442657  0.032253944725390206  0.5512461945360911  1.0000
  O   O12       1.0  0.5234990215170825  0.9677456786219807  0.051246315395395904  1.0000
