data_image0
_chemical_formula_structural       Zn4H38C60N6O14
_chemical_formula_sum              "Zn4 H38 C60 N6 O14"
_cell_length_a       10.025899729243099
_cell_length_b       11.714380217966399
_cell_length_c       12.198811732556996
_cell_angle_alpha    74.70233110024354
_cell_angle_beta     88.18494550044518
_cell_angle_gamma    72.63694697725029

_space_group_name_H-M_alt    "P 1"
_space_group_IT_number       1

loop_
  _space_group_symop_operation_xyz
  'x, y, z'

loop_
  _atom_site_type_symbol
  _atom_site_label
  _atom_site_symmetry_multiplicity
  _atom_site_fract_x
  _atom_site_fract_y
  _atom_site_fract_z
  _atom_site_occupancy
  Zn  Zn1       1.0  0.6833443083647878  0.38177682422860904  0.2106966679095522  1.0000
  Zn  Zn2       1.0  0.31665441660825167  0.6182228774511812  0.7893014841535474  1.0000
  Zn  Zn3       1.0  0.43388837325992574  0.586278297178829  0.07998599969531746  1.0000
  Zn  Zn4       1.0  0.5661123487899359  0.4137214240107027  0.92001372836787  1.0000
  H   H1        1.0  0.9602139301693311  0.32816501369882173  0.11452088240520203  1.0000
  H   H2        1.0  0.0397844777862275  0.6718356219125069  0.8854778557800885  1.0000
  H   H3        1.0  0.16992961655782324  0.14078941721952984  0.12830619948203292  1.0000
  H   H4        1.0  0.8300697880075204  0.8592112221980841  0.8716925085319006  1.0000
  H   H5        1.0  0.1718227135276463  0.9410184740945481  0.26336765073748575  1.0000
  H   H6        1.0  0.8281760133740264  0.058981233533828  0.7366313194970219  1.0000
  H   H7        1.0  0.7643078696388985  0.1270192888436554  0.36252952016496215  1.0000
  H   H8        1.0  0.23569153492643838  0.8729813505739583  0.6374691878489714  1.0000
  H   H9        1.0  0.15560500904129537  0.786053073278097  0.37106974616294514  1.0000
  H   H10       1.0  0.8443944372241248  0.21395035984323127  0.6289290537033951  1.0000
  H   H11       1.0  0.9216657371687658  0.6132502471464105  0.6287380192565807  1.0000
  H   H12       1.0  0.07833566447339993  0.3867504117809445  0.37126226475743357  1.0000
  H   H13       1.0  0.7608782702594893  0.6422500170433235  0.736066358765065  1.0000
  H   H14       1.0  0.23912277266511947  0.357748782111848  0.2639344195187334  1.0000
  H   H15       1.0  0.639110831928356  0.02746048389364119  0.5442889108269  1.0000
  H   H16       1.0  0.3608839085342056  0.972539208509616  0.4557101800930425  1.0000
  H   H17       1.0  0.44360874828344515  0.06632994303597427  0.6783215892627226  1.0000
  H   H18       1.0  0.5563876305383956  0.9336679091048407  0.32167957192709207  1.0000
  H   H19       1.0  0.42429998913453915  0.8861590341867751  0.8378263061743781  1.0000
  H   H20       1.0  0.5756993814452612  0.11383883532147364  0.16217558267275933  1.0000
  H   H21       1.0  0.10306870186519751  0.4611433637683928  0.6708885591502991  1.0000
  H   H22       1.0  0.8969320618847406  0.5388591511248534  0.32911126076528774  1.0000
  H   H23       1.0  0.29618546559159137  0.2706046769560685  0.6874601223468987  1.0000
  H   H24       1.0  0.7038166156428713  0.7293969197091028  0.3125407176179423  1.0000
  H   H25       1.0  0.47945527829143925  0.2602682700027755  0.541922014727902  1.0000
  H   H26       1.0  0.5205461233507264  0.7397323889245725  0.4580782692861122  1.0000
  H   H27       1.0  0.25926116370565216  0.6278158916924779  0.35280152143266014  1.0000
  H   H28       1.0  0.7407389223806217  0.3721856914115448  0.647198560703501  1.0000
  H   H29       1.0  0.6118536627379356  0.8794988278796864  0.0794680979266928  1.0000
  H   H30       1.0  0.3881486976711982  0.1204990530474035  0.9205337004063596  1.0000
  H   H31       1.0  0.7579765243731059  0.023618578879855096  0.07060347975748021  1.0000
  H   H32       1.0  0.2420258360360279  0.9763793020472346  0.9293983185755721  1.0000
  H   H33       1.0  0.017797548096439145  0.9370888908452528  0.08710640343674211  1.0000
  H   H34       1.0  0.9822048103840542  0.06290898413325148  0.9128945767249094  1.0000
  H   H35       1.0  0.9881126115321165  0.5730583908738962  0.11525530073114253  1.0000
  H   H36       1.0  0.01188842367795217  0.42694038448691873  0.8847422048670526  1.0000
  H   H37       1.0  0.5181715484120629  0.6531530293048318  0.8729502343047956  1.0000
  H   H38       1.0  0.4818261838084723  0.3468466804658518  0.12704958427246996  1.0000
  C   C1        1.0  0.9669086364074742  0.23832955832658329  0.17310070422679055  1.0000
  C   C2        1.0  0.03309009049419845  0.7616701493017997  0.8268982660077103  1.0000
  C   C3        1.0  0.08201474714569196  0.13432014361845998  0.18168903981015214  1.0000
  C   C4        1.0  0.9179849782943915  0.8656795737647868  0.8183107184243923  1.0000
  C   C5        1.0  0.0821745544557544  0.0227270469924363  0.2582270930545151  1.0000
  C   C6        1.0  0.9178231758361405  0.9772726568296615  0.7417719073513498  1.0000
  C   C7        1.0  0.9679173999516449  0.016906742879392297  0.326711182135668  1.0000
  C   C8        1.0  0.03208101186118741  0.9830939046291218  0.6732891923924244  1.0000
  C   C9        1.0  0.8560437635784339  0.12589753454214755  0.3121480539823622  1.0000
  C   C10       1.0  0.14395464244849165  0.8741030951205956  0.6878498660315274  1.0000
  C   C11       1.0  0.9603463014441118  0.9023502663906483  0.4113103873255923  1.0000
  C   C12       1.0  0.039653108907131716  0.09765039087272946  0.5886907752025436  1.0000
  C   C13       1.0  0.06494736889502661  0.7897816023456485  0.42265983691161324  1.0000
  C   C14       1.0  0.9350530361373613  0.21021905277542158  0.5773404772737579  1.0000
  C   C15       1.0  0.05386482670066781  0.6816192205933546  0.5008554412452426  1.0000
  C   C16       1.0  0.9461352613142466  0.3183823684592538  0.4991454590623193  1.0000
  C   C17       1.0  0.9366797189456261  0.6943059095314721  0.5677058508917697  1.0000
  C   C18       1.0  0.06332136375042552  0.30569567737882847  0.4322942010730344  1.0000
  C   C19       1.0  0.8383342262842818  0.8115707048570538  0.5549309779103951  1.0000
  C   C20       1.0  0.16166454424610774  0.18843180242362928  0.4450689023479129  1.0000
  C   C21       1.0  0.6948904060039637  0.7385553173680106  0.7190178949707544  1.0000
  C   C22       1.0  0.3051083247549826  0.2614444021575436  0.28098271160655497  1.0000
  C   C23       1.0  0.717861019962001  0.8328175401718877  0.6289454013146809  1.0000
  C   C24       1.0  0.28213639331242046  0.16718309758174846  0.3710541852133744  1.0000
  C   C25       1.0  0.624431059793281  0.9527167826790046  0.6139272108492478  1.0000
  C   C26       1.0  0.3755656758174765  0.04728292328540109  0.3860726378993818  1.0000
  C   C27       1.0  0.5173317126784552  0.9741780605876253  0.6882394351267466  1.0000
  C   C28       1.0  0.4826653438070423  0.025820723342420096  0.31176146384249404  1.0000
  C   C29       1.0  0.5054766534200679  0.8747033922296408  0.7763567061128286  1.0000
  C   C30       1.0  0.49452108072910045  0.12529632348963557  0.22364393063583782  1.0000
  C   C31       1.0  0.16438767532348214  0.5622775959116237  0.5112341496497523  1.0000
  C   C32       1.0  0.8356114539244571  0.43772677114124287  0.48876523633877167  1.0000
  C   C33       1.0  0.17744941973928968  0.45787003043319874  0.6039866557796927  1.0000
  C   C34       1.0  0.8225526614951804  0.5421315662319798  0.39601418418514817  1.0000
  C   C35       1.0  0.28852965509683054  0.3495833078235647  0.6141557327344601  1.0000
  C   C36       1.0  0.7114684377698949  0.6504182676678878  0.38584440974442213  1.0000
  C   C37       1.0  0.39028933891683687  0.34310596307961555  0.5336092801163943  1.0000
  C   C38       1.0  0.6097117476364884  0.6568956357278635  0.4663924081912045  1.0000
  C   C39       1.0  0.3777670302707604  0.44557776125431275  0.43987301677875484  1.0000
  C   C40       1.0  0.6222320553484693  0.5544238061462464  0.5601254591859616  1.0000
  C   C41       1.0  0.2645846798408797  0.5524578140278604  0.42869432967503945  1.0000
  C   C42       1.0  0.7354164028551722  0.4475437728824474  0.5713057222897648  1.0000
  C   C43       1.0  0.48170879222301  0.44666303472389746  0.34932971783923955  1.0000
  C   C44       1.0  0.5182909351457141  0.553336688607942  0.6506708585667057  1.0000
  C   C45       1.0  0.7050587283367805  0.6312157976459714  0.10982940171844288  1.0000
  C   C46       1.0  0.29494362242918015  0.368782053538176  0.8901683057576053  1.0000
  C   C47       1.0  0.7912133303247016  0.7176862645845501  0.10068970650967665  1.0000
  C   C48       1.0  0.20878870728105167  0.2823125324283068  0.899310223431364  1.0000
  C   C49       1.0  0.7258977996637552  0.8450016207779568  0.08710089492686993  1.0000
  C   C50       1.0  0.2741055573551563  0.15499626395541805  0.9129008732348184  1.0000
  C   C51       1.0  0.8068606724883761  0.9241064271193263  0.08406329536379081  1.0000
  C   C52       1.0  0.1931426787446284  0.07589143976827727  0.9159360182836951  1.0000
  C   C53       1.0  0.9525991979634723  0.8767034844395595  0.09177400504295727  1.0000
  C   C54       1.0  0.0474024847819976  0.12329346469829966  0.9082280555106621  1.0000
  C   C55       1.0  0.01874898683022512  0.7508134427908643  0.10100464227534192  1.0000
  C   C56       1.0  0.9812530507755282  0.2491853542219998  0.8989952876656916  1.0000
  C   C57       1.0  0.937291952315739  0.6711765742083953  0.10763426766749977  1.0000
  C   C58       1.0  0.06271008143274062  0.32882221090729036  0.892364025930732  1.0000
  C   C59       1.0  0.1746839371702578  0.7047767117952615  0.09452200679157846  1.0000
  C   C60       1.0  0.8253187325418097  0.29522021140593313  0.9054759327336798  1.0000
  N   N1        1.0  0.8555465946236323  0.23282988291013842  0.2367707555849919  1.0000
  N   N2        1.0  0.1444518133319264  0.7671707527011828  0.7632279826002987  1.0000
  N   N3        1.0  0.8492119135834102  0.9131473804840692  0.4767042341146991  1.0000
  N   N4        1.0  0.1507864943721486  0.08685325512725937  0.5232945040705985  1.0000
  N   N5        1.0  0.5918091176303976  0.7590742329569976  0.7905498541190641  1.0000
  N   N6        1.0  0.40819060973831983  0.24092549037484184  0.20945072228688133  1.0000
  O   O1        1.0  0.5879109397614144  0.3490726807096322  0.3584504582988616  1.0000
  O   O2        1.0  0.41208914439622635  0.6509288964457978  0.6415488056658988  1.0000
  O   O3        1.0  0.46079880514482596  0.5434663935366045  0.26771647960767814  1.0000
  O   O4        1.0  0.5392015960302957  0.45653424968728723  0.7322821982348985  1.0000
  O   O5        1.0  0.7693705242589957  0.5156752325388324  0.15283225260167657  1.0000
  O   O6        1.0  0.23063051095107306  0.48432354282197543  0.8471652529965116  1.0000
  O   O7        1.0  0.5775056388507946  0.6784317897828344  0.07651283074723383  1.0000
  O   O8        1.0  0.4224937695718225  0.32156886153195063  0.9234875136095015  1.0000
  O   O9        1.0  0.22944344628795924  0.5890244342245268  0.09727009379346191  1.0000
  O   O10       1.0  0.7705562772234913  0.4109752772101344  0.9027288462696819  1.0000
  O   O11       1.0  0.24648422323969035  0.7788125161689547  0.08286996506065952  1.0000
  O   O12       1.0  0.7535184561155573  0.22118443677518934  0.9171320653216031  1.0000
  O   O13       1.0  0.45569737999988985  0.6006526210185256  0.9066669665891355  1.0000
  O   O14       1.0  0.5443023473688271  0.39934710231331383  0.09333360981680981  1.0000
