data_image0
_chemical_formula_structural       AlAgH16C28N4O4
_chemical_formula_sum              "Al1 Ag1 H16 C28 N4 O4"
_cell_length_a       6.899457882868595
_cell_length_b       6.900136375466154
_cell_length_c       13.930977019322668
_cell_angle_alpha    104.21352990657465
_cell_angle_beta     104.27472084518791
_cell_angle_gamma    89.93722235203755

_space_group_name_H-M_alt    "P 1"
_space_group_IT_number       1

loop_
  _space_group_symop_operation_xyz
  'x, y, z'

loop_
  _atom_site_type_symbol
  _atom_site_label
  _atom_site_symmetry_multiplicity
  _atom_site_fract_x
  _atom_site_fract_y
  _atom_site_fract_z
  _atom_site_occupancy
  Al  Al1       1.0  0.49918938626642273  0.5006612604089611  0.9999732846289435  1.0000
  Ag  Ag1       1.0  0.25183071356211434  0.7499855805080674  0.5002110637837305  1.0000
  H   H1        1.0  0.9354395818355172  0.7216751639647542  0.9760499919060663  1.0000
  H   H2        1.0  0.040241691888780906  0.2576689154612311  0.9762697867883361  1.0000
  H   H3        1.0  0.742546919133858  0.0645293522375994  0.02397996700133119  1.0000
  H   H4        1.0  0.27765261866579044  0.9601625281742731  0.02368774130484044  1.0000
  H   H5        1.0  0.14217665573838192  0.6997701910420915  0.8510308599550387  1.0000
  H   H6        1.0  0.7088916180767982  0.15478284952706642  0.8518273646133353  1.0000
  H   H7        1.0  0.8466122149067132  0.8574493624946626  0.1487967870040094  1.0000
  H   H8        1.0  0.3004024713882886  0.2914604109861046  0.14843719556854046  1.0000
  H   H9        1.0  0.6072166269592286  0.5332233274777282  0.6015958635151436  1.0000
  H   H10       1.0  0.9950142998494726  0.06425554336343711  0.6017744594924042  1.0000
  H   H11       1.0  0.9347539189735486  0.39253372754181726  0.39833888369172854  1.0000
  H   H12       1.0  0.46629649768478737  0.0051221607364198  0.39824426997903833  1.0000
  H   H13       1.0  0.40229321785032823  0.5606074543989976  0.7274871205998467  1.0000
  H   H14       1.0  0.325329087235275  0.16423097762398708  0.7270603644843946  1.0000
  H   H15       1.0  0.8353669435686087  0.5977019646997948  0.2725512299904126  1.0000
  H   H16       1.0  0.4384246658796087  0.6747455294763257  0.27274471697446506  1.0000
  C   C1        1.0  0.6547755660875723  0.645829288641238  0.8597663845882622  1.0000
  C   C2        1.0  0.2048492540305205  0.21501239200071615  0.8596673483215584  1.0000
  C   C3        1.0  0.7851913106726727  0.3451538997516793  0.14026479909137632  1.0000
  C   C4        1.0  0.3539276389582754  0.7954005665617744  0.14020148795973605  1.0000
  C   C5        1.0  0.8645387380917812  0.6846290854166528  0.8941927959011551  1.0000
  C   C6        1.0  0.0294930096615005  0.21153860760453114  0.8943964628804367  1.0000
  C   C7        1.0  0.7887311880736476  0.13531608334283624  0.10580361163321332  1.0000
  C   C8        1.0  0.31511669506317475  0.9708479113917079  0.10560539744441398  1.0000
  C   C9        1.0  0.9799431337604645  0.670203127794487  0.8245296179787405  1.0000
  C   C10       1.0  0.8446062662390118  0.1561168597351141  0.82501248513141  1.0000
  C   C11       1.0  0.8445109086872193  0.019731663551787907  0.1754048301749407  1.0000
  C   C12       1.0  0.3298022651540577  0.15568725056203905  0.17507287564944823  1.0000
  C   C13       1.0  0.8875665299795372  0.6159449977677625  0.718569991603708  1.0000
  C   C14       1.0  0.8312935742004087  0.10246596565969673  0.7190234900734467  1.0000
  C   C15       1.0  0.8977907627048579  0.11202334499732561  0.2813501322735377  1.0000
  C   C16       1.0  0.3840937633795177  0.1688389629081541  0.28108773810250653  1.0000
  C   C17       1.0  0.6779949113979811  0.5762450555025611  0.6835859110001083  1.0000
  C   C18       1.0  0.005940762594875101  0.10549846390231471  0.6837694821967091  1.0000
  C   C19       1.0  0.8943201337949986  0.32170887743673393  0.31637111812498386  1.0000
  C   C20       1.0  0.4233961271714151  0.9941878557271407  0.3162365441495539  1.0000
  C   C21       1.0  0.5638482839342842  0.5920202610653078  0.7536865914479948  1.0000
  C   C22       1.0  0.1899696260834531  0.16042635846746126  0.7535551145952013  1.0000
  C   C23       1.0  0.839512995802231  0.4360308419272485  0.24633122031630716  1.0000
  C   C24       1.0  0.40743855632383225  0.810132052944141  0.24637006089113106  1.0000
  C   C25       1.0  0.0034722492185040015  0.6027236412278114  0.6470711765907  1.0000
  C   C26       1.0  0.6443542005523284  0.0438639304227237  0.6476829914881251  1.0000
  C   C27       1.0  0.9562671334655519  0.9960022406473072  0.35280142605653  1.0000
  C   C28       1.0  0.397423357550835  0.3558327157305784  0.35252374604556286  1.0000
  N   N1        1.0  0.09990677614362653  0.5919629102352387  0.5878197080316314  1.0000
  N   N2        1.0  0.4892538850260096  0.994937229063865  0.5883451509201976  1.0000
  N   N3        1.0  0.00495643002717121  0.8995230004697562  0.4120664320614297  1.0000
  N   N4        1.0  0.4082702208580358  0.5109537230078374  0.41189424425190424  1.0000
  O   O1        1.0  0.5405327394982464  0.6609120232691198  0.9259393593898012  1.0000
  O   O2        1.0  0.385009208577749  0.2669751646658867  0.9255508753166738  1.0000
  O   O3        1.0  0.7331376141826524  0.4595501801390754  0.07418710181480039  1.0000
  O   O4        1.0  0.33909003489533524  0.6151991517120693  0.07420766633830313  1.0000
