data_image0
_chemical_formula_structural       Ag4H22C28N6O12
_chemical_formula_sum              "Ag4 H22 C28 N6 O12"
_cell_length_a       6.7988637191796695
_cell_length_b       10.268357422423739
_cell_length_c       11.153771670895175
_cell_angle_alpha    93.96109151934974
_cell_angle_beta     97.9598636350248
_cell_angle_gamma    96.72509489208085

_space_group_name_H-M_alt    "P 1"
_space_group_IT_number       1

loop_
  _space_group_symop_operation_xyz
  'x, y, z'

loop_
  _atom_site_type_symbol
  _atom_site_label
  _atom_site_symmetry_multiplicity
  _atom_site_fract_x
  _atom_site_fract_y
  _atom_site_fract_z
  _atom_site_occupancy
  Ag  Ag1       1.0  0.9472359502416053  0.8775804230650904  0.54331677930967  1.0000
  Ag  Ag2       1.0  0.05276561512008019  0.12242430160969058  0.4566797802637978  1.0000
  Ag  Ag3       1.0  0.6341173755637826  0.16600261121999438  0.5495124389304208  1.0000
  Ag  Ag4       1.0  0.365885857405523  0.8339961790149173  0.450491058311492  1.0000
  H   H1        1.0  0.8753230656373744  0.01939357597705539  0.9480625087498921  1.0000
  H   H2        1.0  0.1246725076271814  0.9806042072972968  0.051942002405475286  1.0000
  H   H3        1.0  0.828423172970247  0.18573636180062886  0.11225336170500101  1.0000
  H   H4        1.0  0.17156984891671093  0.8142633930090991  0.8877492484584051  1.0000
  H   H5        1.0  0.5232578756345917  0.3063806499512012  0.081890497567187  1.0000
  H   H6        1.0  0.4767369304174949  0.6936201133797154  0.9181078618219016  1.0000
  H   H7        1.0  0.562412184012409  0.3444248787917202  0.7541610978728457  1.0000
  H   H8        1.0  0.43759567100482843  0.6555748999291209  0.24584379142326176  1.0000
  H   H9        1.0  0.7388129531660539  0.4705908766437473  0.8416641965711588  1.0000
  H   H10       1.0  0.2611951782864566  0.5294099035004078  0.15833719777911878  1.0000
  H   H11       1.0  0.8185518510071857  0.3223684419921611  0.7849179384897055  1.0000
  H   H12       1.0  0.1814567001332037  0.6776343153253703  0.2150818318330109  1.0000
  H   H13       1.0  0.8484461203238141  0.6531792819955199  0.7335388995229549  1.0000
  H   H14       1.0  0.15155573809830966  0.34681952681477657  0.2664599876833336  1.0000
  H   H15       1.0  0.8043973384675454  0.6164549956122441  0.3589122503819553  1.0000
  H   H16       1.0  0.1956061487399197  0.38354479176710743  0.6410886462248084  1.0000
  H   H17       1.0  0.759671101018732  0.2646794461585457  0.32299183266361803  1.0000
  H   H18       1.0  0.24032943732036927  0.7353203398616797  0.6770078926680582  1.0000
  H   H19       1.0  0.7121720096872082  0.40771154700582457  0.24603373905176792  1.0000
  H   H20       1.0  0.2878314775202639  0.59228824037352  0.753967157554996  1.0000
  H   H21       1.0  0.5167972167889443  0.3102794437535293  0.30418892567109873  1.0000
  H   H22       1.0  0.483201902608755  0.6897203522843255  0.6958079782463213  1.0000
  C   C1        1.0  0.6075879094225485  0.043026418858488596  0.8323085765895328  1.0000
  C   C2        1.0  0.3924081723183335  0.9569733587047365  0.16769073329553658  1.0000
  C   C3        1.0  0.7452944455706644  0.0723825935402473  0.9390223288057911  1.0000
  C   C4        1.0  0.2547032427584525  0.9276181583131584  0.0609798847904415  1.0000
  C   C5        1.0  0.7196345167962052  0.16657943630418964  0.02976334628215232  1.0000
  C   C6        1.0  0.28036003501771484  0.8334203298822939  0.9702376137420854  1.0000
  C   C7        1.0  0.5517441294011292  0.23228230307208964  0.014447324785933805  1.0000
  C   C8        1.0  0.4482520955923589  0.7677184502411974  0.9855538560174111  1.0000
  C   C9        1.0  0.4096586001943051  0.19844136418184624  0.9108527826107885  1.0000
  C   C10       1.0  0.5903387128411524  0.801557419055946  0.08914926639162957  1.0000
  C   C11       1.0  0.43155193491122645  0.10332435143431694  0.8184561552627868  1.0000
  C   C12       1.0  0.5684439147886095  0.8966744332633495  0.18154486094674377  1.0000
  C   C13       1.0  0.2777719954083864  0.06846942396983739  0.7066433595871969  1.0000
  C   C14       1.0  0.7222272450447988  0.9315313435391986  0.29335630955918646  1.0000
  C   C15       1.0  0.6577337455586942  0.9466093212840717  0.7362147939136747  1.0000
  C   C16       1.0  0.34226660513358104  0.053389480428343496  0.2637848491210945  1.0000
  C   C17       1.0  0.7156649398268229  0.3957029608783741  0.7643363260429368  1.0000
  C   C18       1.0  0.2843400329133842  0.6042968293199704  0.23566470904602704  1.0000
  C   C19       1.0  0.7476531732048886  0.4549944596691161  0.6496368355905418  1.0000
  C   C20       1.0  0.25234734293710653  0.5450053220722352  0.3503637840518223  1.0000
  C   C21       1.0  0.815391024864958  0.5889992827747007  0.6493990343674907  1.0000
  C   C22       1.0  0.1846097233180828  0.4110014918322092  0.3505998789504047  1.0000
  C   C23       1.0  0.7901045425327593  0.5687395240720078  0.4421394686635479  1.0000
  C   C24       1.0  0.2098972714951444  0.4312592761805333  0.5578612071641087  1.0000
  C   C25       1.0  0.725540429859194  0.43374004958517515  0.43844134443657606  1.0000
  C   C26       1.0  0.27445732506125603  0.5662607151048674  0.5615581862276  1.0000
  C   C27       1.0  0.6764935896231209  0.3503553430994727  0.3213726073886889  1.0000
  C   C28       1.0  0.32350529773352577  0.6496434600728234  0.6786260028531925  1.0000
  N   N1        1.0  0.7076818371492096  0.37773247666181925  0.5433782096185027  1.0000
  N   N2        1.0  0.2923140125506265  0.6222663080358543  0.456622806591028  1.0000
  N   N3        1.0  0.8378109284571734  0.6451175878998965  0.5466138919236627  1.0000
  N   N4        1.0  0.1621907201210107  0.35488023232370836  0.4533858072963993  1.0000
  N   N5        1.0  0.2333840527388701  0.26751249657764475  0.8994819891671992  1.0000
  N   N6        1.0  0.7666150444617228  0.732487295181336  0.10051580906090858  1.0000
  O   O1        1.0  0.7383417408723361  0.8498184398961468  0.7704551918995433  1.0000
  O   O2        1.0  0.2616572897369096  0.15018133902620426  0.22954528926061357  1.0000
  O   O3        1.0  0.6171586367669732  0.9709016824889928  0.6228731675335054  1.0000
  O   O4        1.0  0.3828417583195217  0.02909712778117069  0.37712468687989537  1.0000
  O   O5        1.0  0.1784579386314675  0.9551976551766828  0.6984645872673524  1.0000
  O   O6        1.0  0.8215353596907633  0.044803101056359686  0.3015345279502242  1.0000
  O   O7        1.0  0.2687059480002318  0.15498513368192587  0.6306438588864507  1.0000
  O   O8        1.0  0.7312990247399754  0.8450146565164188  0.369357176202513  1.0000
  O   O9        1.0  0.07770247784939241  0.21028758665634228  0.8364487356456961  1.0000
  O   O10       1.0  0.9222982703336483  0.7897131879505748  0.1635501776722066  1.0000
  O   O11       1.0  0.24769797972145824  0.3802904503207428  0.9513984530540893  1.0000
  O   O12       1.0  0.7523031881494617  0.6197123014595431  0.048598836236251906  1.0000
