data_image0
_chemical_formula_structural       CuH22C26N6O6
_chemical_formula_sum              "Cu1 H22 C26 N6 O6"
_cell_length_a       9.833416303389003
_cell_length_b       9.367222753908743
_cell_length_c       10.861857517558946
_cell_angle_alpha    100.46916030932054
_cell_angle_beta     119.96554730498092
_cell_angle_gamma    119.39703994289981

_space_group_name_H-M_alt    "P 1"
_space_group_IT_number       1

loop_
  _space_group_symop_operation_xyz
  'x, y, z'

loop_
  _atom_site_type_symbol
  _atom_site_label
  _atom_site_symmetry_multiplicity
  _atom_site_fract_x
  _atom_site_fract_y
  _atom_site_fract_z
  _atom_site_occupancy
  Cu  Cu1       1.0  0.49999793258699293  6.80524713894393e-07  0.9999991242946962  1.0000
  H   H1        1.0  0.4372822861757372  0.9875583406643929  0.695931558874051  1.0000
  H   H2        1.0  0.5627461887428282  0.012464970594059826  0.30408512862624093  1.0000
  H   H3        1.0  0.32496067951579016  0.1052959128796118  0.5115343119818263  1.0000
  H   H4        1.0  0.6750626864881539  0.8947213337393338  0.48847817191094134  1.0000
  H   H5        1.0  0.20104064180588213  0.26780104110934394  0.557539269832354  1.0000
  H   H6        1.0  0.7989771941484064  0.7322114789311199  0.44246630662228636  1.0000
  H   H7        1.0  0.2831011330098648  0.15946954672077857  0.947938302992256  1.0000
  H   H8        1.0  0.7169025581046782  0.8405356206570147  0.052060801003968225  1.0000
  H   H9        1.0  0.17408321759997852  0.40790963620532494  0.7316091545014914  1.0000
  H   H10       1.0  0.8259237355299193  0.5920986174642524  0.26839466750738694  1.0000
  H   H11       1.0  0.16517158304186122  0.5774212262206577  0.8704528430740623  1.0000
  H   H12       1.0  0.8348596045565131  0.4226023728738682  0.1295696662788828  1.0000
  H   H13       1.0  0.1877501117884891  0.7179665094407285  0.08555722013099412  1.0000
  H   H14       1.0  0.8122784808431264  0.28204721950238115  0.9144679293479285  1.0000
  H   H15       1.0  0.20884858991333746  0.5639411906617582  0.1527877827186829  1.0000
  H   H16       1.0  0.791182561633633  0.43606762494177803  0.8472320567789994  1.0000
  H   H17       1.0  0.06639965812446043  0.4467118103063044  0.41254273581392203  1.0000
  H   H18       1.0  0.9335683900328392  0.5532614220629526  0.5874417778247649  1.0000
  H   H19       1.0  0.06440168381095654  0.26083722609899246  0.21332163596473924  1.0000
  H   H20       1.0  0.9355600519098815  0.739129704180421  0.7866617990178926  1.0000
  H   H21       1.0  0.7459837922811091  0.8087279081844799  0.8296357215974413  1.0000
  H   H22       1.0  0.2539859509037825  0.19125369077274712  0.1703473377144178  1.0000
  C   C1        1.0  0.3756045152941069  0.0526822015719688  0.7087090809349306  1.0000
  C   C2        1.0  0.6244220186833048  0.9473381888971064  0.2913044065841533  1.0000
  C   C3        1.0  0.31602459646168063  0.12169436297329382  0.6085301310205367  1.0000
  C   C4        1.0  0.6839953791656939  0.8783251712045299  0.39147762353446325  1.0000
  C   C5        1.0  0.2475571781144197  0.21221849647184857  0.6343247582025597  1.0000
  C   C6        1.0  0.7524642704588375  0.787795814968135  0.3656854543055844  1.0000
  C   C7        1.0  0.2367740542335355  0.23111476664473682  0.7600187445399699  1.0000
  C   C8        1.0  0.7632384631046493  0.7689024076784037  0.2399844628500959  1.0000
  C   C9        1.0  0.2947429378243243  0.15331760921132803  0.8533462172356749  1.0000
  C   C10       1.0  0.705269778406489  0.8466941480923825  0.14665978726925044  1.0000
  C   C11       1.0  0.14368559046750565  0.3581891529384222  0.897218285343172  1.0000
  C   C12       1.0  0.8563251611509912  0.6418292083329221  0.10277977158825995  1.0000
  C   C13       1.0  0.1164282844145603  0.5648272100327317  0.041008861947943745  1.0000
  C   C14       1.0  0.8836007635107209  0.43518937492443405  0.9590114693046486  1.0000
  C   C15       1.0  0.4008969185859714  0.7332077177947058  0.7522820751852424  1.0000
  C   C16       1.0  0.5990656120626027  0.2667755858766512  0.24769727227399585  1.0000
  C   C17       1.0  0.4075031240085709  0.6379865622783146  0.632720362558324  1.0000
  C   C18       1.0  0.5924670979804532  0.36199787830338453  0.3672588071237826  1.0000
  C   C19       1.0  0.21278123288541217  0.48229380224087515  0.45765185568398453  1.0000
  C   C20       1.0  0.7871813214343247  0.5176799766734845  0.5423322393675535  1.0000
  C   C21       1.0  0.2113346930189124  0.3784914733274434  0.3488119509620446  1.0000
  C   C22       1.0  0.7886280004708794  0.6214716298334936  0.6511675237567972  1.0000
  C   C23       1.0  0.4015978037629182  0.42053924985375357  0.41179019436827247  1.0000
  C   C24       1.0  0.5983662468524714  0.5794388023005866  0.5881934682372788  1.0000
  C   C25       1.0  0.5977353372370474  0.6896517837814501  0.6954705034592338  1.0000
  C   C26       1.0  0.40222954278609546  0.3103278151050902  0.3045091875574215  1.0000
  N   N1        1.0  0.3665514411952628  0.06995969873546673  0.8297662508838926  1.0000
  N   N2        1.0  0.6334651442162454  0.93005261263383  0.170240593329055  1.0000
  N   N3        1.0  0.17414651783512622  0.32843559423960766  0.785732501037174  1.0000
  N   N4        1.0  0.8258656960810742  0.6715733358292159  0.21427646450092677  1.0000
  N   N5        1.0  0.132130653879429  0.49884497168434194  0.9210173436805819  1.0000
  N   N6        1.0  0.8678952495828509  0.5011684550331097  0.07900291254227196  1.0000
  O   O1        1.0  0.1267667580745382  0.2655055095194072  0.9650139274732722  1.0000
  O   O2        1.0  0.8732251377355241  0.7344790900434859  0.03498286661765372  1.0000
  O   O3        1.0  0.5680482916795172  0.9183478240817992  0.8775070306018408  1.0000
  O   O4        1.0  0.43193304823861206  0.08164073897493301  0.1224831794918728  1.0000
  O   O5        1.0  0.23596909012981376  0.6314201850395307  0.7299255100171819  1.0000
  O   O6        1.0  0.7640021021691015  0.36857522630426603  0.27005144065981324  1.0000
