data_image0
_chemical_formula_structural       La2H28C44O16
_chemical_formula_sum              "La2 H28 C44 O16"
_cell_length_a       8.751158404412104
_cell_length_b       14.355535793891981
_cell_length_c       14.311141992056282
_cell_angle_alpha    112.44213891489524
_cell_angle_beta     107.80918617890379
_cell_angle_gamma    89.99184046544198

_space_group_name_H-M_alt    "P 1"
_space_group_IT_number       1

loop_
  _space_group_symop_operation_xyz
  'x, y, z'

loop_
  _atom_site_type_symbol
  _atom_site_label
  _atom_site_symmetry_multiplicity
  _atom_site_fract_x
  _atom_site_fract_y
  _atom_site_fract_z
  _atom_site_occupancy
  La  La1       1.0  0.9493281182189792  0.9966190128966302  0.4496565669802662  1.0000
  La  La2       1.0  0.4997399779122063  0.0033470317800379  0.5502868131045346  1.0000
  H   H1        1.0  0.7845616033633932  0.2060429212021546  0.3266563733383378  1.0000
  H   H2        1.0  0.4582298770117674  0.7941474947839069  0.6738102496216668  1.0000
  H   H3        1.0  0.7853151993622446  0.3721074134387762  0.30973157222648234  1.0000
  H   H4        1.0  0.4760316739112724  0.6280788540490435  0.6906103929211155  1.0000
  H   H5        1.0  0.4202159709704603  0.448838466631976  0.4626256370554244  1.0000
  H   H6        1.0  0.9581242824140831  0.5511527784317921  0.5373590383833999  1.0000
  H   H7        1.0  0.422264944463798  0.2836590075186792  0.47928497363730566  1.0000
  H   H8        1.0  0.9434144065275379  0.716390933954564  0.5208452544289415  1.0000
  H   H9        1.0  0.6731139471697248  0.47363672832277354  0.23576361709347535  1.0000
  H   H10       1.0  0.437682190598096  0.5262250867049474  0.7643131656010737  1.0000
  H   H11       1.0  0.717913540932301  0.6470422388129506  0.2424199092415762  1.0000
  H   H12       1.0  0.4756455374760337  0.35278326258694637  0.7576308172018712  1.0000
  H   H13       1.0  0.5925029547425427  0.7729533245030922  0.5297454044075565  1.0000
  H   H14       1.0  0.06324438563455459  0.22704063491322304  0.4700936873402596  1.0000
  H   H15       1.0  0.5527345305120902  0.6017754314368416  0.5262725425720871  1.0000
  H   H16       1.0  0.027092109371757468  0.39824014643215844  0.47359028240957457  1.0000
  H   H17       1.0  0.1837816359547444  0.2764448931924548  0.778156481972054  1.0000
  H   H18       1.0  0.40521968736086944  0.7235435599354504  0.22177344205163516  1.0000
  H   H19       1.0  0.26109372770282846  0.4423283766075485  0.9315633933256817  1.0000
  H   H20       1.0  0.32948334417306324  0.5576226047588975  0.06841542119942554  1.0000
  H   H21       1.0  0.7769255234495633  0.42916720954334414  0.947781418066114  1.0000
  H   H22       1.0  0.8288533635362967  0.5705833491958643  0.051824905886952974  1.0000
  H   H23       1.0  0.7013249403998857  0.2640515254323859  0.7913238905847135  1.0000
  H   H24       1.0  0.9095501532735427  0.7356590330333075  0.20838139965961483  1.0000
  H   H25       1.0  0.23853993940613805  0.1024361092929809  0.34184728310560786  1.0000
  H   H26       1.0  0.896347042937151  0.8982112388264198  0.6581960866796448  1.0000
  H   H27       1.0  0.03428578521070605  0.9519088560195641  0.14703777668879084  1.0000
  H   H28       1.0  0.8870772387630338  0.048299080074180295  0.8533372091507585  1.0000
  C   C1        1.0  0.611619671664002  0.1369430346957259  0.41948945775050095  1.0000
  C   C2        1.0  0.192468332759404  0.8631159054489004  0.5806102579054198  1.0000
  C   C3        1.0  0.6038467882026168  0.23447928046641658  0.40418856233464595  1.0000
  C   C4        1.0  0.20002691057589322  0.7656455400753898  0.5960541554474473  1.0000
  C   C5        1.0  0.7046517602007257  0.2598222002205475  0.3554904916352015  1.0000
  C   C6        1.0  0.3495131406549063  0.7403408287631236  0.6448577234320324  1.0000
  C   C7        1.0  0.7037571862264757  0.3525961864040141  0.3458522163818926  1.0000
  C   C8        1.0  0.35833364944787155  0.6475438577405012  0.6544441026894318  1.0000
  C   C9        1.0  0.6037617092627556  0.4234255446488077  0.38565243451985504  1.0000
  C   C10       1.0  0.21863721584800552  0.576597029442965  0.6144278234549105  1.0000
  C   C11       1.0  0.5012685125300393  0.3964923630123706  0.4328860806883624  1.0000
  C   C12       1.0  0.06890317814042385  0.6035109359101867  0.5671556734764919  1.0000
  C   C13       1.0  0.5008068595582174  0.3032411690627086  0.44158885963721406  1.0000
  C   C14       1.0  0.059675998802411825  0.6968238183780288  0.5585775389186125  1.0000
  C   C15       1.0  0.6130115328208349  0.5246078884444145  0.38192365082203134  1.0000
  C   C16       1.0  0.2315766325301496  0.47535856724466174  0.6180661351722418  1.0000
  C   C17       1.0  0.656701601230523  0.5391465125619702  0.30107683728912343  1.0000
  C   C18       1.0  0.35593273448593293  0.460761423288048  0.6989702027480718  1.0000
  C   C19       1.0  0.6800978982616288  0.6359119345263481  0.30362659008279996  1.0000
  C   C20       1.0  0.37671669528037194  0.3639800420725336  0.6964026588307559  1.0000
  C   C21       1.0  0.6593461033240757  0.7214280237573404  0.38660984154238065  1.0000
  C   C22       1.0  0.2730021214711371  0.2785004054675326  0.6133605486202923  1.0000
  C   C23       1.0  0.6089626692355596  0.7072972785913691  0.4647910224027285  1.0000
  C   C24       1.0  0.14466049415762675  0.2926604845696517  0.5350698858525716  1.0000
  C   C25       1.0  0.5863790336473259  0.6104490710810281  0.4624667882130281  1.0000
  C   C26       1.0  0.12447765768236244  0.3895314745225206  0.5374029281964495  1.0000
  C   C27       1.0  0.7036664192117713  0.8250426659063522  0.39439623350882874  1.0000
  C   C28       1.0  0.3094603600372566  0.1748509022755513  0.6056050170727614  1.0000
  C   C29       1.0  0.8904077090643624  0.16103176796026733  0.6796389373617655  1.0000
  C   C30       1.0  0.2100031120487814  0.8387998462938809  0.3201735511695745  1.0000
  C   C31       1.0  0.9378349068617522  0.2600478662332009  0.7748057990910763  1.0000
  C   C32       1.0  0.16252901302375733  0.7397930375754171  0.22494367061561607  1.0000
  C   C33       1.0  0.09549936331893585  0.3109924249149359  0.8158223346605167  1.0000
  C   C34       1.0  0.2793085305265138  0.6889253767345451  0.18399240760421517  1.0000
  C   C35       1.0  0.13804670694025126  0.40429051003480504  0.9029863452820874  1.0000
  C   C36       1.0  0.23485924404974406  0.5956143753235494  0.09684587460589712  1.0000
  C   C37       1.0  0.02571804254307617  0.45020591019195416  0.953256775122483  1.0000
  C   C38       1.0  0.07227349960427192  0.549667790764687  0.046438759471463836  1.0000
  C   C39       1.0  0.8677939323646698  0.3973190700410854  0.9112137542172718  1.0000
  C   C40       1.0  0.9562582603798333  0.6024816786949289  0.08841254135450076  1.0000
  C   C41       1.0  0.8241181343766327  0.30404765739010026  0.8237411952052083  1.0000
  C   C42       1.0  0.999936193850431  0.6957103211983976  0.1759442489151297  1.0000
  C   C43       1.0  0.12197498547468648  0.05727461744434949  0.28441447364333766  1.0000
  C   C44       1.0  0.8373085353292571  0.9432026517394192  0.7157807284332945  1.0000
  O   O1        1.0  0.7302397814586072  0.0886101296618591  0.40499372806227285  1.0000
  O   O2        1.0  0.325568387885575  0.9113058144472246  0.594897861339838  1.0000
  O   O3        1.0  0.5012465233414147  0.10787939130177901  0.4471676997350897  1.0000
  O   O4        1.0  0.05442461254260421  0.8922261476199651  0.5529816761543387  1.0000
  O   O5        1.0  0.7040744112272962  0.9040688748771615  0.47775049507487927  1.0000
  O   O6        1.0  0.22646567599850428  0.0958534607414592  0.5222474492319404  1.0000
  O   O7        1.0  0.7535579173958383  0.8341790607250276  0.3235144857533285  1.0000
  O   O8        1.0  0.4302923155472484  0.16568803061015558  0.6764755779880572  1.0000
  O   O9        1.0  0.9888999287419722  0.1297056861090766  0.6283518512504994  1.0000
  O   O10       1.0  0.35971299529044387  0.8701525548408141  0.37166321261555163  1.0000
  O   O11       1.0  0.7519785960770802  0.1122545620251998  0.6543801144379342  1.0000
  O   O12       1.0  0.0966575016027634  0.8875383763950283  0.3452277251308261  1.0000
  O   O13       1.0  0.992741453399745  0.0616188249347189  0.3021425234730373  1.0000
  O   O14       1.0  0.6903826770810823  0.9387042536417098  0.6981816190508708  1.0000
  O   O15       1.0  0.13858956123763033  0.9949974521381932  0.19195318819070922  1.0000
  O   O16       1.0  0.9464133732783822  0.005366489865537003  0.8082813804852618  1.0000
