data_image0
_chemical_formula_structural       Ag4H28C44N16O16F16
_chemical_formula_sum              "Ag4 H28 C44 N16 O16 F16"
_cell_length_a       6.438035506
_cell_length_b       11.328158236074819
_cell_length_c       18.417
_cell_angle_alpha    95.75606851330932
_cell_angle_beta     90.0
_cell_angle_gamma    90.0

_space_group_name_H-M_alt    "P 1"
_space_group_IT_number       1

loop_
  _space_group_symop_operation_xyz
  'x, y, z'

loop_
  _atom_site_type_symbol
  _atom_site_label
  _atom_site_symmetry_multiplicity
  _atom_site_fract_x
  _atom_site_fract_y
  _atom_site_fract_z
  _atom_site_occupancy
  Ag  Ag1       1.0  0.3240569266907088  0.4226397715301005  0.3904549030800979  1.0000
  Ag  Ag2       1.0  0.8240650420544569  0.0773602043816197  0.609545638410495  1.0000
  Ag  Ag3       1.0  0.6759360050040684  0.5773601802933399  0.6095456369244943  1.0000
  Ag  Ag4       1.0  0.17593565598456  0.9226361985236977  0.3904541396856587  1.0000
  H   H1        1.0  0.9560136775051833  0.5760364338350499  0.4113757959459932  1.0000
  H   H2        1.0  0.45601332848567483  0.9239599449819879  0.5886223517343652  1.0000
  H   H3        1.0  0.043988573802685914  0.4239617435293255  0.5886240916160829  1.0000
  H   H4        1.0  0.5439873695533493  0.0760382323823947  0.4113753639213158  1.0000
  H   H5        1.0  0.6926740301205145  0.5529294279639956  0.4319609730296463  1.0000
  H   H6        1.0  0.19267989417640052  0.9470704997711579  0.5680368506059635  1.0000
  H   H7        1.0  0.3073251146496574  0.4470722983185027  0.5680385904876815  1.0000
  H   H8        1.0  0.8073239104003136  0.0529276775932175  0.4319608650497244  1.0000
  H   H9        1.0  0.5085246884626287  0.2140352517406399  0.2962232725695059  1.0000
  H   H10       1.0  0.0085367655939095  0.2859647241710732  0.7037788978508813  1.0000
  H   H11       1.0  0.4914697965009935  0.7859700234599742  0.7037754239264729  1.0000
  H   H12       1.0  0.9914701455205022  0.714033453193302  0.296220446734594  1.0000
  H   H13       1.0  0.1560336222227718  0.2730076241195931  0.2515216855116051  1.0000
  H   H14       1.0  0.6560495039307741  0.2269843667263629  0.7484810782653213  1.0000
  H   H15       1.0  0.8439608627408504  0.726987891556199  0.7484812957111728  1.0000
  H   H16       1.0  0.3439558539147925  0.7730129234084869  0.251516582657402  1.0000
  H   H17       1.0  0.744994338029052  0.8884885083852723  0.9655083528216792  1.0000
  H   H18       1.0  0.24498777593414192  0.6115087576612908  0.0344876776852558  1.0000
  H   H19       1.0  0.255007913278817  0.1115123306676935  0.0344889840562956  1.0000
  H   H20       1.0  0.7550098155671776  0.3884929686212004  0.9655124288086724  1.0000
  H   H21       1.0  0.8655217876333341  0.7456960134190851  0.9508201698803233  1.0000
  H   H22       1.0  0.3655121190007336  0.75429947816842  0.0491817239032528  1.0000
  H   H23       1.0  0.13448201694338743  0.2543039384043482  0.0491814560774699  1.0000
  H   H24       1.0  0.6344839192317411  0.2457013608845457  0.9508177848811101  1.0000
  H   H25       1.0  0.023949852382187907  0.8745581175397277  0.9717049714753543  1.0000
  H   H26       1.0  0.5239393285197593  0.625436486818252  0.02829741055186469  1.0000
  H   H27       1.0  0.9760539521945262  0.1254409470541802  0.0282955137962801  1.0000
  H   H28       1.0  0.4760613695192647  0.3745643522347137  0.9717031841856923  1.0000
  C   C1        1.0  0.8253433823171576  0.4274467811219225  0.3581044353534182  1.0000
  C   C2        1.0  0.3253507996418962  0.0725523075602723  0.641897137357418  1.0000
  C   C3        1.0  0.17465420918416194  0.5725549451605758  0.6418967570937041  1.0000
  C   C4        1.0  0.674651451665973  0.9274458698041101  0.3581016642514641  1.0000
  C   C5        1.0  0.6519317882121669  0.2651875830449697  0.3009952880817011  1.0000
  C   C6        1.0  0.15194231207459552  0.23481150563722514  0.6990089995121167  1.0000
  C   C7        1.0  0.3480642500203075  0.7348141432375286  0.6990075332952088  1.0000
  C   C8        1.0  0.8480614925021186  0.7651875589566828  0.30098931385312966  1.0000
  C   C9        1.0  0.8312147385662456  0.2257111923512696  0.2627371186446226  1.0000
  C   C10       1.0  0.33122681569752643  0.2742834601832698  0.7372658093311983  1.0000
  C   C11       1.0  0.1687828529350739  0.7742878722426382  0.737265538533407  1.0000
  C   C12       1.0  0.6687785421480399  0.725715604410631  0.262731418080854  1.0000
  C   C13       1.0  0.008709178436149002  0.2957313468338185  0.27840431190703185  1.0000
  C   C14       1.0  0.5087235068752989  0.2042650801597787  0.7215976395815105  1.0000
  C   C15       1.0  0.9912868597963256  0.7042694922191473  0.7215989977135209  1.0000
  C   C16       1.0  0.49128340423911965  0.7957330972045966  0.2784000760741705  1.0000
  C   C17       1.0  0.8344237920082096  0.1182197859120961  0.2108472730393771  1.0000
  C   C18       1.0  0.3344405289460327  0.3817775283110336  0.7891558191353241  1.0000
  C   C19       1.0  0.16557069295541996  0.8817792786818117  0.7891548411620519  1.0000
  C   C20       1.0  0.6655617223618364  0.618226859660048  0.2108433656042905  1.0000
  C   C21       1.0  0.6685284658633535  0.0856451537297929  0.16343242031593516  1.0000
  C   C22       1.0  0.1685483093388811  0.4143494988047464  0.8365705076598786  1.0000
  C   C23       1.0  0.3314629125625715  0.9143539108641078  0.8365707798386878  1.0000
  C   C24       1.0  0.8314554952378332  0.5856495657891614  0.16342563379897262  1.0000
  C   C25       1.0  0.6750863669436882  0.9860127782879927  0.112787020574693  1.0000
  C   C26       1.0  0.17509223099957444  0.5139862622176352  0.8872156351173359  1.0000
  C   C27       1.0  0.3249065647510889  0.013990722453563401  0.8872153672915458  1.0000
  C   C28       1.0  0.8249069137705973  0.4860163512943885  0.11278398313295672  1.0000
  C   C29       1.0  0.8495262250266934  0.9115955142563266  0.1057197224068602  1.0000
  C   C30       1.0  0.34953208908257954  0.5884035262492944  0.894279132448979  1.0000
  C   C31       1.0  0.1504713664746262  0.088408873714755  0.8942816342391423  1.0000
  C   C32       1.0  0.6504655024187402  0.4115973128036714  0.10571929038219  1.0000
  C   C33       1.0  0.0142947332170209  0.9415031344723985  0.1536813471900658  1.0000
  C   C34       1.0  0.5143059551184805  0.5584941315741645  0.8463201130828395  1.0000
  C   C35       1.0  0.9856966452089042  0.0585012534986831  0.8463210954091309  1.0000
  C   C36       1.0  0.48569318965169134  0.4415058202492688  0.1536815128749538  1.0000
  C   C37       1.0  0.005613513620161801  0.041006861632404  0.20444098038633027  1.0000
  C   C38       1.0  0.5056231822527621  0.45898690367261  0.7955608069033245  1.0000
  C   C39       1.0  0.99438563115001  0.9589939774205618  0.7955623292342153  1.0000
  C   C40       1.0  0.49437751578625483  0.5410094992327075  0.2044373422630343  1.0000
  C   C41       1.0  0.8735071427858614  0.8331307091102502  0.981562313289274  1.0000
  C   C42       1.0  0.3735021339598035  0.6668683313953707  0.018438170496366996  1.0000
  C   C43       1.0  0.1264935552531554  0.1668701299427156  0.0184393674014842  1.0000
  C   C44       1.0  0.626495457541516  0.3331333948871205  0.9815586781379722  1.0000
  N   N1        1.0  0.0099114085252481  0.3920001869520391  0.3263412658089635  1.0000
  N   N2        1.0  0.5099179706201511  0.1079971272710907  0.6736618263657377  1.0000
  N   N3        1.0  0.9900877362449236  0.6079997648714013  0.6736614461020237  1.0000
  N   N4        1.0  0.4900873872254152  0.8920019373228172  0.3263370299761092  1.0000
  N   N5        1.0  0.8227307841131977  0.5276691160243985  0.4025821789368464  1.0000
  N   N6        1.0  0.32273354163138634  0.9723316989402803  0.5974184143147099  1.0000
  N   N7        1.0  0.1772699139258194  0.4723317230285673  0.5974184158007105  1.0000
  N   N8        1.0  0.6772671564076305  0.0276682528831529  0.4025804967600948  1.0000
  N   N9        1.0  0.6450306147162124  0.3651029365301781  0.3459340853727184  1.0000
  N   N10       1.0  0.1450426918474932  0.1349005882996579  0.6540688469561147  1.0000
  N   N11       1.0  0.3549638702474098  0.6349014514409035  0.6540661853200902  1.0000
  N   N12       1.0  0.8549611127292209  0.8651002507533079  0.3459306618282483  1.0000
  N   N13       1.0  0.1611842617259427  0.1912591824841599  0.4460925887814255  1.0000
  N   N14       1.0  0.6611846107454513  0.3087399061980278  0.553907354999609  1.0000
  N   N15       1.0  0.8388179895819264  0.808739882109748  0.5539078964902089  1.0000
  N   N16       1.0  0.3388191938312701  0.691260932854938  0.4460916108081534  1.0000
  O   O1        1.0  0.8574944942218822  0.8119321339575478  0.0578850287600901  1.0000
  O   O2        1.0  0.3574988050089233  0.6880669065480802  0.9421138260957562  1.0000
  O   O3        1.0  0.1425046505482896  0.1880722540135409  0.9421168708625132  1.0000
  O   O4        1.0  0.6424956799547061  0.3119303835867697  0.05788383482696701  1.0000
  O   O5        1.0  0.10754522856463213  0.2944954360989769  0.4706471219400257  1.0000
  O   O6        1.0  0.6075486841218449  0.20550276535368536  0.5293538530612453  1.0000
  O   O7        1.0  0.8924523629366874  0.7055018540358731  0.5293548827954808  1.0000
  O   O8        1.0  0.3924566737237285  0.7944980736992804  0.47064402679333034  1.0000
  O   O9        1.0  0.2962301152615012  0.1746023352938977  0.3960108973894094  1.0000
  O   O10       1.0  0.7962304642810099  0.3253976406178225  0.6039896441011834  1.0000
  O   O11       1.0  0.70377368931522  0.8253993909886007  0.6039902950577059  1.0000
  O   O12       1.0  0.2037702337580143  0.6746014239760854  0.396009755217257  1.0000
  O   O13       1.0  0.07696447146621212  0.1012754763542176  0.4711844013522892  1.0000
  O   O14       1.0  0.5769648204857206  0.3987227250984446  0.5288149447191941  1.0000
  O   O15       1.0  0.9230362265728048  0.8987218137806323  0.5288143455236352  1.0000
  O   O16       1.0  0.4230374308221485  0.6012781139545211  0.4711851070417694  1.0000
  F   F1        1.0  0.49469748916914114  0.1532050207265385  0.1650677283079887  1.0000
  F   F2        1.0  0.9947226904902353  0.3467851956603525  0.8349360119562093  1.0000
  F   F3        1.0  0.5052907827190865  0.8467896077197139  0.8349362841350185  1.0000
  F   F4        1.0  0.0052873271618736  0.653211207244965  0.1650621372101497  1.0000
  F   F5        1.0  0.508902132792926  0.9604295147995927  0.0688761681568337  1.0000
  F   F6        1.0  0.0089095501176644  0.5395686384765028  0.9311231749426482  1.0000
  F   F7        1.0  0.49109701197724587  0.0395722114829056  0.9311250242902885  1.0000
  F   F8        1.0  0.9910911479213597  0.46042687719928205  0.0688743765141524  1.0000
  F   F9        1.0  0.1861375257845594  0.8725174896214583  0.15124026826619288  1.0000
  F   F10       1.0  0.6861456411483147  0.6274833253432277  0.8487603249853635  1.0000
  F   F11       1.0  0.8138538526413657  0.1274886728086884  0.8487606548691318  1.0000
  F   F12       1.0  0.3138503970841597  0.3725157392506802  0.1512390743330769  1.0000
  F   F13       1.0  0.1704852355935458  0.0610014663133285  0.24961319465370474  1.0000
  F   F14       1.0  0.6705073303769353  0.43899762236885914  0.7503889210337249  1.0000
  F   F15       1.0  0.829512355907781  0.9390002599691627  0.7503912556530068  1.0000
  F   F16       1.0  0.32951045361942033  0.5610014422250487  0.24960939233152146  1.0000
