data_image0
_chemical_formula_structural       Cu2P2H56C56I2N4
_chemical_formula_sum              "Cu2 P2 H56 C56 I2 N4"
_cell_length_a       9.324842476810629
_cell_length_b       13.071463662554223
_cell_length_c       14.580376316087092
_cell_angle_alpha    107.21976627402695
_cell_angle_beta     101.10149285688183
_cell_angle_gamma    107.59090297206548

_space_group_name_H-M_alt    "P 1"
_space_group_IT_number       1

loop_
  _space_group_symop_operation_xyz
  'x, y, z'

loop_
  _atom_site_type_symbol
  _atom_site_label
  _atom_site_symmetry_multiplicity
  _atom_site_fract_x
  _atom_site_fract_y
  _atom_site_fract_z
  _atom_site_occupancy
  Cu  Cu1       1.0  0.5264023614832354  0.6189503725870651  0.5293304264377312  1.0000
  Cu  Cu2       1.0  0.47359007688086047  0.3810471693707598  0.4706674704078609  1.0000
  P   P1        1.0  0.6977836457488422  0.7537764865861194  0.49833035583042584  1.0000
  P   P2        1.0  0.30221005804922635  0.24622364972904626  0.5016642678845145  1.0000
  H   H1        1.0  0.7863429757799523  0.5553131100541365  0.45096574660496463  1.0000
  H   H2        1.0  0.2136505101482555  0.44468012066521106  0.5490283786640406  1.0000
  H   H3        1.0  0.8668861311089486  0.8567338867779029  0.3732892338534486  1.0000
  H   H4        1.0  0.1331199315019092  0.1432646384621208  0.6267112175632761  1.0000
  H   H5        1.0  0.6689256523581051  0.8520855404297123  0.6924655109693278  1.0000
  H   H6        1.0  0.3310718934435144  0.147915504358906  0.307537352965106  1.0000
  H   H7        1.0  0.6790590167665512  0.11915542369212775  0.4624651574186061  1.0000
  H   H8        1.0  0.3209465682391939  0.8808508600457119  0.5375331947622402  1.0000
  H   H9        1.0  0.7891483961714626  0.0100294433086674  0.5481749462784578  1.0000
  H   H10       1.0  0.2108528270700989  0.9899768055225595  0.45182494003932333  1.0000
  H   H11       1.0  0.2238691824474799  0.6499566328963694  0.49076726637812845  1.0000
  H   H12       1.0  0.7761227880734083  0.3500486687073234  0.509229218567036  1.0000
  H   H13       1.0  0.051846837439860814  0.7116281236293672  0.5880162202150104  1.0000
  H   H14       1.0  0.9481557669897356  0.2883764182498112  0.4119881741309613  1.0000
  H   H15       1.0  0.39567474890435533  0.7646376990034869  0.8593348764357743  1.0000
  H   H16       1.0  0.6043198835958703  0.23535554704378106  0.14066281747788173  1.0000
  H   H17       1.0  0.5517618332209082  0.69436333956601  0.7497153878358278  1.0000
  H   H18       1.0  0.4482360841936668  0.3056342491822193  0.2502824815110999  1.0000
  H   H19       1.0  0.9598537218013803  0.49698963462243034  0.3527961019422464  1.0000
  H   H20       1.0  0.04014619556975427  0.5030097001733296  0.6472038412976886  1.0000
  H   H21       1.0  0.04853910535057105  0.8956110259662255  0.5616996965830695  1.0000
  H   H22       1.0  0.9514536080659965  0.10438911338975741  0.43830235585456034  1.0000
  H   H23       1.0  0.23658307841825624  0.0389632548358492  0.7268916722188195  1.0000
  H   H24       1.0  0.7634054297548828  0.9610351181491836  0.27310735505562184  1.0000
  H   H25       1.0  0.1413019711804537  0.09303536509329291  0.8757831742507848  1.0000
  H   H26       1.0  0.858696457291437  0.9069674138590713  0.1242202569383792  1.0000
  H   H27       1.0  0.8543020676067739  0.0016462314082658993  0.8568517989424932  1.0000
  H   H28       1.0  0.1456923999996108  0.9983530600412324  0.14315023380248712  1.0000
  H   H29       1.0  0.036605889058506834  0.7982686605473648  0.2747519815724929  1.0000
  H   H30       1.0  0.9634114178565196  0.20173687190560233  0.7252537246410571  1.0000
  H   H31       1.0  0.08450516500439426  0.617199437759048  0.26485938868071207  1.0000
  H   H32       1.0  0.915504700562387  0.3827999913622406  0.7351465536136674  1.0000
  H   H33       1.0  0.9863789564255042  0.756575782718137  0.744745133879043  1.0000
  H   H34       1.0  0.013619236041542122  0.24342440342825  0.255256891059922  1.0000
  H   H35       1.0  0.43426342933383916  0.6879464291501804  0.3242333738311772  1.0000
  H   H36       1.0  0.5657345103821995  0.31205979206601603  0.6757668039199843  1.0000
  H   H37       1.0  0.3263944586864441  0.7980648604569823  0.23639469996445692  1.0000
  H   H38       1.0  0.6735990690670517  0.20193700502642994  0.7636031083796979  1.0000
  H   H39       1.0  0.4494759666935693  0.014014741305722101  0.3049882699015498  1.0000
  H   H40       1.0  0.550523717450382  0.9859906308559373  0.6950112008215046  1.0000
  H   H41       1.0  0.14625130635533873  0.7952920699339285  0.0659580752641347  1.0000
  H   H42       1.0  0.8537521682049627  0.20470557478907378  0.9340452652678053  1.0000
  H   H43       1.0  0.9414364092939349  0.7619534304656667  0.0458655456132746  1.0000
  H   H44       1.0  0.05856618259610262  0.23804248009358986  0.9541372276639208  1.0000
  H   H45       1.0  0.08422802001241082  0.6188147322370128  0.9120576397370288  1.0000
  H   H46       1.0  0.915776542548464  0.3811829209256317  0.08794514542680794  1.0000
  H   H47       1.0  0.8803854601704159  0.5822080264077484  0.895269270032486  1.0000
  H   H48       1.0  0.11961976857970312  0.4177887704087553  0.10473405080679753  1.0000
  H   H49       1.0  0.9167963211695068  0.5634758591807058  0.06363045211471531  1.0000
  H   H50       1.0  0.08321069244498601  0.4365244082593875  0.936375377904959  1.0000
  H   H51       1.0  0.12305211239861794  0.6106520871222969  0.08618767734994755  1.0000
  H   H52       1.0  0.8769555185955793  0.3893473182314294  0.9138152516678774  1.0000
  H   H53       1.0  0.06161846482443425  0.9116111637691376  0.9791614109699227  1.0000
  H   H54       1.0  0.9383902932179709  0.08838825461641162  0.020843712021637407  1.0000
  H   H55       1.0  0.910974982322699  0.7854262661690259  0.8803642782976979  1.0000
  H   H56       1.0  0.0890252184739921  0.214571352086999  0.11964004100307332  1.0000
  C   C1        1.0  0.8167017250395927  0.7104246880366318  0.41955709821053955  1.0000
  C   C2        1.0  0.18329555547146012  0.28957376050187383  0.5804422974673145  1.0000
  C   C3        1.0  0.8418869178349199  0.6081619502931446  0.41225241758134973  1.0000
  C   C4        1.0  0.15811122443376044  0.3918339150270711  0.587745703813667  1.0000
  C   C5        1.0  0.8868583201650537  0.7778211039990238  0.36901361851452924  1.0000
  C   C6        1.0  0.11314728158685482  0.2221765518630292  0.6309851746039146  1.0000
  C   C7        1.0  0.8457905197644209  0.8640601436114038  0.6159250398014607  1.0000
  C   C8        1.0  0.1542034674591903  0.1359382761640333  0.384073959974316  1.0000
  C   C9        1.0  0.7931023103829345  0.8948743309173678  0.700156758775947  1.0000
  C   C10       1.0  0.2068950091757458  0.10512412221332572  0.2998453862437458  1.0000
  C   C11       1.0  0.6265827746319345  0.0246724392257676  0.43090098517804887  1.0000
  C   C12       1.0  0.3734218984178169  0.9753321069041903  0.5690947377416864  1.0000
  C   C13       1.0  0.620913775800325  0.8413935562417901  0.4408966573674888  1.0000
  C   C14       1.0  0.37908805505904297  0.15861182935501722  0.5590996406129918  1.0000
  C   C15       1.0  0.6883233089372495  0.9629850698341399  0.47957173939996534  1.0000
  C   C16       1.0  0.31167965873222403  0.0370203299425427  0.5204274398897084  1.0000
  C   C17       1.0  0.2590596003923622  0.6776183467269162  0.572767847305407  1.0000
  C   C18       1.0  0.7409424943687455  0.3223853200340656  0.4272314520649943  1.0000
  C   C19       1.0  0.16427020516094626  0.712672603893019  0.6274576273035708  1.0000
  C   C20       1.0  0.8357345655078772  0.2873319537173984  0.3725449689707504  1.0000
  C   C21       1.0  0.2121160383102066  0.7459635366741112  0.7325581039936966  1.0000
  C   C22       1.0  0.7878838888228401  0.2540357992696869  0.26744252658170353  1.0000
  C   C23       1.0  0.3561286284037451  0.7416363629595467  0.7779840272524015  1.0000
  C   C24       1.0  0.6438675445829174  0.2583620748432267  0.22201454912263335  1.0000
  C   C25       1.0  0.4425203402311979  0.7035310978571232  0.7178933134153668  1.0000
  C   C26       1.0  0.5574744710912539  0.2964690491937816  0.282102129602393  1.0000
  C   C27       1.0  0.9381994006005739  0.5753233665513947  0.3568422148524491  1.0000
  C   C28       1.0  0.06180311319419472  0.4246725348234932  0.6431550597410833  1.0000
  C   C29       1.0  0.005906106323777695  0.9177177442481933  0.6264930806564594  1.0000
  C   C30       1.0  0.9940854995684135  0.08228238437205701  0.373508152478351  1.0000
  C   C31       1.0  0.1118750970698344  0.9993826374013254  0.7198486894360558  1.0000
  C   C32       1.0  0.8881129711569925  0.0006191835877800022  0.28015052107767974  1.0000
  C   C33       1.0  0.05813095596385409  0.029826127973812802  0.802952859369171  1.0000
  C   C34       1.0  0.9418652672211747  0.9701766306551317  0.19704962054981928  1.0000
  C   C35       1.0  0.8978966473590051  0.9781353612091767  0.792641099299587  1.0000
  C   C36       1.0  0.1021002420152683  0.0218665410736207  0.20736191629485035  1.0000
  C   C37       1.0  0.9825606707365606  0.7445747542909373  0.3133107777321555  1.0000
  C   C38       1.0  0.01744783177717585  0.2554220689925515  0.6866915643382897  1.0000
  C   C39       1.0  0.00889540724526946  0.6434026926003966  0.3075027612511364  1.0000
  C   C40       1.0  0.9911119877440837  0.3565941199473528  0.6924987615164967  1.0000
  C   C41       1.0  0.10669980344953717  0.7738194743867199  0.7900183406621368  1.0000
  C   C42       1.0  0.89329255543047  0.22617374330079798  0.2099735906331333  1.0000
  C   C43       1.0  0.4889638649076885  0.7825413483386398  0.35339687952248516  1.0000
  C   C44       1.0  0.5110342410910178  0.21746314256127158  0.646599426264011  1.0000
  C   C45       1.0  0.42848102925923104  0.8445542217233495  0.3045313550057572  1.0000
  C   C46       1.0  0.5715168212108139  0.1554476740744946  0.6954621698596244  1.0000
  C   C47       1.0  0.49755636027335015  0.965720313712758  0.34290988182891624  1.0000
  C   C48       1.0  0.5024456759163128  0.03428334615994541  0.6570852935287306  1.0000
  C   C49       1.0  0.02998534840840244  0.7533915523806342  0.007056797472813481  1.0000
  C   C50       1.0  0.9700183510060112  0.2466043689143547  0.9929467951072013  1.0000
  C   C51       1.0  0.997837951929938  0.6254736142561299  0.9531997121973604  1.0000
  C   C52       1.0  0.0021663662530145536  0.37452576003843063  0.04680144624747134  1.0000
  C   C53       1.0  0.008241403723573711  0.5624668534007924  0.025661297167467047  1.0000
  C   C54       1.0  0.9917638055027354  0.4375299411196211  0.9743406490009009  1.0000
  C   C55       1.0  0.030228974973262403  0.8187824655573978  0.9355102989041558  1.0000
  C   C56       1.0  0.9697745093489586  0.18121518031365016  0.0644937289632352  1.0000
  I   I1        1.0  0.309680683241325  0.4621907762074571  0.3569537088499786  1.0000
  I   I2        1.0  0.6903226950887315  0.5378111721210175  0.6430432251940275  1.0000
  N   N1        1.0  0.3963072017594342  0.6717876576938836  0.6162752176159715  1.0000
  N   N2        1.0  0.603690441991496  0.32821164874212627  0.38371896300558467  1.0000
  N   N3        1.0  0.14930615167600092  0.8088096768693164  0.8863308291160765  1.0000
  N   N4        1.0  0.85069335225689  0.19118447920276793  0.11367042563621516  1.0000
