data_image0
_chemical_formula_structural       FeCu2H16C28N12
_chemical_formula_sum              "Fe1 Cu2 H16 C28 N12"
_cell_length_a       6.775075287936394
_cell_length_b       7.614637601404785
_cell_length_c       13.892288421471434
_cell_angle_alpha    74.08835427185728
_cell_angle_beta     90.78107047362968
_cell_angle_gamma    79.99397751178314

_space_group_name_H-M_alt    "P 1"
_space_group_IT_number       1

loop_
  _space_group_symop_operation_xyz
  'x, y, z'

loop_
  _atom_site_type_symbol
  _atom_site_label
  _atom_site_symmetry_multiplicity
  _atom_site_fract_x
  _atom_site_fract_y
  _atom_site_fract_z
  _atom_site_occupancy
  Fe  Fe1       1.0  0.9917971220533846  0.0001250590902798994  0.9886827630538945  1.0000
  Cu  Cu1       1.0  0.5631623106829695  0.525428075462642  0.07721312980172003  1.0000
  Cu  Cu2       1.0  0.4309448817561333  0.46929078423036685  0.9154651615146179  1.0000
  H   H1        1.0  0.907256370056409  0.34117743745583345  0.19967024397617908  1.0000
  H   H2        1.0  0.08631641856512579  0.6581374673593599  0.7976077442789773  1.0000
  H   H3        1.0  0.18022006333556112  0.4020435397586438  0.08474561524761977  1.0000
  H   H4        1.0  0.80988392380975  0.5979075264294947  0.9103285712279501  1.0000
  H   H5        1.0  0.5275841133860413  0.5167282234759225  0.30105270315468147  1.0000
  H   H6        1.0  0.4687772225260576  0.4852634273211577  0.691002795818207  1.0000
  H   H7        1.0  0.14666712926027264  0.0586999637655623  0.7938555726511751  1.0000
  H   H8        1.0  0.8685607567296358  0.9243562816384097  0.21197519209174945  1.0000
  H   H9        1.0  0.5767613134062942  0.039742412865919584  0.8962040354958205  1.0000
  H   H10       1.0  0.4384969959186691  0.9617426821556944  0.11642059579455834  1.0000
  H   H11       1.0  0.9479900201200453  0.3722711386573536  0.37562451761694854  1.0000
  H   H12       1.0  0.05108706202572219  0.6273168838409902  0.6213119103515155  1.0000
  H   H13       1.0  0.6586903742648078  0.08660499450643037  0.5819999589780025  1.0000
  H   H14       1.0  0.3365513755147448  0.9255552908030394  0.42790835965519847  1.0000
  H   H15       1.0  0.4321240260928009  0.07237266527774719  0.7244152648130678  1.0000
  H   H16       1.0  0.5728011909047483  0.9410756455256504  0.29037992746355457  1.0000
  C   C1        1.0  0.7217422773268325  0.7099451930938089  0.06898030156546038  1.0000
  C   C2        1.0  0.27179928160133937  0.2864385694206675  0.9232093341495613  1.0000
  C   C3        1.0  0.6858302748252926  0.3100715168386045  0.0374174939289063  1.0000
  C   C4        1.0  0.3154718492376817  0.6825364307992527  0.9598729695204398  1.0000
  C   C5        1.0  0.04245091074745492  0.3774227467546182  0.22632694483544918  1.0000
  C   C6        1.0  0.9519750021323362  0.622328730446739  0.7698403495692858  1.0000
  C   C7        1.0  0.19422297765976285  0.4120950469063018  0.1612319649430987  1.0000
  C   C8        1.0  0.7981977106645604  0.5881014322523084  0.833723060160949  1.0000
  C   C9        1.0  0.3892999281579179  0.47652619454979817  0.2809208513364112  1.0000
  C   C10       1.0  0.6065403346296636  0.5246744887698114  0.7124180981839956  1.0000
  C   C11       1.0  0.24181201559063953  0.4450389479692588  0.35060208655014685  1.0000
  C   C12       1.0  0.7559405675949123  0.556330055798142  0.6438946226087552  1.0000
  C   C13       1.0  0.9896819630331424  0.06172826305108  0.7752208424665524  1.0000
  C   C14       1.0  0.02305928355789184  0.9287269231158957  0.23264895551032078  1.0000
  C   C15       1.0  0.6703155462948871  0.051717965265204696  0.8326120366837912  1.0000
  C   C16       1.0  0.3426829001492778  0.9478946419308798  0.17944731821611978  1.0000
  C   C17       1.0  0.06453476129993162  0.39394656838616265  0.3227133887787019  1.0000
  C   C18       1.0  0.932810453583905  0.6061515777130209  0.6732602303204445  1.0000
  C   C19       1.0  0.920082065657404  0.07509920230228319  0.6778229616369699  1.0000
  C   C20       1.0  0.08361615600094308  0.9248972139421096  0.33038553914870755  1.0000
  C   C21       1.0  0.26518004773272014  0.47119325597540046  0.44751787180044994  1.0000
  C   C22       1.0  0.7342633860541526  0.5313505589158467  0.5466380459594403  1.0000
  C   C23       1.0  0.7154730376855271  0.07912622153855858  0.6569672880608477  1.0000
  C   C24       1.0  0.2858967494446105  0.927330662080081  0.3528422953788564  1.0000
  C   C25       1.0  0.5917031107361768  0.06912767415498419  0.7365878022301543  1.0000
  C   C26       1.0  0.4157621627867273  0.9376980672106752  0.2757199805199591  1.0000
  C   C27       1.0  0.06790086817677833  0.07385847799028508  0.6059661802464332  1.0000
  C   C28       1.0  0.9325328529216323  0.9295188613063701  0.40032514910170386  1.0000
  N   N1        1.0  0.8259844123364319  0.8210527138669973  0.04312844536325144  1.0000
  N   N2        1.0  0.16500116423347322  0.1765212767517355  0.9437018802371497  1.0000
  N   N3        1.0  0.7998313550428551  0.18808736770563425  0.019882972559806006  1.0000
  N   N4        1.0  0.1928913840086111  0.8080125559144875  0.9678553088619637  1.0000
  N   N5        1.0  0.8684717373039919  0.046911793292693495  0.8521669818633341  1.0000
  N   N6        1.0  0.1500401907445124  0.941581473964085  0.1598635791707465  1.0000
  N   N7        1.0  0.3650166347260608  0.46136768497271413  0.18753873745271216  1.0000
  N   N8        1.0  0.6282689677630559  0.5389393906336791  0.8061551168358391  1.0000
  N   N9        1.0  0.2768201489402601  0.49615693104863823  0.5264544236830773  1.0000
  N   N10       1.0  0.722812245157485  0.5076861844028713  0.4673744458647845  1.0000
  N   N11       1.0  0.1993000033946332  0.06584047085154049  0.5529124323065773  1.0000
  N   N12       1.0  0.7991353128970645  0.9411196635406753  0.45198817437339756  1.0000
