data_image0
_chemical_formula_structural       Cd2H16C16S4N8O4
_chemical_formula_sum              "Cd2 H16 C16 S4 N8 O4"
_cell_length_a       8.701134635581436
_cell_length_b       8.701151170759275
_cell_length_c       8.921388060800897
_cell_angle_alpha    96.7423111879801
_cell_angle_beta     96.7422893383536
_cell_angle_gamma    113.07047222351015

_space_group_name_H-M_alt    "P 1"
_space_group_IT_number       1

loop_
  _space_group_symop_operation_xyz
  'x, y, z'

loop_
  _atom_site_type_symbol
  _atom_site_label
  _atom_site_symmetry_multiplicity
  _atom_site_fract_x
  _atom_site_fract_y
  _atom_site_fract_z
  _atom_site_occupancy
  Cd  Cd1       1.0  0.22714181658176355  0.7728661326228802  0.7500046700305063  1.0000
  Cd  Cd2       1.0  0.7728631185623485  0.22714222330900918  0.24999994564008432  1.0000
  H   H1        1.0  0.029656481952820033  0.8560558743042465  0.10684402280210045  1.0000
  H   H2        1.0  0.14395966190995324  0.9703593960248825  0.3931632714393062  1.0000
  H   H3        1.0  0.9703475625079818  0.1439474405854355  0.8931554033329192  1.0000
  H   H4        1.0  0.8560454249181433  0.0296464580987248  0.6068365808398966  1.0000
  H   H5        1.0  0.24081467607030044  0.3989683086971141  0.1043487552488145  1.0000
  H   H6        1.0  0.6010221123175156  0.7591737394341108  0.3956554256044954  1.0000
  H   H7        1.0  0.7591783407305213  0.6010222773235937  0.8956512071281895  1.0000
  H   H8        1.0  0.3989701435217015  0.2408206441745335  0.6043460190177897  1.0000
  H   H9        1.0  0.4554088867844897  0.54768627508642  0.12339852872218424  1.0000
  H   H10       1.0  0.45230707243709395  0.544585376033119  0.37660667432112405  1.0000
  H   H11       1.0  0.544589157625353  0.4523081139694511  0.876603605279513  1.0000
  H   H12       1.0  0.5476891777281524  0.4554102804608249  0.6233953970008983  1.0000
  H   H13       1.0  0.3002172606956676  0.5266865190847553  0.9618448286291112  1.0000
  H   H14       1.0  0.4733045548194498  0.699771265302445  0.5381544825517537  1.0000
  H   H15       1.0  0.6997791502378589  0.4733066446849534  0.03815136052075022  1.0000
  H   H16       1.0  0.5266866859053465  0.3002206063244303  0.46184317958402943  1.0000
  C   C1        1.0  0.11891670849274753  0.820042230537453  0.17351408354342376  1.0000
  C   C2        1.0  0.1799690785491563  0.8810910882980069  0.32648946302485643  1.0000
  C   C3        1.0  0.8810829448894921  0.17995601278954607  0.8264830957706835  1.0000
  C   C4        1.0  0.8200339326286326  0.11890969644179707  0.6735084181852004  1.0000
  C   C5        1.0  0.2798324790793102  0.654758355713298  0.1721592044308125  1.0000
  C   C6        1.0  0.3452396207122064  0.7201597041690206  0.32784975800584  1.0000
  C   C7        1.0  0.7201619677570434  0.3452385591346641  0.8278439229923151  1.0000
  C   C8        1.0  0.6547595904960558  0.27983469506034436  0.672151395090971  1.0000
  C   C9        1.0  0.39648456431108065  0.13095679403645735  0.025358786218099307  1.0000
  C   C10       1.0  0.8690571773026932  0.6035131554084001  0.474625624150562  1.0000
  C   C11       1.0  0.6035147003581685  0.8690516745408344  0.9746305959230244  1.0000
  C   C12       1.0  0.13095005889478267  0.39648382592774567  0.5253723072226393  1.0000
  C   C13       1.0  0.32316129080501804  0.5256427285467921  0.08482121012781361  1.0000
  C   C14       1.0  0.474351208839849  0.6768250027397615  0.4151831512571605  1.0000
  C   C15       1.0  0.6768331741999204  0.47435420446927173  0.9151796797337681  1.0000
  C   C16       1.0  0.5256429656750968  0.3231655843703862  0.58481694899573  1.0000
  S   S1        1.0  0.24871717282917422  0.0836653377829606  0.8754923969636437  1.0000
  S   S2        1.0  0.9163467700353608  0.7512952363744105  0.6245132503018311  1.0000
  S   S3        1.0  0.7512918265663371  0.9163417074695062  0.12451815104225261  1.0000
  S   S4        1.0  0.0836627467501003  0.2487244371015436  0.3755067083868653  1.0000
  N   N1        1.0  0.16798622485372042  0.7078015709452571  0.09572261960742172  1.0000
  N   N2        1.0  0.2922018493929742  0.8320100159914433  0.40428080207307465  1.0000
  N   N3        1.0  0.8320104765697921  0.2921979387303678  0.9042743591511312  1.0000
  N   N4        1.0  0.7077973799838728  0.16798440140601653  0.5957181134621905  1.0000
  N   N5        1.0  0.5033605234866201  0.16745661912882778  0.13450212926826308  1.0000
  N   N6        1.0  0.832564340490869  0.4966404852721098  0.365485722578029  1.0000
  N   N7        1.0  0.4966385894986374  0.8325543512567463  0.8654920162642556  1.0000
  N   N8        1.0  0.16744560788738744  0.5033602969203274  0.6345141046681064  1.0000
  O   O1        1.0  0.10473556223639947  0.6496811205239013  0.9501253425340151  1.0000
  O   O2        1.0  0.3503238748008782  0.8952599761367138  0.5498776853837484  1.0000
  O   O3        1.0  0.8952629334317167  0.3503171217136511  0.04987169890421235  1.0000
  O   O4        1.0  0.6496764241961371  0.1047370077468202  0.4501182999533811  1.0000
