data_image0
_chemical_formula_structural       Cd2H56C52N8O8
_chemical_formula_sum              "Cd2 H56 C52 N8 O8"
_cell_length_a       9.341761937028767
_cell_length_b       11.131389379979995
_cell_length_c       12.577
_cell_angle_alpha    87.4307606674603
_cell_angle_beta     82.51068108248208
_cell_angle_gamma    72.43833429325845

_space_group_name_H-M_alt    "P 1"
_space_group_IT_number       1

loop_
  _space_group_symop_operation_xyz
  'x, y, z'

loop_
  _atom_site_type_symbol
  _atom_site_label
  _atom_site_symmetry_multiplicity
  _atom_site_fract_x
  _atom_site_fract_y
  _atom_site_fract_z
  _atom_site_occupancy
  Cd  Cd1       1.0  0.9499338230058146  0.6519350740665857  0.9157445304314465  1.0000
  Cd  Cd2       1.0  0.0500669966316138  0.3480633736935843  0.08425457718848862  1.0000
  H   H1        1.0  0.5905400290446181  0.7534643551718005  0.9403722609984939  1.0000
  H   H2        1.0  0.40946193602895414  0.2465369194684044  0.05962900888043521  1.0000
  H   H3        1.0  0.3697217778585297  0.8804553447676825  0.0647688525871999  1.0000
  H   H4        1.0  0.6302808631541054  0.119544045285835  0.9352324266215464  1.0000
  H   H5        1.0  0.6831625564858399  0.884880354318483  0.2858192510501638  1.0000
  H   H6        1.0  0.3168361695706281  0.1151209203217292  0.7141815373057838  1.0000
  H   H7        1.0  0.8912896261031235  0.7579515560834124  0.15294941295494624  1.0000
  H   H8        1.0  0.1087097758924074  0.2420478339701049  0.8470537700373342  1.0000
  H   H9        1.0  0.27988937098529476  0.0099534446092662  0.22450545155666654  1.0000
  H   H10       1.0  0.7201118523854433  0.9900468877375986  0.7754951324114006  1.0000
  H   H11       1.0  0.3453718090380489  0.8914340045369258  0.31982656076463917  1.0000
  H   H12       1.0  0.654628738393626  0.1085682123966265  0.6801740138736038  1.0000
  H   H13       1.0  0.3333011703488679  0.2119632343260704  0.23775546195503242  1.0000
  H   H14       1.0  0.6666975557076  0.7880380403141415  0.7622453264009155  1.0000
  H   H15       1.0  0.5280512467281611  0.1259280827020746  0.20351429789062794  1.0000
  H   H16       1.0  0.47194639965593405  0.8740731919381304  0.7964850047873783  1.0000
  H   H17       1.0  0.598176811710708  0.19435742545742582  0.3647704616086003  1.0000
  H   H18       1.0  0.40182299401812566  0.8056438491827862  0.6352278369144386  1.0000
  H   H19       1.0  0.49455709472545806  0.3281904070354926  0.29293050374181473  1.0000
  H   H20       1.0  0.5054416313310098  0.6718108676047123  0.7070686944097986  1.0000
  H   H21       1.0  0.2550194256701062  0.21279433705686296  0.5603874533089555  1.0000
  H   H22       1.0  0.7449811217615689  0.7872078798766893  0.4396107360227718  1.0000
  H   H23       1.0  0.4483860817653208  0.1217932995017108  0.5311325634036592  1.0000
  H   H24       1.0  0.5516126442911471  0.878207975138494  0.46886822495228847  1.0000
  H   H25       1.0  0.2876391837320043  0.0105225897899857  0.4705998854227076  1.0000
  H   H26       1.0  0.7123588663854008  0.9894805694369139  0.529400098501249  1.0000
  H   H27       1.0  0.1901591152329871  0.143315279514546  0.3953881649288533  1.0000
  H   H28       1.0  0.8098400145567837  0.8566878797123537  0.6046117144687032  1.0000
  H   H29       1.0  0.45918369390713565  0.4358577869937577  0.4496695589460629  1.0000
  H   H30       1.0  0.5408196888083339  0.564142545353107  0.5503292257648624  1.0000
  H   H31       1.0  0.5378263707515956  0.3054170614597425  0.5318346989361373  1.0000
  H   H32       1.0  0.46217876757530957  0.6945813863004275  0.4681639905782121  1.0000
  H   H33       1.0  0.29911997502802024  0.5108973175682863  0.8550725179322713  1.0000
  H   H34       1.0  0.7008801029065738  0.4891001878985435  0.1449282890833175  1.0000
  H   H35       1.0  0.48808152457210224  0.39750927470906566  0.7045219670661851  1.0000
  H   H36       1.0  0.5119218581433743  0.6024910576377991  0.2954784078490817  1.0000
  H   H37       1.0  0.12232809753304248  0.4647258859286652  0.51241001747632  1.0000
  H   H38       1.0  0.8776774445271728  0.5352744464181995  0.48758776307963814  1.0000
  H   H39       1.0  0.9454705701464191  0.5733675972062429  0.6728303515594123  1.0000
  H   H40       1.0  0.05453166713290609  0.4266299082605798  0.3271670659947007  1.0000
  H   H41       1.0  0.7332938212392577  0.4058316095371453  0.6683776075334862  1.0000
  H   H42       1.0  0.26670160003632754  0.5941668382230247  0.331622817820616  1.0000
  H   H43       1.0  0.8839681720045504  0.2568531470157183  0.5242187396424285  1.0000
  H   H44       1.0  0.11602508992629623  0.7431453007444588  0.4757834849688153  1.0000
  H   H45       1.0  0.052161202476284495  0.0473568366683494  0.571736290413611  1.0000
  H   H46       1.0  0.9478346225326033  0.9526434956785153  0.4282648161864487  1.0000
  H   H47       1.0  0.9098851799138287  0.1317552247510889  0.9072086991883384  1.0000
  H   H48       1.0  0.09011563972359939  0.8682432230090882  0.09279199863594562  1.0000
  H   H49       1.0  0.7225360768881328  0.3152593154542274  0.9631802518985708  1.0000
  H   H50       1.0  0.277460827793128  0.6847410168926373  0.03681995507291453  1.0000
  H   H51       1.0  0.6010215265585542  0.40707637904664307  0.8706767256125477  1.0000
  H   H52       1.0  0.39897537812270656  0.5929239533002217  0.12932427646111222  1.0000
  H   H53       1.0  0.18134751754275413  0.9732505088528001  0.8246221308520064  1.0000
  H   H54       1.0  0.8186512085137068  0.0267507657874049  0.1753786575039413  1.0000
  H   H55       1.0  0.17587538156360694  0.9077969284827603  0.7005395352537321  1.0000
  H   H56       1.0  0.8241226027900266  0.0922034038640973  0.29946056719135333  1.0000
  C   C1        1.0  0.6055109706690089  0.7854806561742579  0.017652655534398307  1.0000
  C   C2        1.0  0.39449059067126047  0.2145187338792596  0.982349523302915  1.0000
  C   C3        1.0  0.4838878488139287  0.8550567699311672  0.0874668564102947  1.0000
  C   C4        1.0  0.5161137125263409  0.1449426201223503  0.9125337322226772  1.0000
  C   C5        1.0  0.5089859894418467  0.8920643987851165  0.1866720623049076  1.0000
  C   C6        1.0  0.49101597563172555  0.10793687585509561  0.8133292075740217  1.0000
  C   C7        1.0  0.6584795024490903  0.8570676239306181  0.2100820013512887  1.0000
  C   C8        1.0  0.3415209792188136  0.1429317661228993  0.789918691808083  1.0000
  C   C9        1.0  0.7741214732729561  0.787439684039704  0.13623254703785656  1.0000
  C   C10       1.0  0.22587968433400352  0.2125578214271258  0.8637705407578481  1.0000
  C   C11       1.0  0.37917544664242797  0.9620777366543649  0.26612059439779767  1.0000
  C   C12       1.0  0.6208254387587786  0.03792353798584  0.7338791898031831  1.0000
  C   C13       1.0  0.4383879285964696  0.1585644127259229  0.2708642777135283  1.0000
  C   C14       1.0  0.5616097177876257  0.8414368619142891  0.7291358200666525  1.0000
  C   C15       1.0  0.4849127203289711  0.2449142903273369  0.3402372168218265  1.0000
  C   C16       1.0  0.5150866816665597  0.7550850997261804  0.6597619906596037  1.0000
  C   C17       1.0  0.3466248446279678  0.1780906154328363  0.4947005772738536  1.0000
  C   C18       1.0  0.6533724637865959  0.821911601500716  0.5052987207392406  1.0000
  C   C19       1.0  0.3007695451890696  0.09302885283482  0.42330665276710294  1.0000
  C   C20       1.0  0.6992299225702322  0.9069733640987323  0.5766932312953658  1.0000
  C   C21       1.0  0.4303660143837149  0.3618274525923368  0.501598381690485  1.0000
  C   C22       1.0  0.5696387859736588  0.6381719374611805  0.4984003031589524  1.0000
  C   C23       1.0  0.2648427723846963  0.49905740168118484  0.7774534081029999  1.0000
  C   C24       1.0  0.7351598686279459  0.5009419883723325  0.22254628090140474  1.0000
  C   C25       1.0  0.3691001431721189  0.43720338189123004  0.6933179587154968  1.0000
  C   C26       1.0  0.6309021598709847  0.5627969504556276  0.3066817256239959  1.0000
  C   C27       1.0  0.31946996404609956  0.4243099820437877  0.5953895327620202  1.0000
  C   C28       1.0  0.6805359159836472  0.5756894080097297  0.4046090475610171  1.0000
  C   C29       1.0  0.16468557060597536  0.47433822034682993  0.5872965871580292  1.0000
  C   C30       1.0  0.8353185538123356  0.5256630542933749  0.4127004981572426  1.0000
  C   C31       1.0  0.0671602025036719  0.5338977558403215  0.6754320286749975  1.0000
  C   C32       1.0  0.9328431144480263  0.4660997496265082  0.3245660794548897  1.0000
  C   C33       1.0  0.807568707495399  0.2760184513712787  0.7973301495266157  1.0000
  C   C34       1.0  0.19242887312492477  0.7239799963888913  0.20267086187686098  1.0000
  C   C35       1.0  0.8022075693714823  0.3116371398338558  0.6889342441640524  1.0000
  C   C36       1.0  0.19778609629266702  0.6883631925130089  0.3110670714887931  1.0000
  C   C37       1.0  0.8885426225296554  0.2289245145463426  0.608342614931921  1.0000
  C   C38       1.0  0.11145354044877114  0.7710748755071747  0.3916584963330437  1.0000
  C   C39       1.0  0.9834540758132062  0.11104173242875251  0.6350425919014029  1.0000
  C   C40       1.0  0.01654316683758589  0.8889576576247648  0.3649592099393289  1.0000
  C   C41       1.0  0.9933086794147171  0.074860494838866  0.742501817451874  1.0000
  C   C42       1.0  0.006688901205606543  0.9251379529213041  0.2574983988494353  1.0000
  C   C43       1.0  0.9029197395759495  0.157662637994207  0.822633990334957  1.0000
  C   C44       1.0  0.09707750307484271  0.8423367520593104  0.17736701640360764  1.0000
  C   C45       1.0  0.7190203621634268  0.3657869692304203  0.8861967389199138  1.0000
  C   C46       1.0  0.2809765425178341  0.6342133631164373  0.1138034680515716  1.0000
  C   C47       1.0  0.7878314940675891  0.4733506969206688  0.8919192367857889  1.0000
  C   C48       1.0  0.2121668282555689  0.5266486931328487  0.10808007522204122  1.0000
  C   C49       1.0  0.10487505563206416  0.953588615904124  0.7731205960230341  1.0000
  C   C50       1.0  0.8951250880663009  0.0464117164427407  0.2268792973692585  1.0000
  C   C51       1.0  0.0383731651201558  0.8549898671036331  0.830293451107238  1.0000
  C   C52       1.0  0.9616283962201135  0.1450095229498842  0.16970634242356655  1.0000
  N   N1        1.0  0.7489541545709881  0.7525635227334391  0.041035504170750414  1.0000
  N   N2        1.0  0.2510463270969154  0.2474358673200783  0.9589651889886214  1.0000
  N   N3        1.0  0.11644489280853779  0.5460024561575239  0.7691721920114035  1.0000
  N   N4        1.0  0.8835576824403262  0.45399410701595844  0.2308268204119628  1.0000
  N   N5        1.0  0.41825397941279613  0.0488569676744959  0.33282639976101086  1.0000
  N   N6        1.0  0.5817447466436719  0.9511443069657091  0.6671743885949369  1.0000
  N   N7        1.0  0.37428290194336705  0.2867869797244609  0.43500632694582464  1.0000
  N   N8        1.0  0.6257204807721023  0.7132133526224038  0.5649924577651007  1.0000
  O   O1        1.0  0.7450384772591933  0.5706330619173983  0.8352088369453696  1.0000
  O   O2        1.0  0.2549587653915991  0.4293663281361191  0.1647905795888605  1.0000
  O   O3        1.0  0.8916331734143838  0.4588629367325225  0.9537104710100905  1.0000
  O   O4        1.0  0.1083673082535128  0.5411364533209948  0.046287836842765315  1.0000
  O   O5        1.0  0.10270279050980238  0.7945426912786147  0.9083775095732494  1.0000
  O   O6        1.0  0.89729735318857  0.20545764106825  0.09162238381904332  1.0000
  O   O7        1.0  0.926849745136316  0.8330598740721625  0.7953063808445936  1.0000
  O   O8        1.0  0.07314965685921487  0.1669395159813547  0.20469362173900416  1.0000
