data_image0
_chemical_formula_structural       Cu4H40C44S8N8Cl8
_chemical_formula_sum              "Cu4 H40 C44 S8 N8 Cl8"
_cell_length_a       8.35936424504403
_cell_length_b       12.21120126093592
_cell_length_c       13.216038308895943
_cell_angle_alpha    98.9856221754337
_cell_angle_beta     90.00033677763916
_cell_angle_gamma    90.00010328467299

_space_group_name_H-M_alt    "P 1"
_space_group_IT_number       1

loop_
  _space_group_symop_operation_xyz
  'x, y, z'

loop_
  _atom_site_type_symbol
  _atom_site_label
  _atom_site_symmetry_multiplicity
  _atom_site_fract_x
  _atom_site_fract_y
  _atom_site_fract_z
  _atom_site_occupancy
  Cu  Cu1       1.0  0.0037469517326868987  0.8753444363877136  0.5768758831267605  1.0000
  Cu  Cu2       1.0  0.4962539073793834  0.3753424208278702  0.07687509072927412  1.0000
  Cu  Cu3       1.0  0.9962465506377496  0.1246573422001944  0.4231222562750788  1.0000
  Cu  Cu4       1.0  0.5037503613605451  0.6246543783028217  0.9231245911107993  1.0000
  H   H1        1.0  0.7457990698334598  0.0026183608109206996  0.9298912454120015  1.0000
  H   H2        1.0  0.7542023640785586  0.5026187750084573  0.4298899064660447  1.0000
  H   H3        1.0  0.2542028063898768  0.9973850727019096  0.07010864912454906  1.0000
  H   H4        1.0  0.24580190467672472  0.49738216632020027  0.5701118939120776  1.0000
  H   H5        1.0  0.4870135857677056  0.05911971566448668  0.8588696966768128  1.0000
  H   H6        1.0  0.0129902406654878  0.5591221492233345  0.3588730517011811  1.0000
  H   H7        1.0  0.5129894867291968  0.9408853727664804  0.14113195298010336  1.0000
  H   H8        1.0  0.9870128318244014  0.4408829424779412  0.6411270851178161  1.0000
  H   H9        1.0  0.4560366244109915  0.03777946151651429  0.666309422893562  1.0000
  H   H10       1.0  0.0439701440772637  0.5377827795224874  0.1663145357491373  1.0000
  H   H11       1.0  0.5439616630261809  0.9622239703577617  0.333691228054775  1.0000
  H   H12       1.0  0.9560341246776858  0.4622214814511096  0.8336862363511772  1.0000
  H   H13       1.0  0.6881255741623062  0.9633816224294521  0.5563354605260997  1.0000
  H   H14       1.0  0.8118855881171994  0.46338422598142853  0.056337683510598396  1.0000
  H   H15       1.0  0.3118739095399263  0.0366209787171528  0.4436658257035548  1.0000
  H   H16       1.0  0.18812107316436058  0.5366183751719619  0.9436636027334018  1.0000
  H   H17       1.0  0.0240516439333263  0.7305298593735613  0.7299547401719266  1.0000
  H   H18       1.0  0.4759442669521973  0.23052780538431242  0.22995386658541866  1.0000
  H   H19       1.0  0.975949036021781  0.269471086857166  0.2700447909421442  1.0000
  H   H20       1.0  0.5240528242167528  0.769473139207868  0.770046420940446  1.0000
  H   H21       1.0  0.1136355892616407  0.7347500842153492  0.8533173267540377  1.0000
  H   H22       1.0  0.3863614770931534  0.23475118034291853  0.3533150667310992  1.0000
  H   H23       1.0  0.8863626981688597  0.2652500312843102  0.1466828396341882  1.0000
  H   H24       1.0  0.6136344178020536  0.7652497691535983  0.646682951535496  1.0000
  H   H25       1.0  0.053757600025200206  0.8014545504841663  0.010671756279862171  1.0000
  H   H26       1.0  0.4462424477029501  0.3014495475869055  0.5106701440948669  1.0000
  H   H27       1.0  0.9462514537656118  0.1985447392023332  0.9893267761519413  1.0000
  H   H28       1.0  0.5537582322316225  0.6985464289873562  0.489326390922166  1.0000
  H   H29       1.0  0.0023790174560361  0.8414811864211913  0.19812849109211333  1.0000
  H   H30       1.0  0.49761569825732727  0.34147628565349913  0.6981248150536318  1.0000
  H   H31       1.0  0.9976216624994052  0.15851644016460398  0.8018720682997653  1.0000
  H   H32       1.0  0.5023754115744764  0.658524668743958  0.3018709339465175  1.0000
  H   H33       1.0  0.7378945337839297  0.7910059254856633  0.2670592557517679  1.0000
  H   H34       1.0  0.7621013749456296  0.2910055454142507  0.7670591470482508  1.0000
  H   H35       1.0  0.262107342417373  0.2089900494545773  0.7329380356866154  1.0000
  H   H36       1.0  0.2378909311771054  0.7089987155480274  0.23294162502815405  1.0000
  H   H37       1.0  0.5341869463339677  0.6955764456274095  0.14175215005394648  1.0000
  H   H38       1.0  0.9658242930187767  0.19558225145326696  0.6417552166319355  1.0000
  H   H39       1.0  0.46581971491538343  0.3044153822139251  0.8582452921128194  1.0000
  H   H40       1.0  0.03417160190080179  0.8044203464196258  0.35824758242846144  1.0000
  C   C1        1.0  0.8509260648882558  0.9530064659937948  0.7811929543450377  1.0000
  C   C2        1.0  0.6490728000822585  0.4530037901578723  0.2811922867426659  1.0000
  C   C3        1.0  0.14907102628753682  0.04699613515054318  0.21880833187983484  1.0000
  C   C4        1.0  0.3509314686696854  0.5469954929834772  0.7188092713554115  1.0000
  C   C5        1.0  0.7278249628789553  0.9957123761417179  0.8475550665775277  1.0000
  C   C6        1.0  0.7721770241838898  0.4957115930884938  0.347554377006631  1.0000
  C   C7        1.0  0.2721721282968304  0.004290225002620199  0.15244621964734514  1.0000
  C   C8        1.0  0.22782724457122328  0.5042910080626369  0.6524469092325946  1.0000
  C   C9        1.0  0.5839847944455342  0.027430887653103805  0.8074942115749624  1.0000
  C   C10       1.0  0.9160191592979388  0.5274299384379475  0.30749857222797783  1.0000
  C   C11       1.0  0.416014689249522  0.9725733765862756  0.19250504767786936  1.0000
  C   C12       1.0  0.08398391318861799  0.47257349507601987  0.6925013223109673  1.0000
  C   C13       1.0  0.5670918549549526  0.016046435275320896  0.7015459238086805  1.0000
  C   C14       1.0  0.9329146745010346  0.5160471745830647  0.20155135070464072  1.0000
  C   C15       1.0  0.4329088249999841  0.9839561707778799  0.2984530931664935  1.0000
  C   C16       1.0  0.06708959424540238  0.4839546007447239  0.7984483015566398  1.0000
  C   C17       1.0  0.6943752530293422  0.9733112940212078  0.6396854452433659  1.0000
  C   C18       1.0  0.8056259424788195  0.4733122259143628  0.13968815736032522  1.0000
  C   C19       1.0  0.3056230344061603  0.026691308759417602  0.36031508456494526  1.0000
  C   C20       1.0  0.1943771300064014  0.5266870588610145  0.8603126443164018  1.0000
  C   C21       1.0  0.0115379573684606  0.7629481855434718  0.8118311605580076  1.0000
  C   C22       1.0  0.48845999576732874  0.2629478150595971  0.31182982286699723  1.0000
  C   C23       1.0  0.9884615263217497  0.23705193159247534  0.18816824941364985  1.0000
  C   C24       1.0  0.5115370954016143  0.7370531295325832  0.6881704646588673  1.0000
  C   C25       1.0  0.8176932879074528  0.7302914102061564  0.9771918734073709  1.0000
  C   C26       1.0  0.6823103890040798  0.2302896230880407  0.4771929726588056  1.0000
  C   C27       1.0  0.18231337335741674  0.26970290001067093  0.022808201436355098  1.0000
  C   C28       1.0  0.3176867021583617  0.7697063453070497  0.5228073444458446  1.0000
  C   C29       1.0  0.9395738837086967  0.7798561625761878  0.0418978978914737  1.0000
  C   C30       1.0  0.5604270844330088  0.2798562266736653  0.5418986168522579  1.0000
  C   C31       1.0  0.0604327775528333  0.2201364894533313  0.9581019346722003  1.0000
  C   C32       1.0  0.43957000672742913  0.7201422322726998  0.4581005508345584  1.0000
  C   C33       1.0  0.9106870338378172  0.8014891466305867  0.1465892930335286  1.0000
  C   C34       1.0  0.589318551887949  0.30149009612689776  0.6465894922156324  1.0000
  C   C35       1.0  0.08931603863555178  0.1985059943116595  0.8534101465240911  1.0000
  C   C36       1.0  0.4106761467563941  0.6985100177342075  0.3534114305843802  1.0000
  C   C37       1.0  0.7636233609185723  0.7731654180615523  0.18546281683420324  1.0000
  C   C38       1.0  0.7363789209286297  0.2731641602131276  0.6854624841383059  1.0000
  C   C39       1.0  0.23637851528273043  0.2268305568786815  0.8145344746041803  1.0000
  C   C40       1.0  0.2636133851875968  0.7268351245520603  0.31453831751689176  1.0000
  C   C41       1.0  0.6505186813925048  0.7218950608283803  0.11731999794270108  1.0000
  C   C42       1.0  0.8494912053550792  0.22189567357929005  0.6173211161589834  1.0000
  C   C43       1.0  0.34948319481230783  0.2781009124767023  0.8826780499146383  1.0000
  C   C44       1.0  0.15050349329075624  0.7781069291979392  0.38267941364215124  1.0000
  S   S1        1.0  0.0320170935671058  0.9135458756366571  0.8344776392340307  1.0000
  S   S2        1.0  0.4679814717832755  0.41354381148152425  0.3344744645496931  1.0000
  S   S3        1.0  0.9679799976051768  0.0864567271428314  0.16552289057188577  1.0000
  S   S4        1.0  0.5320192081648187  0.5864571380195257  0.6655235537264659  1.0000
  S   S5        1.0  0.8263093180873113  0.7032271860100892  0.8440041164125278  1.0000
  S   S6        1.0  0.6736894624187569  0.20322621658143453  0.3440030330900187  1.0000
  S   S7        1.0  0.17369734318256036  0.29676961148771136  0.15599632185129053  1.0000
  S   S8        1.0  0.326302843678782  0.7967672677984721  0.6559954077470708  1.0000
  N   N1        1.0  0.8338836070532094  0.9426309866034758  0.6780933573574189  1.0000
  N   N2        1.0  0.6661178627494095  0.4426333175832013  0.17809348473698353  1.0000
  N   N3        1.0  0.166113484122576  0.057371614540862495  0.3219079288674536  1.0000
  N   N4        1.0  0.3338887985306513  0.5573667946540651  0.8219081945058948  1.0000
  N   N5        1.0  0.6771123089472582  0.7000969089272572  0.015755189016544973  1.0000
  N   N6        1.0  0.8228882037099082  0.20009249678141566  0.5157554740513106  1.0000
  N   N7        1.0  0.3228895672677297  0.2999023791172987  0.9842440998198686  1.0000
  N   N8        1.0  0.1771100837190858  0.7999051298021129  0.48424508533578603  1.0000
  Cl  Cl1       1.0  0.8742506361019052  0.7079331360250265  0.5573464309608698  1.0000
  Cl  Cl2       1.0  0.6257454981948027  0.20793456315038844  0.057345519381456704  1.0000
  Cl  Cl3       1.0  0.12574406255796328  0.2920694602115788  0.4426571245160957  1.0000
  Cl  Cl4       1.0  0.3742539855111032  0.7920663765385855  0.9426570374060647  1.0000
  Cl  Cl5       1.0  0.1485787113005159  0.0379066143921492  0.5969948682815273  1.0000
  Cl  Cl6       1.0  0.3514238257992943  0.5379038961965037  0.0969934334693434  1.0000
  Cl  Cl7       1.0  0.8514159873388181  0.9620910121879902  0.4030056910984002  1.0000
  Cl  Cl8       1.0  0.648582835455059  0.4620904189257972  0.9030043721175076  1.0000
