data_image0
_chemical_formula_structural       Al6H52C80N4O35
_chemical_formula_sum              "Al6 H52 C80 N4 O35"
_cell_length_a       12.840491157815018
_cell_length_b       13.118641187372734
_cell_length_c       26.727253783655158
_cell_angle_alpha    83.69588398736727
_cell_angle_beta     83.69697980769618
_cell_angle_gamma    63.0802665112044

_space_group_name_H-M_alt    "P 1"
_space_group_IT_number       1

loop_
  _space_group_symop_operation_xyz
  'x, y, z'

loop_
  _atom_site_type_symbol
  _atom_site_label
  _atom_site_symmetry_multiplicity
  _atom_site_fract_x
  _atom_site_fract_y
  _atom_site_fract_z
  _atom_site_occupancy
  Al  Al1       1.0  0.4073030448239834  0.4068996151040595  0.510934152360349  1.0000
  Al  Al2       1.0  0.6498931680169734  0.4252408268418365  0.4959823545254807  1.0000
  Al  Al3       1.0  0.42723359168039826  0.6447947225285731  0.4981191415104647  1.0000
  Al  Al4       1.0  0.9301947359712627  0.9292840904225274  0.9800976843427804  1.0000
  Al  Al5       1.0  0.9125553076734932  0.691081824716335  0.9961588718116587  1.0000
  Al  Al6       1.0  0.688448472386561  0.9090655259443068  0.9927621080025518  1.0000
  H   H1        1.0  0.8594069657869453  0.0967042854822751  0.2759321973537325  1.0000
  H   H2        1.0  0.9972256841131396  0.1161105263874163  0.1957732037949427  1.0000
  H   H3        1.0  0.07316907695977193  0.1509516892810367  0.2379276237188179  1.0000
  H   H4        1.0  0.146799417152117  0.0841302462180096  0.1812555387196397  1.0000
  H   H5        1.0  0.8445847953289985  0.2981342231191277  0.2504460470971991  1.0000
  H   H6        1.0  0.7144141173066316  0.4202336252148555  0.23232956739757776  1.0000
  H   H7        1.0  0.8212198752252392  0.44640704919347474  0.1504188848570251  1.0000
  H   H8        1.0  0.892177527073109  0.4501947261729741  0.20333489025644982  1.0000
  H   H9        1.0  0.9505782472542423  0.3246257502490693  0.16894404637926638  1.0000
  H   H10       1.0  0.3404575572978317  0.7323651872779066  0.7704749392030905  1.0000
  H   H11       1.0  0.3790767604519658  0.8247720991820487  0.7268793763172141  1.0000
  H   H12       1.0  0.7814348322162703  0.958352367152301  0.2328608514477324  1.0000
  H   H13       1.0  0.2727391293574827  0.9856969539586444  0.7836227314456892  1.0000
  H   H14       1.0  0.1773360530532742  0.9290153150645608  0.7695166522530243  1.0000
  H   H15       1.0  0.23906373987973234  0.8931322156905566  0.8291955332010518  1.0000
  H   H16       1.0  0.5708501152285591  0.9313664769272804  0.718162343641744  1.0000
  H   H17       1.0  0.5166210567342019  0.8877741629305618  0.676010798342851  1.0000
  H   H18       1.0  0.5294855710750144  0.4929364710794388  0.7688305505488983  1.0000
  H   H19       1.0  0.47855933714543397  0.5729052112217587  0.7159073925877381  1.0000
  H   H20       1.0  0.9683313303037694  0.3948945740069618  0.757921656916281  1.0000
  H   H21       1.0  0.9826761559293262  0.523150238940687  0.7611588523465685  1.0000
  H   H22       1.0  0.11369781623097458  0.4817243767355421  0.6813795456137015  1.0000
  H   H23       1.0  0.7582654167772347  0.4601804190584176  0.7925608291648345  1.0000
  H   H24       1.0  0.17060905545080376  0.3644890617643384  0.7273369600605334  1.0000
  H   H25       1.0  0.0964848570598562  0.3562382024106299  0.6763797399086969  1.0000
  H   H26       1.0  0.8150712498961711  0.7977300852971962  0.6806773508194296  1.0000
  H   H27       1.0  0.9511783384083118  0.7009404327710129  0.7061691657664325  1.0000
  H   H28       1.0  0.9404132562569884  0.8652075211718968  0.7531261577722644  1.0000
  H   H29       1.0  0.9477577299297834  0.891820018278608  0.6862693783195938  1.0000
  H   H30       1.0  0.8115822641359998  0.9590138328485196  0.7220856400838684  1.0000
  H   H31       1.0  0.3992931842787615  0.7437023814066138  0.23667043953197006  1.0000
  H   H32       1.0  0.35271820011868016  0.7458227217628705  0.2975031616727861  1.0000
  H   H33       1.0  0.4971074763384067  0.5751047286793494  0.1851428822331158  1.0000
  H   H34       1.0  0.9970726075357563  0.8085520532938019  0.2916727285188117  1.0000
  H   H35       1.0  0.3769235931611093  0.6440068927940814  0.14547491090609546  1.0000
  H   H36       1.0  0.4455718393026871  0.4656633034708193  0.100449002220607  1.0000
  H   H37       1.0  0.5596788686940073  0.5082903267013705  0.09834696057468761  1.0000
  H   H38       1.0  0.5635553124398457  0.392450764005595  0.1404862581506592  1.0000
  H   H39       1.0  0.3764210411372773  0.3053828377486738  0.23030371110991146  1.0000
  H   H40       1.0  0.4215852530343868  0.190775171715508  0.19594504666833498  1.0000
  H   H41       1.0  0.6201114299119013  0.8874174687928331  0.2735259865039197  1.0000
  H   H42       1.0  0.5167433243573285  0.0046805625333235  0.2374709437166942  1.0000
  H   H43       1.0  0.35786772207357126  0.0273922725589557  0.3046526788908608  1.0000
  H   H44       1.0  0.4259615943761121  0.8850402136812149  0.2843518023010033  1.0000
  H   H45       1.0  0.21697786109737655  0.4783976217947981  0.2786040566399848  1.0000
  H   H46       1.0  0.45967626776309334  0.9130136680408257  0.34274368293264956  1.0000
  H   H47       1.0  0.010784079650115116  0.6369893221419645  0.2316483296484932  1.0000
  H   H48       1.0  0.5436457462821948  0.3673352247479755  0.2588639644880715  1.0000
  H   H49       1.0  0.20329796149682272  0.941673701884632  0.256660587928188  1.0000
  H   H50       1.0  0.05355333144446919  0.9739365005037043  0.27174813412382554  1.0000
  H   H51       1.0  0.3240420012501986  0.29214580654505795  0.5527342941501701  1.0000
  H   H52       1.0  0.008703836455786994  0.048111892909354005  0.9382432378219008  1.0000
  C   C1        1.0  0.6114118295931023  0.2886633567559542  0.4364308503588816  1.0000
  C   C2        1.0  0.15674928776891053  0.6885998678694136  0.1946507727093234  1.0000
  C   C3        1.0  0.19819487315258036  0.5651958879067821  0.2632025968040352  1.0000
  C   C4        1.0  0.6045322183677444  0.6054876902081574  0.4171620611598783  1.0000
  C   C5        1.0  0.19128070269129438  0.6618397915425405  0.2957034959319742  1.0000
  C   C6        1.0  0.2743736396906939  0.5972347973672426  0.2211992135501575  1.0000
  C   C7        1.0  0.26828857466104244  0.695168202469695  0.2529399329874877  1.0000
  C   C8        1.0  0.13419590164218684  0.699185457547088  0.14363948656417594  1.0000
  C   C9        1.0  0.2117651144304631  0.6502912701252512  0.3471643075998471  1.0000
  C   C10       1.0  0.6108234613040437  0.1024742665797618  0.273615198573097  1.0000
  C   C11       1.0  0.5526722835566816  0.2007231055638812  0.22972348439807183  1.0000
  C   C12       1.0  0.6548848555974444  0.6616700566734508  0.2681971929473903  1.0000
  C   C13       1.0  0.6933165135010028  0.0958123757798646  0.10126390030738722  1.0000
  C   C14       1.0  0.6389941095342948  0.2349964774618769  0.3897582352229065  1.0000
  C   C15       1.0  0.7288972627937582  0.04889013304484279  0.2396860432760306  1.0000
  C   C16       1.0  0.28591519005516375  0.6088474512926253  0.438744681493894  1.0000
  C   C17       1.0  0.6722318577642666  0.1440247369156822  0.1957610056411099  1.0000
  C   C18       1.0  0.7726655338888834  0.1258608803116346  0.2622725386844635  1.0000
  C   C19       1.0  0.655113458135375  0.18088963410053086  0.29646379654450783  1.0000
  C   C20       1.0  0.7156709073041156  0.222112517517175  0.2191961071159412  1.0000
  C   C21       1.0  0.5973362967663505  0.276592859158221  0.2527225963721733  1.0000
  C   C22       1.0  0.6831084215502656  0.1204773666086822  0.1448118085784742  1.0000
  C   C23       1.0  0.6413837742872561  0.6456745910765419  0.3185457794285966  1.0000
  C   C24       1.0  0.6459821548233791  0.2068090271474716  0.3470694284181235  1.0000
  C   C25       1.0  0.6264077986337356  0.7594033740187881  0.7232126424059402  1.0000
  C   C26       1.0  0.564552917603905  0.715207851286408  0.7696500425115431  1.0000
  C   C27       1.0  0.7048186280787406  0.6897732664433461  0.8913174685869835  1.0000
  C   C28       1.0  0.6112652173012805  0.2937908068623756  0.5780464848252009  1.0000
  C   C29       1.0  0.6419602478604888  0.6269382296340993  0.602859859810806  1.0000
  C   C30       1.0  0.7427945239976382  0.7049508364158613  0.7515890190235623  1.0000
  C   C31       1.0  0.6814350974082474  0.6606081225823885  0.7981072077949705  1.0000
  C   C32       1.0  0.7840206311490832  0.5866266709721302  0.7264255178327375  1.0000
  C   C33       1.0  0.6679323450128793  0.6430331006225458  0.6973901116216935  1.0000
  C   C34       1.0  0.6283815543871397  0.6316554957226971  0.3645812985024365  1.0000
  C   C35       1.0  0.7218741474093094  0.5446132170092569  0.7722943251511794  1.0000
  C   C36       1.0  0.6073070752705618  0.5959316917995778  0.7441772463715566  1.0000
  C   C37       1.0  0.692863419288955  0.6738708753646918  0.8485673492310967  1.0000
  C   C38       1.0  0.6562917992068407  0.6341458920567433  0.6465768309565546  1.0000
  C   C39       1.0  0.10274494316607986  0.6931627173770067  0.8646000507262102  1.0000
  C   C40       1.0  0.6153935242916262  0.6053129668365571  0.5559711051315617  1.0000
  C   C41       1.0  0.13437196155334877  0.6760826165158136  0.8200495199062843  1.0000
  C   C42       1.0  0.16549741494397807  0.660935506899655  0.7709754542362006  1.0000
  C   C43       1.0  0.19002141889779273  0.6517517572236642  0.7252369852344884  1.0000
  C   C44       1.0  0.2176765496768524  0.6421024430166611  0.6756706575655684  1.0000
  C   C45       1.0  0.07550212610138353  0.7502677871609863  0.2703885940059649  1.0000
  C   C46       1.0  0.24435103206857176  0.632568367243806  0.6303371499175796  1.0000
  C   C47       1.0  0.6960930009530558  0.0999156756220145  0.8627337218026909  1.0000
  C   C48       1.0  0.6826037877174684  0.13391402063555802  0.8181946292901258  1.0000
  C   C49       1.0  0.6694653786351878  0.16746398489608078  0.7691668283250408  1.0000
  C   C50       1.0  0.6603889009581252  0.1935747468382161  0.723519250773336  1.0000
  C   C51       1.0  0.6499450966948076  0.22077333205252364  0.6739409202304287  1.0000
  C   C52       1.0  0.29410155444128355  0.605935278604889  0.5797879511430465  1.0000
  C   C53       1.0  0.6394185153732225  0.245868485605925  0.6285833902514711  1.0000
  C   C54       1.0  0.05383049427457826  0.7305905693048017  0.05393175038711461  1.0000
  C   C55       1.0  0.7262203848297446  0.735115739667492  0.07380177209735451  1.0000
  C   C56       1.0  0.15089096932389606  0.784176343587852  0.22728230957077503  1.0000
  C   C57       1.0  0.7242256182834054  0.04600939800251071  0.053541964462851914  1.0000
  C   C58       1.0  0.04746641523522041  0.7268494802234216  0.9138438870647292  1.0000
  C   C59       1.0  0.729862658442471  0.7204521169626616  0.9364806567441804  1.0000
  C   C60       1.0  0.7257161378182037  0.044022508490059  0.9121071877287577  1.0000
  C   C61       1.0  0.6965374874290688  0.7105585806202939  0.1258782281197881  1.0000
  C   C62       1.0  0.6809761100856876  0.6948309948537529  0.17167935518479988  1.0000
  C   C63       1.0  0.6664314176292336  0.6772077866208761  0.22187060446088938  1.0000
  C   C64       1.0  0.11816892642421808  0.971526360209424  0.24037418361474744  1.0000
  C   C65       1.0  0.08160997185511579  0.08752370599730602  0.2121090838478352  1.0000
  C   C66       1.0  0.7965029233487259  0.3502515955540133  0.21766657991263824  1.0000
  C   C67       1.0  0.1090860087201831  0.7055151646384348  0.10032263575646279  1.0000
  C   C68       1.0  0.8694775053194947  0.3954922744653544  0.18297741044797527  1.0000
  C   C69       1.0  0.3588273537183398  0.8071555998565998  0.7671729861014498  1.0000
  C   C70       1.0  0.25614422968295275  0.9099924831536227  0.7887422585379865  1.0000
  C   C71       1.0  0.9837260159434464  0.46283678990276655  0.7351527774621829  1.0000
  C   C72       1.0  0.09771863669935504  0.4135429151279197  0.7030683487451057  1.0000
  C   C73       1.0  0.869745678826348  0.7798077320758596  0.7125189576639245  1.0000
  C   C74       1.0  0.8936379631191825  0.8799697031755329  0.7190104280835499  1.0000
  C   C75       1.0  0.43791546650925983  0.5608276516371262  0.1629641378384719  1.0000
  C   C76       1.0  0.5053238643202674  0.47644241523351377  0.1233453802726459  1.0000
  C   C77       1.0  0.5382766113738173  0.9676862239836835  0.2762801446862682  1.0000
  C   C78       1.0  0.23525257343548134  0.6384989879223397  0.39100723634348356  1.0000
  C   C79       1.0  0.43940479920267717  0.9472566426614577  0.3037914024793976  1.0000
  C   C80       1.0  0.0838277364543742  0.6535118364169534  0.2386506783942011  1.0000
  N   N1        1.0  0.5884109193568038  0.8671295786732928  0.6954150566465884  1.0000
  N   N2        1.0  0.5506415833801271  0.5293616822411026  0.7361620096908155  1.0000
  N   N3        1.0  0.36787050228171847  0.7048141956960237  0.26522606935678533  1.0000
  N   N4        1.0  0.4433468428005868  0.24816168519002696  0.208877219007654  1.0000
  O   O1        1.0  0.30868252305579347  0.5104504679815207  0.45926768950257474  1.0000
  O   O2        1.0  0.654206440904467  0.8284127895129529  0.052168713366867764  1.0000
  O   O3        1.0  0.6466998036323305  0.0251790344327318  0.03535512645355251  1.0000
  O   O4        1.0  0.5111366810117631  0.3131774874364623  0.45790983277886704  1.0000
  O   O5        1.0  0.8237537066914342  0.0259675530220562  0.9260551401312469  1.0000
  O   O6        1.0  0.022199380961382128  0.8274365745094628  0.9237586852002693  1.0000
  O   O7        1.0  0.025514943682480886  0.6518203167814534  0.942048133730154  1.0000
  O   O8        1.0  0.8263083759032384  0.6517680060633921  0.9562839428005816  1.0000
  O   O9        1.0  0.6569818357304128  0.8171486221322795  0.9535037095644938  1.0000
  O   O10       1.0  0.6507485196350515  0.0142336631163218  0.9366945618718816  1.0000
  O   O11       1.0  0.8426920310493885  0.8420274580229901  0.9894318874064112  1.0000
  O   O12       1.0  0.687069082284509  0.5120868448586862  0.5357921070664702  1.0000
  O   O13       1.0  0.6898852774236063  0.3119459058104539  0.4520837720131183  1.0000
  O   O14       1.0  0.6780358747898986  0.5104600480613897  0.4369350338082114  1.0000
  O   O15       1.0  0.5093499939205445  0.6772408297477241  0.4385306876737971  1.0000
  O   O16       1.0  0.3087025419005514  0.6848535455746969  0.4556704777745892  1.0000
  O   O17       1.0  0.3133390085202237  0.5093547166330552  0.5665981678325664  1.0000
  O   O18       1.0  0.5119639889081499  0.3124085197978416  0.5653536753421946  1.0000
  O   O19       1.0  0.6880248990487702  0.31738154655563017  0.5511644259513133  1.0000
  O   O20       1.0  0.12680816304538906  0.8914551768372335  0.20523521432622258  1.0000
  O   O21       1.0  0.7683585200102883  0.2796520525803103  0.1892297064717212  1.0000
  O   O22       1.0  0.4599360780394195  0.7787013797381945  0.7952944233382411  1.0000
  O   O23       1.0  0.5183501635863195  0.6780859764967387  0.53768231915911  1.0000
  O   O24       1.0  0.8895806339334558  0.5227763823058638  0.7016922683134226  1.0000
  O   O25       1.0  0.8079346456506116  0.7601088273739975  0.7589117841347957  1.0000
  O   O26       1.0  0.37110476562442335  0.5153051494702652  0.1976979726672354  1.0000
  O   O27       1.0  0.5578753539613998  0.045479482398029306  0.3038146328299263  1.0000
  O   O28       1.0  0.31849549510658204  0.6820069721274677  0.5538097904085504  1.0000
  O   O29       1.0  0.49551323416122967  0.4937502251465986  0.5020070463822393  1.0000
  O   O30       1.0  0.8257340053893714  0.0222233925488737  0.033648192447572  1.0000
  O   O31       1.0  0.03161355733332277  0.826460989881312  0.030584122087937298  1.0000
  O   O32       1.0  0.026551543415848897  0.6540417471462376  0.040627555129283593  1.0000
  O   O33       1.0  0.8245791592149345  0.6632967212862866  0.054850258879810106  1.0000
  O   O34       1.0  0.3249279554594366  0.3299454354775406  0.5196759101060167  1.0000
  O   O35       1.0  0.0124441428435986  0.0063626334920669995  0.9706409586798941  1.0000
