data_image0
_chemical_formula_structural       Na2Sm2H32C36O24
_chemical_formula_sum              "Na2 Sm2 H32 C36 O24"
_cell_length_a       6.841319306399838
_cell_length_b       7.559656147587871
_cell_length_c       19.94417442065892
_cell_angle_alpha    90.0012999751542
_cell_angle_beta     99.91400253434162
_cell_angle_gamma    89.9992149658498

_space_group_name_H-M_alt    "P 1"
_space_group_IT_number       1

loop_
  _space_group_symop_operation_xyz
  'x, y, z'

loop_
  _atom_site_type_symbol
  _atom_site_label
  _atom_site_symmetry_multiplicity
  _atom_site_fract_x
  _atom_site_fract_y
  _atom_site_fract_z
  _atom_site_occupancy
  Na  Na1       1.0  0.6613352880370443  0.7502380371064845  0.3239248273853761  1.0000
  Na  Na2       1.0  0.33865255745411815  0.2502383227299418  0.6760751519384057  1.0000
  Sm  Sm1       1.0  0.7936663753602532  0.2501270301214547  0.5869285720900804  1.0000
  Sm  Sm2       1.0  0.20632294745666968  0.7501244517999623  0.41307299857929536  1.0000
  H   H1        1.0  0.386215346268699  0.8518037696478657  0.18611705704833528  1.0000
  H   H2        1.0  0.6137758263945586  0.35180219954032316  0.813883501464673  1.0000
  H   H3        1.0  0.20238612111569412  0.1479224696886945  0.814084163605578  1.0000
  H   H4        1.0  0.7976117654903021  0.6479215668558426  0.1859150246095638  1.0000
  H   H5        1.0  0.32180485936397224  0.8548481763835554  0.0596395423257903  1.0000
  H   H6        1.0  0.6781773711611835  0.35484537134469457  0.940361512033256  1.0000
  H   H7        1.0  0.26398060262364  0.14448520686062236  0.940610309216062  1.0000
  H   H8        1.0  0.7360084189217275  0.6444894696628368  0.059388320374281996  1.0000
  H   H9        1.0  0.6903954279176859  0.8557537704532976  0.966374592034846  1.0000
  H   H10       1.0  0.309594240449755  0.35574409194886414  0.0336213984173241  1.0000
  H   H11       1.0  0.7250701915994  0.1439236687978607  0.0333081821147658  1.0000
  H   H12       1.0  0.2749277160346679  0.6439213268086945  0.9666954852202281  1.0000
  H   H13       1.0  0.6283958961264559  0.8576751099148935  0.8403908612874887  1.0000
  H   H14       1.0  0.3716174979129648  0.3576641969152091  0.1596055582624913  1.0000
  H   H15       1.0  0.7881875579113783  0.14228143480448813  0.1592643286994786  1.0000
  H   H16       1.0  0.21183263625110982  0.6422803425289418  0.8407386481488855  1.0000
  H   H17       1.0  0.5579114482425496  0.7304035358755739  0.5609568098730193  1.0000
  H   H18       1.0  0.44209442112711633  0.2303977389174818  0.4390445736640558  1.0000
  H   H19       1.0  0.9968678119518161  0.2699291629701008  0.4390546178262298  1.0000
  H   H20       1.0  0.0031331984249690008  0.7699140665457591  0.5609408023260585  1.0000
  H   H21       1.0  0.9376751698636382  0.6236768588412642  0.6539082635349159  1.0000
  H   H22       1.0  0.06233932124309401  0.1236755540053096  0.3460891975395697  1.0000
  H   H23       1.0  0.28339187337448374  0.3765071099935824  0.3460800399186112  1.0000
  H   H24       1.0  0.716630181055585  0.8765111594333065  0.6539235780480226  1.0000
  H   H25       1.0  0.7457212729390577  0.09185132617521673  0.265101689667091  1.0000
  H   H26       1.0  0.254283158313335  0.5918540120896195  0.7348999089499485  1.0000
  H   H27       1.0  0.48149575952794516  0.9083736090680931  0.7347996883392723  1.0000
  H   H28       1.0  0.5185066744693572  0.4083724265879241  0.2651985234315077  1.0000
  H   H29       1.0  0.5203519665364525  0.10245925097056131  0.27263924183178284  1.0000
  H   H30       1.0  0.47965235224970126  0.6024520782391464  0.7273614393669092  1.0000
  H   H31       1.0  0.2485483209550168  0.8982116715752541  0.7272928678327729  1.0000
  H   H32       1.0  0.7514571831262485  0.3982146568498877  0.2727074444252224  1.0000
  C   C1        1.0  0.0957411821992693  0.7498897861205266  0.19369663529903386  1.0000
  C   C2        1.0  0.9042540838981595  0.2498854836088711  0.80630428501334  1.0000
  C   C3        1.0  0.13364445785698822  0.7500002596718004  0.2691730105716275  1.0000
  C   C4        1.0  0.8663478366295438  0.2500078249076481  0.7308282348980198  1.0000
  C   C5        1.0  0.024469787640796895  0.7497312179047385  0.05066476926052839  1.0000
  C   C6        1.0  0.9755195525312388  0.24973054548355114  0.949334292013006  1.0000
  C   C7        1.0  0.9871291734074604  0.7497315074431725  0.9756089071737292  1.0000
  C   C8        1.0  0.012860164177204996  0.2497289331485035  0.0243906553400421  1.0000
  C   C9        1.0  0.24457595315820416  0.8053215417076061  0.1579892256758626  1.0000
  C   C10       1.0  0.7554157327134804  0.3053172360727743  0.8420114611233059  1.0000
  C   C11       1.0  0.08874668227387161  0.1943639490117377  0.842109568736909  1.0000
  C   C12       1.0  0.9112462373973146  0.6943652646629419  0.1578897265752062  1.0000
  C   C13       1.0  0.2083729107428454  0.8057839755841628  0.0872542288594005  1.0000
  C   C14       1.0  0.7916143157952646  0.30578341589588837  0.9127466973772727  1.0000
  C   C15       1.0  0.12300070620104009  0.1937242711039175  0.9128651897640269  1.0000
  C   C16       1.0  0.8769892580321679  0.6937257838446341  0.08713292090310888  1.0000
  C   C17       1.0  0.9158443893362289  0.7498705550548406  0.8320091600010142  1.0000
  C   C18       1.0  0.08416572594588699  0.2498716442619724  0.1679906403078064  1.0000
  C   C19       1.0  0.8040592570100316  0.8069008190455451  0.9388013901701129  1.0000
  C   C20       1.0  0.19594281393210616  0.3068981552458609  0.0611969214115646  1.0000
  C   C21       1.0  0.8662441663208044  0.1926930283437756  0.061019676363841285  1.0000
  C   C22       1.0  0.1337591511481904  0.6926934406976172  0.9389817288525961  1.0000
  C   C23       1.0  0.7690851740355457  0.8083408032850626  0.8680765275510397  1.0000
  C   C24       1.0  0.2309257918792369  0.3083392543444888  0.13192082291892143  1.0000
  C   C25       1.0  0.9014706399637332  0.1914038427207601  0.1317335217115101  1.0000
  C   C26       1.0  0.0985415898007957  0.6914031439080048  0.8682694067145817  1.0000
  C   C27       1.0  0.8782041094628711  0.7499452634176081  0.7561934815874592  1.0000
  C   C28       1.0  0.1218208488310495  0.24994112225585494  0.24380620191999464  1.0000
  C   C29       1.0  0.6868750797934028  0.8121615643351205  0.5548602251110494  1.0000
  C   C30       1.0  0.31313137138538844  0.31215905259169574  0.4451409004417144  1.0000
  C   C31       1.0  0.1319484735047425  0.18817834760313448  0.4451431461003281  1.0000
  C   C32       1.0  0.8680534284288582  0.6881667048157141  0.5548546256144675  1.0000
  C   C33       1.0  0.6382142306268719  0.9136102654894388  0.4880135024926773  1.0000
  C   C34       1.0  0.3617807051232234  0.413621696989118  0.5119883187534953  1.0000
  C   C35       1.0  0.1503974423139667  0.08667030757327858  0.5119943006674177  1.0000
  C   C36       1.0  0.8495907395766052  0.5866615429806716  0.48800327523833437  1.0000
  O   O1        1.0  0.31170599783039427  0.7625813864740039  0.3019456499302535  1.0000
  O   O2        1.0  0.6882817002579317  0.2625918639151408  0.6980564334529757  1.0000
  O   O3        1.0  0.011340040335817  0.23755524193366992  0.6979909149844089  1.0000
  O   O4        1.0  0.9886449833946359  0.7375482707222715  0.30200778303699133  1.0000
  O   O5        1.0  0.7878103340742513  0.4292221969700236  0.4870285140657984  1.0000
  O   O6        1.0  0.2121518016338086  0.9292334079274553  0.512967976477654  1.0000
  O   O7        1.0  0.30111796100781163  0.5710856139741551  0.5129773872432182  1.0000
  O   O8        1.0  0.698885211623633  0.0710874120177181  0.48702495873730095  1.0000
  O   O9        1.0  0.6252507043901545  0.0205326956218812  0.2652077785407414  1.0000
  O   O10       1.0  0.3747530292175795  0.5205312342346389  0.7347941618172626  1.0000
  O   O11       1.0  0.36109333076729655  0.9798934816993777  0.7347800979140686  1.0000
  O   O12       1.0  0.6389053444694426  0.4798947742806589  0.2652180094358414  1.0000
  O   O13       1.0  0.7043592097317555  0.7892765501628672  0.7242863006757503  1.0000
  O   O14       1.0  0.2956697741206895  0.2892668521697317  0.2757119589337265  1.0000
  O   O15       1.0  0.9796948395165614  0.21068098570937366  0.2755572527503887  1.0000
  O   O16       1.0  0.020336487282676795  0.710684632797559  0.7244429710429117  1.0000
  O   O17       1.0  0.8824645106934312  0.5623212252698692  0.6089318157597389  1.0000
  O   O18       1.0  0.11754174249064421  0.0623219027718918  0.3910676294445565  1.0000
  O   O19       1.0  0.2732093806062466  0.4379517774031641  0.3910431984792524  1.0000
  O   O20       1.0  0.7268075482040786  0.9379556792949019  0.6089591432157633  1.0000
  O   O21       1.0  0.5402264358219285  0.8342803427989196  0.43655889083944294  1.0000
  O   O22       1.0  0.4597663917827858  0.33428170455915307  0.5634461268077544  1.0000
  O   O23       1.0  0.10385253540609798  0.165879428480153  0.563443219909253  1.0000
  O   O24       1.0  0.8961392114767861  0.665847192561742  0.43655676070373767  1.0000
