data_image0
_chemical_formula_structural       Al6H69C84S3NO37
_chemical_formula_sum              "Al6 H69 C84 S3 N1 O37"
_cell_length_a       13.173670178796423
_cell_length_b       13.353819466410101
_cell_length_c       28.229136513648236
_cell_angle_alpha    90.11679869269454
_cell_angle_beta     89.97805145958372
_cell_angle_gamma    119.96113132918524

_space_group_name_H-M_alt    "P 1"
_space_group_IT_number       1

loop_
  _space_group_symop_operation_xyz
  'x, y, z'

loop_
  _atom_site_type_symbol
  _atom_site_label
  _atom_site_symmetry_multiplicity
  _atom_site_fract_x
  _atom_site_fract_y
  _atom_site_fract_z
  _atom_site_occupancy
  Al  Al1       1.0  0.58342868577828  0.16881598928768682  0.497208236987234  1.0000
  Al  Al2       1.0  0.3440716361644291  0.9241946515520424  0.5009381858132472  1.0000
  Al  Al3       1.0  0.5718215121610157  0.9225840778096951  0.4999075538228511  1.0000
  Al  Al4       1.0  0.08405868244107496  0.16143616395819285  0.9986918195517733  1.0000
  Al  Al5       1.0  0.08435646089277063  0.4020848633300459  0.0002653249442588001  1.0000
  Al  Al6       1.0  0.31667850888653976  0.41112672762222513  0.0025408335007953008  1.0000
  H   H1        1.0  0.2326797282754355  0.8061018716153541  0.20595628654433545  1.0000
  H   H2        1.0  0.8711439377123894  0.015771663746143395  0.2843061776495049  1.0000
  H   H3        1.0  0.9545055401037744  0.08414822106129798  0.20954851111405762  1.0000
  H   H4        1.0  0.022150904842860066  0.23004664782113338  0.22780168845923046  1.0000
  H   H5        1.0  0.7707004131476722  0.27505741511345144  0.2962026131865017  1.0000
  H   H6        1.0  0.9203527532858898  0.3181749877808926  0.29653628875902893  1.0000
  H   H7        1.0  0.7608643978345668  0.2663017724188421  0.2127192057228768  1.0000
  H   H8        1.0  0.6257745004161493  0.06493414347294652  0.27332893290736143  1.0000
  H   H9        1.0  0.6558524292204738  0.0535063834978402  0.19188384352093388  1.0000
  H   H10       1.0  0.9155608650460252  0.3464954915893513  0.21478099978435244  1.0000
  H   H11       1.0  0.5238383859942388  0.2632160380235434  0.20455404879525935  1.0000
  H   H12       1.0  0.5203025964594232  0.24129904161170404  0.2869139901644004  1.0000
  H   H13       1.0  0.21269671287097944  0.18201289988530792  0.29653013188402616  1.0000
  H   H14       1.0  0.3618986580474798  0.2896958622912962  0.30269862483618243  1.0000
  H   H15       1.0  0.3743772979865057  0.32715028153513254  0.22165136402188076  1.0000
  H   H16       1.0  0.2233604519577455  0.2272525744389853  0.21700245183038194  1.0000
  H   H17       1.0  0.2654991379438626  0.937752511315061  0.27138185070951704  1.0000
  H   H18       1.0  0.15760987462515888  0.9759125725319393  0.2814410852269091  1.0000
  H   H19       1.0  0.25823575914293434  0.9717178139569499  0.1896521649922391  1.0000
  H   H20       1.0  0.48630674418482295  0.09749112773510397  0.27822089939511596  1.0000
  H   H21       1.0  0.47446061982983423  0.1149154888424846  0.19579426363763736  1.0000
  H   H22       1.0  0.4456133713121132  0.9307569559244513  0.2565516696952983  1.0000
  H   H23       1.0  0.1549026124061257  0.016255525988313497  0.20102119463906834  1.0000
  H   H24       1.0  0.49420599408311716  0.6732725967871575  0.7965726821847884  1.0000
  H   H25       1.0  0.5049485042365588  0.6836419029698887  0.713545299097305  1.0000
  H   H26       1.0  0.1788509304138728  0.5321566617308022  0.6992058205989554  1.0000
  H   H27       1.0  0.3023323304239653  0.513879396571113  0.6919266159157829  1.0000
  H   H28       1.0  0.31432488324392693  0.4893503510678272  0.7735926357585756  1.0000
  H   H29       1.0  0.17346269680741236  0.4740681134368074  0.7773958327979572  1.0000
  H   H30       1.0  0.3456047968145483  0.8486385894101144  0.7248579434087148  1.0000
  H   H31       1.0  0.20608011111098523  0.7328226479837738  0.7094794608593419  1.0000
  H   H32       1.0  0.30184406447119727  0.7983012742235188  0.8041902058064638  1.0000
  H   H33       1.0  0.5416555352914683  0.8151794708479654  0.2046446214103313  1.0000
  H   H34       1.0  0.525143216934346  0.824191339879853  0.7188798560651651  1.0000
  H   H35       1.0  0.4881943120245821  0.801949511283169  0.8005872861255555  1.0000
  H   H36       1.0  0.7399759772815032  0.25919616994047345  0.7948659494993253  1.0000
  H   H37       1.0  0.6903826470356976  0.2178795558700628  0.7146832494171491  1.0000
  H   H38       1.0  0.9916181430074429  0.26209506491684215  0.6950626891770428  1.0000
  H   H39       1.0  0.9100680722187705  0.33359169582579545  0.7014422446948388  1.0000
  H   H40       1.0  0.9592441554960941  0.3597833042422495  0.7814769149305365  1.0000
  H   H41       1.0  0.028471621729998682  0.2756294995998942  0.776605957619289  1.0000
  H   H42       1.0  0.7391721303029896  0.9639605912236033  0.71806748278091  1.0000
  H   H43       1.0  0.4546634007199443  0.6369873081613022  0.2745717446316291  1.0000
  H   H44       1.0  0.8919294647469941  0.04498274121124981  0.7094532783841175  1.0000
  H   H45       1.0  0.7634920007868614  0.9902787843433316  0.8003543948524838  1.0000
  H   H46       1.0  0.6225399153630492  0.0678311459406586  0.7255657099641724  1.0000
  H   H47       1.0  0.6596289056851533  0.1092807866169423  0.8065887066700199  1.0000
  H   H48       1.0  0.9164366303049789  0.06161261768117752  0.7919384900942462  1.0000
  H   H49       1.0  0.27306023382622163  0.020575172468042496  0.8057368518564801  1.0000
  H   H50       1.0  0.26577119943843996  0.9841628060346466  0.7244454365755291  1.0000
  H   H51       1.0  0.23251921116223428  0.23936565896541132  0.6959369046919904  1.0000
  H   H52       1.0  0.1551808544228663  0.08825221782270629  0.7043769535120961  1.0000
  H   H53       1.0  0.1505389610567676  0.11299210044596457  0.7864242110538201  1.0000
  H   H54       1.0  0.21817398117845238  0.2635169155067771  0.7773995105313888  1.0000
  H   H55       1.0  0.5320366221219288  0.27638248617992645  0.7101635807005097  1.0000
  H   H56       1.0  0.4559223849150911  0.34950965770599396  0.6957566029606996  1.0000
  H   H57       1.0  0.5267535185513806  0.32140124685324173  0.7900754548680738  1.0000
  H   H58       1.0  0.42078739579356045  0.059324678677157294  0.7234385718852324  1.0000
  H   H59       1.0  0.4276373290977986  0.10463269753928015  0.8039582856783768  1.0000
  H   H60       1.0  0.4407760440431119  0.38467523872245823  0.7761755247621311  1.0000
  H   H61       1.0  0.7308447027538421  0.9761503124229947  0.20162885834018604  1.0000
  H   H62       1.0  0.6648269315097862  0.9569458888022097  0.2806655892278443  1.0000
  H   H63       1.0  0.9849584566730201  0.6190000092778334  0.23431105612976927  1.0000
  H   H64       1.0  0.07937719223021127  0.7932119034847317  0.8135651291053493  1.0000
  H   H65       1.0  0.3230756355106124  0.48882413687427106  0.1531503361082117  1.0000
  H   H66       1.0  0.9925991749722202  0.1454810949762333  0.34516104996522773  1.0000
  H   H67       1.0  0.05616004057625184  0.2526140607036139  0.3067182449229406  1.0000
  H   H68       1.0  0.6784935381695832  0.3606537574399199  0.5243322935634751  1.0000
  H   H69       1.0  0.9930622672906041  0.9703315705581731  0.02585296910465471  1.0000
  C   C1        1.0  0.3787106232597709  0.08266586238335087  0.4314412550234368  1.0000
  C   C2        1.0  0.3725712818154108  0.7670803174685901  0.3815270553266644  1.0000
  C   C3        1.0  0.29044750611947723  0.6092565087709046  0.23145240996320385  1.0000
  C   C4        1.0  0.3364549474158948  0.7063525175076107  0.19157161179735743  1.0000
  C   C5        1.0  0.4080239562972565  0.6772084823454634  0.2589184698271581  1.0000
  C   C6        1.0  0.35551214180487273  0.7410917803359851  0.2887159683033218  1.0000
  C   C7        1.0  0.4547324635466196  0.7746125336215711  0.22070214470190316  1.0000
  C   C8        1.0  0.40150078348921875  0.8383822119499129  0.24897636893999936  1.0000
  C   C9        1.0  0.3194384992806291  0.673756192065575  0.1430645545774283  1.0000
  C   C10       1.0  0.3645588475809733  0.7562795970602497  0.33859554828180904  1.0000
  C   C11       1.0  0.6955053746134398  0.04428609842458539  0.26676159499606916  1.0000
  C   C12       1.0  0.39127310779515767  0.7989521630342935  0.431041721266574  1.0000
  C   C13       1.0  0.9077904915268321  0.10999252626099579  0.28107753226585436  1.0000
  C   C14       1.0  0.9399988712614872  0.1471857510854804  0.22904240147099136  1.0000
  C   C15       1.0  0.9003981305763631  0.20376426668931907  0.11311044757525933  1.0000
  C   C16       1.0  0.8051479824412484  0.13221860225322504  0.2950558333762602  1.0000
  C   C17       1.0  0.7243069184231105  0.05134857312420849  0.21337788674695454  1.0000
  C   C18       1.0  0.8431472681392976  0.1619289710543086  0.20419879410247438  1.0000
  C   C19       1.0  0.838955898614252  0.2660133702934289  0.2264161091993984  1.0000
  C   C20       1.0  0.8357141819000945  0.2558666819874631  0.2808074781786445  1.0000
  C   C21       1.0  0.8699455891948843  0.18142376383689654  0.15418821359632065  1.0000
  C   C22       1.0  0.7809309544701859  0.11443224265470767  0.34516698654042  1.0000
  C   C23       1.0  0.7089030964212883  0.08323994942680459  0.43378264431493824  1.0000
  C   C24       1.0  0.7586507936245044  0.10141214289895827  0.3872392262309107  1.0000
  C   C25       1.0  0.45798577785050293  0.1599179836769622  0.26938319834341234  1.0000
  C   C26       1.0  0.30127636192145957  0.21184616691095923  0.2827043305587011  1.0000
  C   C27       1.0  0.30710103866343996  0.23792298867009262  0.22936419508440054  1.0000
  C   C28       1.0  0.32239556747528303  0.2126894709080744  0.11083223704969213  1.0000
  C   C29       1.0  0.33465979419234776  0.11748178601816048  0.2908285026744011  1.0000
  C   C30       1.0  0.45633631854929746  0.1758635467610077  0.21519352624230242  1.0000
  C   C31       1.0  0.3347983507897538  0.1559769042585231  0.20014582885968937  1.0000
  C   C32       1.0  0.24112721599016146  0.0298368961090318  0.21164061735790096  1.0000
  C   C33       1.0  0.24369575267486712  0.0059815102231369  0.26514202285611793  1.0000
  C   C34       1.0  0.3800126912898989  0.0915181127256588  0.5667314377416021  1.0000
  C   C35       1.0  0.3312340231475943  0.18337239920156628  0.15069206398023743  1.0000
  C   C36       1.0  0.33840304633544355  0.09981079913495712  0.3411794595911388  1.0000
  C   C37       1.0  0.3487040106276423  0.09294589614889051  0.3836248802106114  1.0000
  C   C38       1.0  0.4659618045002033  0.7331517119623924  0.728041297832853  1.0000
  C   C39       1.0  0.2672425453832687  0.5596773063269253  0.7125025795192672  1.0000
  C   C40       1.0  0.2636028189458273  0.5323636199684003  0.7658346644557599  1.0000
  C   C41       1.0  0.29521405900144515  0.5889658521536488  0.8872408579916568  1.0000
  C   C42       1.0  0.34560439911356877  0.6914922927341891  0.7041179521151693  1.0000
  C   C43       1.0  0.45002903733601585  0.718019530629107  0.7823536120875688  1.0000
  C   C44       1.0  0.3178410479924025  0.6454459913339364  0.7956005281604561  1.0000
  C   C45       1.0  0.3896262447563999  0.7837446739147894  0.5640908090048316  1.0000
  C   C46       1.0  0.26360136454476185  0.7214673554768112  0.7812274378431354  1.0000
  C   C47       1.0  0.2876079249968908  0.7549168878736051  0.7281877271738043  1.0000
  C   C48       1.0  0.30513825633152436  0.6171770936332591  0.8458213070742744  1.0000
  C   C49       1.0  0.3581671841358157  0.7158701061503691  0.653571853408984  1.0000
  C   C50       1.0  0.36752861265788545  0.7369715451755782  0.6113531746655952  1.0000
  C   C51       1.0  0.7033342023920851  0.1508724806651571  0.73142218078268  1.0000
  C   C52       1.0  0.9201554480444968  0.26211593053720617  0.7151708613996706  1.0000
  C   C53       1.0  0.9473705811218027  0.2768916320913348  0.7687815657107322  1.0000
  C   C54       1.0  0.8983445374165199  0.21360998343383386  0.8884913709667048  1.0000
  C   C55       1.0  0.805622590893023  0.14662599964322  0.7059313187113788  1.0000
  C   C56       1.0  0.7017140493452841  0.0896594362440837  0.5676941043605199  1.0000
  C   C57       1.0  0.7305222318642137  0.17541495987093472  0.7848046178880779  1.0000
  C   C58       1.0  0.8460412005168437  0.17720051116614138  0.7967867768699649  1.0000
  C   C59       1.0  0.8362505929069501  0.0614508110045051  0.7811274454763435  1.0000
  C   C60       1.0  0.8180184195114464  0.046265472421041  0.7269317336149614  1.0000
  C   C61       1.0  0.8716632434174442  0.19640449503884136  0.8468788872877228  1.0000
  C   C62       1.0  0.7798581319172089  0.129306281943748  0.6557753637148239  1.0000
  C   C63       1.0  0.7528610592377162  0.11327180117266522  0.6141860345776139  1.0000
  C   C64       1.0  0.3441358850545769  0.0663935622893135  0.7337398435688771  1.0000
  C   C65       1.0  0.2319300848319656  0.16896020133007988  0.7162639690441638  1.0000
  C   C66       1.0  0.22674714568942997  0.1871687333748327  0.7701572937999119  1.0000
  C   C67       1.0  0.23659235107442098  0.6728922206228205  0.25931073880207123  1.0000
  C   C68       1.0  0.3241322691843322  0.23749107431215316  0.8868482042437906  1.0000
  C   C69       1.0  0.34417405158219333  0.1643271083740174  0.704203787544927  1.0000
  C   C70       1.0  0.34685074066575783  0.09239325893030069  0.7872354370760349  1.0000
  C   C71       1.0  0.3396016085934903  0.20367318775200968  0.7947464985220949  1.0000
  C   C72       1.0  0.44732020161568187  0.3063730296432325  0.7712914652486449  1.0000
  C   C73       1.0  0.4528017820485602  0.28091706392061166  0.7181953856431491  1.0000
  C   C74       1.0  0.33414098169396317  0.22366481040393177  0.8449076189278701  1.0000
  C   C75       1.0  0.3481554479435048  0.14069930196470892  0.6543250459726127  1.0000
  C   C76       1.0  0.35533550754565374  0.11942872318619639  0.6130071686116241  1.0000
  C   C77       1.0  0.9577211696299842  0.2332765428657666  0.06797410886490242  1.0000
  C   C78       1.0  0.28380638627879046  0.7702726047523925  0.22121146465650554  1.0000
  C   C79       1.0  0.2674007912739781  0.5599385000551321  0.061369257749653607  1.0000
  C   C80       1.0  0.2915102027661121  0.24509114915949945  0.06700378636116262  1.0000
  C   C81       1.0  0.9515891331215444  0.2369226506292179  0.9344746519424733  1.0000
  C   C82       1.0  0.2689243801170207  0.5390892778401762  0.9339612743779997  1.0000
  C   C83       1.0  0.29075678018718065  0.25179722339122185  0.9337632495713069  1.0000
  C   C84       1.0  0.29933138423668737  0.6311357329747551  0.10347329385138691  1.0000
  S   S1        1.0  0.09837432974828181  0.6139264811206929  0.28708477332884297  1.0000
  S   S2        1.0  0.10733558052649526  0.6549515241788129  0.7933961252538284  1.0000
  S   S3        1.0  0.22510551133196083  0.4617510654889187  0.21733671502570936  1.0000
  N   N1        1.0  0.012719292407211884  0.1647059953261731  0.31018320940410865  1.0000
  O   O1        1.0  0.6832993985358585  0.1566499313982419  0.4489659488425276  1.0000
  O   O2        1.0  0.3147419893684642  0.8071455980752376  0.546322466596564  1.0000
  O   O3        1.0  0.4856427947601104  0.8040556485660771  0.544412343966677  1.0000
  O   O4        1.0  0.6787676959979336  0.9922638031714115  0.5490140225509563  1.0000
  O   O5        1.0  0.4983088164309066  0.0022023984569941005  0.4999016220131268  1.0000
  O   O6        1.0  0.19762831131048839  0.17101307622322537  0.04734674170567391  1.0000
  O   O7        1.0  0.9854480804456501  0.1630231083489448  0.050381942899655016  1.0000
  O   O8        1.0  0.9801136958067643  0.33107905398542675  0.04986620200207881  1.0000
  O   O9        1.0  0.16711971300117773  0.527976277237535  0.043329285295186516  1.0000
  O   O10       1.0  0.3406792702970164  0.5296176279933106  0.047684494363096505  1.0000
  O   O11       1.0  0.36013950061520467  0.34968139112256585  0.05218252734647422  1.0000
  O   O12       1.0  0.48031555345797017  0.1560176344088049  0.4452647243302367  1.0000
  O   O13       1.0  0.1894761542210475  0.17682878733820223  0.9469747321268899  1.0000
  O   O14       1.0  0.982659605531481  0.16756765117931852  0.9496210800944312  1.0000
  O   O15       1.0  0.9676740005771194  0.3296941102260575  0.955773943359489  1.0000
  O   O16       1.0  0.1683314085410288  0.5110975837009234  0.950819381656075  1.0000
  O   O17       1.0  0.3461609650256818  0.5222543353664192  0.9542631456875557  1.0000
  O   O18       1.0  0.3645767168599576  0.3415757708353482  0.9577032776315735  1.0000
  O   O19       1.0  0.16332420276150114  0.3279791368224494  0.0010249492772232004  1.0000
  O   O20       1.0  0.30122573427657057  0.9966953876318312  0.4560356786769334  1.0000
  O   O21       1.0  0.3137062198074643  0.8140935758704372  0.4516396106569758  1.0000
  O   O22       1.0  0.48684714213067776  0.8153401018312321  0.44949739352850326  1.0000
  O   O23       1.0  0.6895280193476337  0.989912907270323  0.45542417195272134  1.0000
  O   O24       1.0  0.6793914585653482  0.16329454514023206  0.5500272494059717  1.0000
  O   O25       1.0  0.47452488119115804  0.16457936375906707  0.5473084006578263  1.0000
  O   O26       1.0  0.3049724446194301  0.9911875549839662  0.5500802549136311  1.0000
  O   O27       1.0  0.07994394172110465  0.5160193778123983  0.3143058211551307  1.0000
  O   O28       1.0  0.08978173964491971  0.7089527934164221  0.30664640133790755  1.0000
  O   O29       1.0  0.010735696850211664  0.5637300160788996  0.24201569330790565  1.0000
  O   O30       1.0  0.04254075838105819  0.5710649000627016  0.7571572273536519  1.0000
  O   O31       1.0  0.0836716526610388  0.6273092337881607  0.8428209714726265  1.0000
  O   O32       1.0  0.08986446535413958  0.7655876010091163  0.7827666518979088  1.0000
  O   O33       1.0  0.21972971421035234  0.3997234894226763  0.25948791112275427  1.0000
  O   O34       1.0  0.1243687148597914  0.4287688422763837  0.1878274977718988  1.0000
  O   O35       1.0  0.3290481636464904  0.4660886199626048  0.18575482336747481  1.0000
  O   O36       1.0  0.6599214256283403  0.319870841570264  0.4944414047053557  1.0000
  O   O37       1.0  0.0129348950397272  0.010140529894492498  0.9957895171697473  1.0000
