data_image0
_chemical_formula_structural       Al2C42N30O60
_chemical_formula_sum              "Al2 C42 N30 O60"
_cell_length_a       4.488129142
_cell_length_b       28.314126809471315
_cell_length_c       28.34334178498491
_cell_angle_alpha    119.93005573132918
_cell_angle_beta     89.95915201468713
_cell_angle_gamma    89.9525970352437

_space_group_name_H-M_alt    "P 1"
_space_group_IT_number       1

loop_
  _space_group_symop_operation_xyz
  'x, y, z'

loop_
  _atom_site_type_symbol
  _atom_site_label
  _atom_site_symmetry_multiplicity
  _atom_site_fract_x
  _atom_site_fract_y
  _atom_site_fract_z
  _atom_site_occupancy
  Al  Al1       1.0  0.988829852189923  0.4998503630070417  0.4995705522233465  1.0000
  Al  Al2       1.0  0.9882971918253814  0.16678840602179418  0.8337509615514379  1.0000
  C   C1        1.0  0.4897423175107604  0.46273131757255465  0.4163728657270269  1.0000
  C   C2        1.0  0.48953452129808983  0.4537351552441535  0.536795007519494  1.0000
  C   C3        1.0  0.4880375587452476  0.5831410698646735  0.545563464566051  1.0000
  C   C4        1.0  0.48867674942658096  0.21296546349071827  0.7966028990131022  1.0000
  C   C5        1.0  0.4887153907930965  0.08351400806972717  0.7876464179690855  1.0000
  C   C6        1.0  0.48838101479921653  0.20382118037122868  0.916933425539213  1.0000
  C   C7        1.0  0.49100760987438713  0.24637764657282438  0.7677070508918716  1.0000
  C   C8        1.0  0.5028228038752829  0.22136574495725378  0.7106866342515517  1.0000
  C   C9        1.0  0.5097117620081447  0.2511598568982408  0.6836428054785202  1.0000
  C   C10       1.0  0.47872693294436897  0.30849359895469053  0.7128829412557138  1.0000
  C   C11       1.0  0.46694451500935225  0.3334924573752716  0.7700618349416644  1.0000
  C   C12       1.0  0.4836292347743053  0.30351448552293897  0.7967392647726044  1.0000
  C   C13       1.0  0.46625023853111697  0.3331991039122712  0.5633437333213108  1.0000
  C   C14       1.0  0.4783597206954084  0.35820553949696443  0.6205171540586818  1.0000
  C   C15       1.0  0.5102544226850513  0.4155121180738632  0.6497167371781742  1.0000
  C   C16       1.0  0.5033626336611263  0.4452976218785096  0.6226716494995159  1.0000
  C   C17       1.0  0.49138395764008175  0.4202825699749084  0.5656529769705045  1.0000
  C   C18       1.0  0.4834395697704466  0.36315375306867276  0.5366381384296091  1.0000
  C   C19       1.0  0.49143036867273787  0.021246638244441816  0.7541658861204255  1.0000
  C   C20       1.0  0.5038692655586772  0.9890109158702457  0.7790293278450804  1.0000
  C   C21       1.0  0.5106170376366704  0.9322186411909144  0.7491140609578153  1.0000
  C   C22       1.0  0.4781976796366222  0.9044199439284881  0.6918790424521931  1.0000
  C   C23       1.0  0.4658435759973116  0.9368164739728116  0.6670316835570632  1.0000
  C   C24       1.0  0.4832910666813747  0.9934176885110091  0.6970959962469792  1.0000
  C   C25       1.0  0.4666889201938886  0.72976427688247  0.6663514805108619  1.0000
  C   C26       1.0  0.47880080771194145  0.7622344135801241  0.6415906188093317  1.0000
  C   C27       1.0  0.5097795685398623  0.7345118519513747  0.5843195648720467  1.0000
  C   C28       1.0  0.5026978172156333  0.6777238232889999  0.5543343978463895  1.0000
  C   C29       1.0  0.4905382652612289  0.6454065835976053  0.5791122082741325  1.0000
  C   C30       1.0  0.48327388399596327  0.6731551050570915  0.6361949045998189  1.0000
  C   C31       1.0  0.49014570273735086  0.2325633995856932  0.9791180340091756  1.0000
  C   C32       1.0  0.5043172554702551  0.289617297411418  0.011117199831865267  1.0000
  C   C33       1.0  0.5118135292180241  0.3164971634889397  0.0678348041193075  1.0000
  C   C34       1.0  0.47652082164523785  0.2871822196495798  0.09579272429964189  1.0000
  C   C35       1.0  0.46259070843448313  0.2299838894772961  0.0636273091745565  1.0000
  C   C36       1.0  0.48073774557551013  0.20337144251700318  0.007070279866468376  1.0000
  C   C37       1.0  0.4639274608774643  0.43681804640940675  0.26976121943577885  1.0000
  C   C38       1.0  0.47711370972030653  0.3796169307388126  0.23751318356954704  1.0000
  C   C39       1.0  0.5104475462163834  0.350176568176515  0.2653793342954742  1.0000
  C   C40       1.0  0.5037176397443871  0.37700384637037127  0.3221051493040433  1.0000
  C   C41       1.0  0.4910341773188734  0.4340676459552029  0.35418721709608997  1.0000
  C   C42       1.0  0.48182717586026064  0.4633373790139004  0.32630352872632784  1.0000
  N   N1        1.0  0.47146347627257507  0.34449815579614546  0.6923905232944492  1.0000
  N   N2        1.0  0.4694624163973629  0.32223652410620923  0.6410466730138609  1.0000
  N   N3        1.0  0.4688509720762823  0.848015878911724  0.6557782128653784  1.0000
  N   N4        1.0  0.4720134483269903  0.8186318257276141  0.6777870536045753  1.0000
  N   N5        1.0  0.4665787618970613  0.3077461826318242  0.1521859319693846  1.0000
  N   N6        1.0  0.469816416940013  0.3591520032452422  0.18112594079016026  1.0000
  N   N7        1.0  0.4935300789961232  0.3343007618035612  0.8572411354237559  1.0000
  N   N8        1.0  0.4514370312266678  0.3939997165535446  0.8028321994586989  1.0000
  N   N9        1.0  0.5176749640201592  0.1608959199208825  0.6769413640517854  1.0000
  N   N10       1.0  0.5630434217812236  0.22077501306588235  0.6238809012835134  1.0000
  N   N11       1.0  0.45072028669876824  0.27269341987801  0.5305724967486327  1.0000
  N   N12       1.0  0.49293208210129086  0.3323800374965273  0.4761272142160919  1.0000
  N   N13       1.0  0.5644601442724948  0.44586541347127445  0.709433305028405  1.0000
  N   N14       1.0  0.5179705373663736  0.505758311534457  0.6563992479124536  1.0000
  N   N15       1.0  0.49295236603266085  0.023409261366808293  0.6664936743668832  1.0000
  N   N16       1.0  0.44947653849402514  0.9094252289752662  0.6066080400299825  1.0000
  N   N17       1.0  0.5191417754045844  0.015471928699668161  0.8394290926246555  1.0000
  N   N18       1.0  0.5655678562966527  0.9025444934762488  0.7792402790853499  1.0000
  N   N19       1.0  0.4506839754242833  0.7571445517661884  0.7267698783950536  1.0000
  N   N20       1.0  0.4930076905520763  0.6431056626060183  0.6667457875393268  1.0000
  N   N21       1.0  0.5634457852250989  0.7642647854936159  0.5542365382107307  1.0000
  N   N22       1.0  0.5178106769825845  0.6513432777000645  0.49393449337317463  1.0000
  N   N23       1.0  0.49051102104347427  0.1427960813901734  0.9772985865047517  1.0000
  N   N24       1.0  0.4437325795829565  0.19709866178268234  0.09124492110095869  1.0000
  N   N25       1.0  0.5212643312802071  0.32341559760210004  0.9844297077370002  1.0000
  N   N26       1.0  0.5727785941999102  0.37604597629368186  0.09732792977775524  1.0000
  N   N27       1.0  0.44526185197324947  0.4697338195138698  0.2421765369837132  1.0000
  N   N28       1.0  0.4910844298707886  0.5239157721590431  0.35615371192316303  1.0000
  N   N29       1.0  0.5681165487654595  0.29049041497292194  0.23579720556126924  1.0000
  N   N30       1.0  0.5200938525150177  0.34306405928018074  0.34865520267226907  1.0000
  O   O1        1.0  0.7276013517275002  0.5595676367350535  0.5450178655512516  1.0000
  O   O2        1.0  0.7296782825018441  0.4855811512745944  0.4396886041499783  1.0000
  O   O3        1.0  0.7295328493514432  0.4541806809243311  0.5138361433683513  1.0000
  O   O4        1.0  0.24525020291130767  0.5619619259057487  0.5221623023904698  1.0000
  O   O5        1.0  0.24688446018976146  0.47726522683880995  0.5389532104253618  1.0000
  O   O6        1.0  0.24727583131246425  0.46055135616572324  0.4377502009761044  1.0000
  O   O7        1.0  0.7283832917425171  0.1808538316134331  0.8935158823673602  1.0000
  O   O8        1.0  0.728142844614986  0.21252287258681693  0.8196449402405506  1.0000
  O   O9        1.0  0.7280886529216276  0.10705184385439984  0.7881662660224222  1.0000
  O   O10       1.0  0.24576286640971298  0.2060200007883282  0.8956571970532465  1.0000
  O   O11       1.0  0.2455539461828664  0.10472094352135726  0.8110635038438189  1.0000
  O   O12       1.0  0.24602841935753614  0.18950638879911008  0.7944540435200906  1.0000
  O   O13       1.0  0.7106827650925425  0.3250009772130298  0.8779544844109708  1.0000
  O   O14       1.0  0.28833465868635233  0.36651965934601105  0.8804415088596542  1.0000
  O   O15       1.0  0.23125948531053808  0.4157175216987382  0.7962261865264608  1.0000
  O   O16       1.0  0.665103306142953  0.4158615405099793  0.8333190659368697  1.0000
  O   O17       1.0  0.310521160868781  0.1358155992921581  0.6829064625183463  1.0000
  O   O18       1.0  0.7329592043336532  0.14205683694449794  0.6461517970932463  1.0000
  O   O19       1.0  0.8043892347965454  0.22960253120267984  0.6091352050761855  1.0000
  O   O20       1.0  0.36801094476988533  0.1888513653127006  0.595611611930309  1.0000
  O   O21       1.0  0.23034413996094824  0.2510601643500294  0.5371728686269606  1.0000
  O   O22       1.0  0.6647916816152134  0.25074965389767817  0.500086541481437  1.0000
  O   O23       1.0  0.7093281771101942  0.3416993430831995  0.45524678127956264  1.0000
  O   O24       1.0  0.2880383498825125  0.3001686420219727  0.45307038320321175  1.0000
  O   O25       1.0  0.8065733990893662  0.43699790804029703  0.7238922380747327  1.0000
  O   O26       1.0  0.3694560141705594  0.47779311660534046  0.7379286478693032  1.0000
  O   O27       1.0  0.31073737874132223  0.5308932356393968  0.6504796838819545  1.0000
  O   O28       1.0  0.7330086321617839  0.5245430491469564  0.6871423159881261  1.0000
  O   O29       1.0  0.7095758991902912  0.05353402789292257  0.6758927031472837  1.0000
  O   O30       1.0  0.2881628329605945  0.014521130551756304  0.6343302990336497  1.0000
  O   O31       1.0  0.22869688536942323  0.88138367201001  0.5850548887433719  1.0000
  O   O32       1.0  0.6632142115947487  0.918025945485084  0.5846474810671721  1.0000
  O   O33       1.0  0.3122675496194347  0.04655833141232082  0.8646696069609876  1.0000
  O   O34       1.0  0.7344493596664776  0.003308553610032816  0.8580706663598788  1.0000
  O   O35       1.0  0.8080356611993055  0.8792605197132417  0.770263823504628  1.0000
  O   O36       1.0  0.3709305263772791  0.9056952275627737  0.811094075892278  1.0000
  O   O37       1.0  0.23017571427446631  0.7853884145890362  0.7484422457209163  1.0000
  O   O38       1.0  0.6642326528641931  0.7483725675173787  0.7486161279911343  1.0000
  O   O39       1.0  0.7098859074118876  0.6129413910376726  0.6573016284581643  1.0000
  O   O40       1.0  0.288002511032964  0.6520278545885532  0.698948452648267  1.0000
  O   O41       1.0  0.8047926929494267  0.7878131531680098  0.5632573060439441  1.0000
  O   O42       1.0  0.3687035016121101  0.7609478737725582  0.5223769791894101  1.0000
  O   O43       1.0  0.3110797678862269  0.6203397582338611  0.46875918329465094  1.0000
  O   O44       1.0  0.733034855389647  0.6634673264496269  0.4752320810146458  1.0000
  O   O45       1.0  0.707720223043644  0.12204080943005374  0.9472716683662696  1.0000
  O   O46       1.0  0.28541726742667356  0.11957356937324456  0.9862682000305796  1.0000
  O   O47       1.0  0.22175526675503923  0.2038515557658798  0.11918877002354832  1.0000
  O   O48       1.0  0.6565557058067881  0.1663920879401672  0.08291296177069542  1.0000
  O   O49       1.0  0.314889281024044  0.3176773310062869  0.9533659200269824  1.0000
  O   O50       1.0  0.7371608939000822  0.3540129622635959  0.9963856334584876  1.0000
  O   O51       1.0  0.8171731688105482  0.38922330209296513  0.11993925765221287  1.0000
  O   O52       1.0  0.3816520027134517  0.4056352372579042  0.09473902870150396  1.0000
  O   O53       1.0  0.22380113175906047  0.4629217907752333  0.21416063431988863  1.0000
  O   O54       1.0  0.657484009042271  0.5004879917873879  0.2505462247725276  1.0000
  O   O55       1.0  0.7078090365716321  0.544616445754059  0.38619579596631576  1.0000
  O   O56       1.0  0.2859643909301041  0.5471994448634874  0.34723576980543674  1.0000
  O   O57       1.0  0.8110314992403572  0.2766152994860747  0.2126051471241794  1.0000
  O   O58       1.0  0.3755389884641361  0.26145943910679387  0.23891600189719497  1.0000
  O   O59       1.0  0.31332819354480523  0.3487747799991254  0.37969435010296587  1.0000
  O   O60       1.0  0.7360887100192243  0.3123756988987836  0.3365836117025864  1.0000
