data_image0
_chemical_formula_structural       Cu2H40C24N2O8
_chemical_formula_sum              "Cu2 H40 C24 N2 O8"
_cell_length_a       8.382364186869944
_cell_length_b       8.231800162900635
_cell_length_c       11.139079303959917
_cell_angle_alpha    72.6928195658239
_cell_angle_beta     84.96321355979906
_cell_angle_gamma    72.17535545455817

_space_group_name_H-M_alt    "P 1"
_space_group_IT_number       1

loop_
  _space_group_symop_operation_xyz
  'x, y, z'

loop_
  _atom_site_type_symbol
  _atom_site_label
  _atom_site_symmetry_multiplicity
  _atom_site_fract_x
  _atom_site_fract_y
  _atom_site_fract_z
  _atom_site_occupancy
  Cu  Cu1       1.0  0.4916144929437819  0.6146240779546372  0.8620264202613585  1.0000
  Cu  Cu2       1.0  0.5084053157033779  0.38536001527036495  0.1379913361696268  1.0000
  H   H1        1.0  0.7483405325130263  0.30071829718971804  0.8108564808964686  1.0000
  H   H2        1.0  0.2516643977746327  0.6992870792659147  0.1891361606219704  1.0000
  H   H3        1.0  0.8871786973130537  0.42842757764016437  0.9707257212683302  1.0000
  H   H4        1.0  0.11284730580995725  0.5715916685213784  0.029264191081857387  1.0000
  H   H5        1.0  0.8362314631106642  0.5466572796345092  0.08516616350606651  1.0000
  H   H6        1.0  0.16379060167460582  0.4533511170504312  0.9148308803758168  1.0000
  H   H7        1.0  0.6956085510347804  0.8239304896594958  0.9336806792322889  1.0000
  H   H8        1.0  0.3043802539127896  0.17607710594904089  0.0663234053313815  1.0000
  H   H9        1.0  0.8963815981940683  0.7468531040691814  0.8680974361162512  1.0000
  H   H10       1.0  0.10361078088271818  0.253178734077423  0.13189662827299742  1.0000
  H   H11       1.0  0.6103775438167246  0.5943809117214515  0.6004976662385246  1.0000
  H   H12       1.0  0.3896270251801042  0.4056257737964586  0.399497409551735  1.0000
  H   H13       1.0  0.8118591438923984  0.4407442164345454  0.594270935930595  1.0000
  H   H14       1.0  0.188151404987515  0.5592666115137988  0.40572460646383485  1.0000
  H   H15       1.0  0.904175710912149  0.50617963898506  0.7772988595124134  1.0000
  H   H16       1.0  0.09583009932890711  0.49383509307149615  0.2226970697489463  1.0000
  H   H17       1.0  0.8656736316431118  0.6862144728405328  0.6388285292936259  1.0000
  H   H18       1.0  0.13431716821566642  0.3138025571270831  0.36117246173287043  1.0000
  H   H19       1.0  0.5595063726941232  0.8844110715559877  0.6209262039547881  1.0000
  H   H20       1.0  0.4404776023037655  0.11558035432634742  0.37907905147938686  1.0000
  H   H21       1.0  0.7231997848638868  0.9544323603613378  0.660549732680174  1.0000
  H   H22       1.0  0.27678133954672995  0.0455724775040878  0.3394438299496656  1.0000
  H   H23       1.0  0.5510411519895868  0.0826903798944727  0.8148230013595849  1.0000
  H   H24       1.0  0.44894717412156365  0.9173186056437359  0.18517363272841442  1.0000
  H   H25       1.0  0.4093567435188631  0.9572262497621012  0.8243133556073232  1.0000
  H   H26       1.0  0.5906244654068827  0.04278255729040839  0.17568562162493612  1.0000
  H   H27       1.0  0.4602234492321884  0.2508099934921191  0.5932604161358057  1.0000
  H   H28       1.0  0.5397683839869812  0.7491910620473874  0.4067341019227158  1.0000
  H   H29       1.0  0.3180598604154881  0.1267252680659752  0.6034851169732108  1.0000
  H   H30       1.0  0.6819303896954095  0.8732770912934529  0.3965092305031562  1.0000
  H   H31       1.0  0.17338502596082606  0.2435856477752623  0.7849622898914815  1.0000
  H   H32       1.0  0.826602023930498  0.7564273972782304  0.21502547197062677  1.0000
  H   H33       1.0  0.16267221697732734  0.41613688639252905  0.6415312630253709  1.0000
  H   H34       1.0  0.8373175348703582  0.5838588216002664  0.3584573853582  1.0000
  H   H35       1.0  0.30849508206513576  0.38207882396080356  0.7590883618794918  1.0000
  H   H36       1.0  0.6914852206724476  0.6179407821925977  0.2408966588587589  1.0000
  H   H37       1.0  0.23018988068733381  0.7182013472307389  0.5200523119340373  1.0000
  H   H38       1.0  0.7698163316555621  0.281775801711234  0.47995984763939253  1.0000
  H   H39       1.0  0.9458841230848593  0.13341189908186382  0.6776644175522009  1.0000
  H   H40       1.0  0.05412407542842594  0.866566635571303  0.32234729848034493  1.0000
  C   C1        1.0  0.7935074202716946  0.5406524081010035  0.9962865789380615  1.0000
  C   C2        1.0  0.20651223293657484  0.4593559560445044  0.0037079510760805166  1.0000
  C   C3        1.0  0.7761858653679706  0.7176224237764686  0.8961751562284093  1.0000
  C   C4        1.0  0.22380572992907585  0.28239999260498655  0.103823707938588  1.0000
  C   C5        1.0  0.7207729380248438  0.5041794911704471  0.6566379871690486  1.0000
  C   C6        1.0  0.27923601900597816  0.4958245919499475  0.3433600346395238  1.0000
  C   C7        1.0  0.8041238340118254  0.6039632667343399  0.713434491758825  1.0000
  C   C8        1.0  0.19587526210594317  0.39605397636764655  0.2865631665237558  1.0000
  C   C9        1.0  0.6185593063712815  0.9001026592317486  0.6994614860777233  1.0000
  C   C10       1.0  0.3814222755038301  0.09990080340717361  0.3005377298009719  1.0000
  C   C11       1.0  0.48961754677603136  0.027970206090117196  0.7595441798373982  1.0000
  C   C12       1.0  0.5103636514637485  0.9720386083139801  0.24045389878145323  1.0000
  C   C13       1.0  0.3796570561939276  0.18165108712730674  0.6587893717836408  1.0000
  C   C14       1.0  0.620326499220475  0.8183618245738487  0.3412049533310651  1.0000
  C   C15       1.0  0.248425442727914  0.3136188712361517  0.7142514005961758  1.0000
  C   C16       1.0  0.7515612147872589  0.6863914769346308  0.2857378740023861  1.0000
  C   C17       1.0  0.19942467866657404  0.8329014334125092  0.7299882497586339  1.0000
  C   C18       1.0  0.8005792503308767  0.167075594771056  0.270032179307961  1.0000
  C   C19       1.0  0.09769435901285546  0.9176779163058626  0.6103266935936347  1.0000
  C   C20       1.0  0.9023289343978361  0.08230228962332833  0.3896853752762013  1.0000
  C   C21       1.0  0.1281777909349627  0.8409532343412209  0.5106629535365812  1.0000
  C   C22       1.0  0.8718300356015263  0.15902661672580365  0.4893502981543776  1.0000
  C   C23       1.0  0.9687564611818332  0.0773117307646203  0.5984300587605986  1.0000
  C   C24       1.0  0.03125886520280824  0.9226669750226648  0.401580212741095  1.0000
  N   N1        1.0  0.6877258535386587  0.7181326872092342  0.784840467967932  1.0000
  N   N2        1.0  0.31226533190058353  0.2818709349937549  0.2151652089281129  1.0000
  O   O1        1.0  0.6334295114323181  0.5151282678579108  0.0096980752196245  1.0000
  O   O2        1.0  0.3665936935729661  0.48486408088311356  0.9903014818283822  1.0000
  O   O3        1.0  0.6591404543151923  0.37538717820642376  0.7502601212116815  1.0000
  O   O4        1.0  0.3408652840418255  0.6246155213120019  0.24973484067037083  1.0000
  O   O5        1.0  0.3415726585220185  0.7157664289666883  0.7197448352502037  1.0000
  O   O6        1.0  0.6584431059003321  0.28420286029779623  0.28027284088323506  1.0000
  O   O7        1.0  0.1458089161629487  0.8789607223933517  0.8266033677150092  1.0000
  O   O8        1.0  0.854195711126536  0.1210257863680084  0.17340507266655442  1.0000
