data_image0
_chemical_formula_structural       Cd2H28C40N8O8
_chemical_formula_sum              "Cd2 H28 C40 N8 O8"
_cell_length_a       8.255467475941977
_cell_length_b       10.177269481512631
_cell_length_c       11.272699536508782
_cell_angle_alpha    101.14878228745253
_cell_angle_beta     88.7319406809571
_cell_angle_gamma    112.55394747196404

_space_group_name_H-M_alt    "P 1"
_space_group_IT_number       1

loop_
  _space_group_symop_operation_xyz
  'x, y, z'

loop_
  _atom_site_type_symbol
  _atom_site_label
  _atom_site_symmetry_multiplicity
  _atom_site_fract_x
  _atom_site_fract_y
  _atom_site_fract_z
  _atom_site_occupancy
  Cd  Cd1       1.0  0.9018314340232436  0.4004194679665076  0.6381952207356321  1.0000
  Cd  Cd2       1.0  0.09816993322819204  0.599579746984837  0.36180510355615064  1.0000
  H   H1        1.0  0.40295233194110835  0.4892910349644096  0.2955175365791334  1.0000
  H   H2        1.0  0.5970454088097696  0.5107081682025765  0.7044819275038208  1.0000
  H   H3        1.0  0.30397707946726626  0.033014943854766415  0.19875425036016034  1.0000
  H   H4        1.0  0.6960231018322104  0.9669842676150464  0.8012443084974451  1.0000
  H   H5        1.0  0.15637581978017315  0.016657804692684405  0.003165150798615501  1.0000
  H   H6        1.0  0.8436231481094792  0.9833414027596842  0.9968334170622911  1.0000
  H   H7        1.0  0.1270718290459953  0.23423822155832852  0.9560324097056139  1.0000
  H   H8        1.0  0.8729276423546396  0.7657620718321001  0.04396633974685222  1.0000
  H   H9        1.0  0.1500526586533795  0.7870488116195133  0.132776916929302  1.0000
  H   H10       1.0  0.8499474677303525  0.21295039877850286  0.8672251908032608  1.0000
  H   H11       1.0  0.25721598564652487  0.4682372998100207  0.8827790687215611  1.0000
  H   H12       1.0  0.7427834582962376  0.5317629930445094  0.11722145516839082  1.0000
  H   H13       1.0  0.5181007901171952  0.10862797324825378  0.5798409886195586  1.0000
  H   H14       1.0  0.4818981503145778  0.8913712336682168  0.4201593536788267  1.0000
  H   H15       1.0  0.67952446208092  0.4803773191416099  0.4234497715040035  1.0000
  H   H16       1.0  0.32047498186184953  0.5196229737129274  0.5765507523859413  1.0000
  H   H17       1.0  0.9421039415862892  0.8866882094383116  0.6029311786676034  1.0000
  H   H18       1.0  0.05789412374559791  0.11331424806130744  0.3970670647558521  1.0000
  H   H19       1.0  0.3485062050591665  0.2873212566455408  0.7809310911012659  1.0000
  H   H20       1.0  0.6514968653841464  0.7126790479933547  0.2190702929975146  1.0000
  H   H21       1.0  0.5040630881869603  0.1481710903334488  0.8520023094048242  1.0000
  H   H22       1.0  0.4959348452228412  0.85182594470691  0.147997669710449  1.0000
  H   H23       1.0  0.3729205347352504  0.8767266086705378  0.8018217844048011  1.0000
  H   H24       1.0  0.6270737721740004  0.12327041458545554  0.1981773345016435  1.0000
  H   H25       1.0  0.17463109125748838  0.6805944650252016  0.9039245519805945  1.0000
  H   H26       1.0  0.8253671118175773  0.3194058232759928  0.0960777553501373  1.0000
  H   H27       1.0  0.2955788813731033  0.0514082342027606  0.4035045791554808  1.0000
  H   H28       1.0  0.7044212724685012  0.9485909767311469  0.5964957541396033  1.0000
  C   C1        1.0  0.26520380221527523  0.37708038117758497  0.12123585842554971  1.0000
  C   C2        1.0  0.7347980960050151  0.6229199202477176  0.8787628730203139  1.0000
  C   C3        1.0  0.34936872731033464  0.38607744163355306  0.2310681244233734  1.0000
  C   C4        1.0  0.6506307440903001  0.6139228517568753  0.7689306250290927  1.0000
  C   C5        1.0  0.36259474256558377  0.26214395655839706  0.2599044836736297  1.0000
  C   C6        1.0  0.6374054250049566  0.7378552546434634  0.740094962402715  1.0000
  C   C7        1.0  0.29229337960799023  0.12885277143963952  0.17692647637962722  1.0000
  C   C8        1.0  0.707707305202476  0.8711475259682262  0.8230722640695376  1.0000
  C   C9        1.0  0.20961232310493466  0.11957201644370492  0.0677968237064874  1.0000
  C   C10       1.0  0.7903878856524144  0.8804271955619996  0.9321999607136391  1.0000
  C   C11       1.0  0.19468669094606378  0.24219071000030823  0.04054047397845301  1.0000
  C   C12       1.0  0.8053147312211166  0.7578085060228404  0.9594563014383654  1.0000
  C   C13       1.0  0.18411873583035293  0.6944349358896389  0.0986160495393662  1.0000
  C   C14       1.0  0.8158796873615016  0.3055631848208265  0.9013849983862059  1.0000
  C   C15       1.0  0.23977218933445246  0.525991853201326  0.9703628126721072  1.0000
  C   C16       1.0  0.7602296814279654  0.47400844768808514  0.029637693211228076  1.0000
  C   C17       1.0  0.24414576538932659  0.5014653911162837  0.08671504801360189  1.0000
  C   C18       1.0  0.7558556155910379  0.4985338241030135  0.9132843890594415  1.0000
  C   C19       1.0  0.522968639330152  0.18153054801152282  0.5203900330120703  1.0000
  C   C20       1.0  0.4770308046126103  0.8184697448430072  0.4796104908778815  1.0000
  C   C21       1.0  0.5995791399625715  0.372643395735814  0.4384516339141982  1.0000
  C   C22       1.0  0.4004202902512546  0.6273568968507702  0.561549777194486  1.0000
  C   C23       1.0  0.451588354496522  0.2680486909409582  0.3723296832060896  1.0000
  C   C24       1.0  0.5484100686953255  0.7319494297695073  0.6276713647194754  1.0000
  C   C25       1.0  0.1510107928201947  0.8662887534208322  0.6980517336766425  1.0000
  C   C26       1.0  0.8489833351590759  0.1337104382297341  0.3019459829787436  1.0000
  C   C27       1.0  0.0645135745993317  0.9450918820557636  0.657883315425913  1.0000
  C   C28       1.0  0.9354863865833491  0.054909497004778984  0.342116502836852  1.0000
  C   C29       1.0  0.13273275754514913  0.09685264406675027  0.6907071447811077  1.0000
  C   C30       1.0  0.8672684033184339  0.9031487387432833  0.3092935516970954  1.0000
  C   C31       1.0  0.2940209025939069  0.1691859668417521  0.7580743656671984  1.0000
  C   C32       1.0  0.7059792512476972  0.8308132440921626  0.24192596762788557  1.0000
  C   C33       1.0  0.3810656006011186  0.09079361279663802  0.7975438954400574  1.0000
  C   C34       1.0  0.6189335462185142  0.9092034262611576  0.2024560746719075  1.0000
  C   C35       1.0  0.30840684805613705  0.9397282545198492  0.7695763012590078  1.0000
  C   C36       1.0  0.691587252465261  0.06027093659481859  0.23042318983385  1.0000
  C   C37       1.0  0.07206754914211908  0.7043220888465386  0.6724726763459544  1.0000
  C   C38       1.0  0.9279289781989347  0.29567711030301064  0.3275267967403082  1.0000
  C   C39       1.0  0.03138243265683369  0.1828837405257673  0.6624632207451313  1.0000
  C   C40       1.0  0.9686211550263976  0.8171176503191404  0.3375374577264623  1.0000
  N   N1        1.0  0.2101136395383776  0.6094793903151654  0.1663024674005484  1.0000
  N   N2        1.0  0.7898879203719743  0.3905176565095587  0.8336983719235533  1.0000
  N   N3        1.0  0.20246422419490528  0.6476630138602245  0.9800617154448191  1.0000
  N   N4        1.0  0.797537129327594  0.3523362008231814  0.01993949606570311  1.0000
  N   N5        1.0  0.4058441452127042  0.14838751282906773  0.4268996962341872  1.0000
  N   N6        1.0  0.594155298730058  0.8516127800254694  0.5731008276557574  1.0000
  N   N7        1.0  0.6428313532267467  0.3164572450170766  0.5294955193835165  1.0000
  N   N8        1.0  0.35716809071602285  0.6835430478374604  0.4705050045064354  1.0000
  O   O1        1.0  0.10202859631649372  0.6397307845817934  0.7505501386405129  1.0000
  O   O2        1.0  0.8979708476262686  0.36026950827273657  0.24945038524943192  1.0000
  O   O3        1.0  0.9752265167231612  0.6340762015192001  0.5759353880993388  1.0000
  O   O4        1.0  0.024770720516734478  0.3659219157097268  0.4240638943920557  1.0000
  O   O5        1.0  0.8684326070997982  0.11966361352174461  0.6300199441178692  1.0000
  O   O6        1.0  0.13156954705682022  0.8803399408964482  0.36998200276219256  1.0000
  O   O7        1.0  0.11350479917992831  0.3207990632056621  0.6784880929128221  1.0000
  O   O8        1.0  0.8864975613645496  0.6792023233538557  0.3215134817808191  1.0000
