data_image0
_chemical_formula_structural       Co2H44C36S2N12O12
_chemical_formula_sum              "Co2 H44 C36 S2 N12 O12"
_cell_length_a       8.790732345344601
_cell_length_b       11.479353974018554
_cell_length_c       12.667
_cell_angle_alpha    89.13866070869211
_cell_angle_beta     79.21512130364918
_cell_angle_gamma    69.41726962246477

_space_group_name_H-M_alt    "P 1"
_space_group_IT_number       1

loop_
  _space_group_symop_operation_xyz
  'x, y, z'

loop_
  _atom_site_type_symbol
  _atom_site_label
  _atom_site_symmetry_multiplicity
  _atom_site_fract_x
  _atom_site_fract_y
  _atom_site_fract_z
  _atom_site_occupancy
  Co  Co1       1.0  0.7643228088277708  0.2391223335909203  0.7018876366425174  1.0000
  Co  Co2       1.0  0.23568422973063724  0.7608778472072331  0.29811736776218106  1.0000
  H   H1        1.0  0.0458756920709149  0.0950103618124629  0.6199164581983679  1.0000
  H   H2        1.0  0.9541264805476928  0.9049804994932202  0.3800908839656429  1.0000
  H   H3        1.0  0.917710628833909  0.0184591187313075  0.631329887138399  1.0000
  H   H4        1.0  0.08229717242449654  0.9815345384221175  0.36869247505875075  1.0000
  H   H5        1.0  0.45907986974023623  0.21470805917257957  0.6549546114185175  1.0000
  H   H6        1.0  0.5409190627056688  0.7852921216255736  0.3450514456481101  1.0000
  H   H7        1.0  0.6132410965210582  0.1558685115268048  0.558173027630616  1.0000
  H   H8        1.0  0.3867583202465284  0.8441232817281302  0.441832291354089  1.0000
  H   H9        1.0  0.27659688167446467  0.24020619056494744  0.24539224316598757  1.0000
  H   H10       1.0  0.7233945459183814  0.7597902624362192  0.7546061552853658  1.0000
  H   H11       1.0  0.0713036269119414  0.259949535358345  0.9600167064323344  1.0000
  H   H12       1.0  0.928695422471719  0.7400553051860469  0.03998058798610066  1.0000
  H   H13       1.0  0.8085833148181083  0.5243603117611073  0.2304928337352194  1.0000
  H   H14       1.0  0.1914177722193813  0.4756426648847878  0.7695042214651905  1.0000
  H   H15       1.0  0.1496844339668755  0.3982647828217267  0.385414188437899  1.0000
  H   H16       1.0  0.8503138247846351  0.6017270104332084  0.6145849653038126  1.0000
  H   H17       1.0  0.0011698197892827083  0.5402621617592018  0.3550221344194994  1.0000
  H   H18       1.0  0.9988271195056057  0.459732427343468  0.6449779420317299  1.0000
  H   H19       1.0  0.049036687957212215  0.2567044880809988  0.5167505629214446  1.0000
  H   H20       1.0  0.9509691925851199  0.7432956927171546  0.4832482762402535  1.0000
  H   H21       1.0  0.5420019915778127  0.4798028863224886  0.5987473007733257  1.0000
  H   H22       1.0  0.4579938342038048  0.5201842471862079  0.4012490745834966  1.0000
  H   H23       1.0  0.6938012304023857  0.5794757902166836  0.4244636744551327  1.0000
  H   H24       1.0  0.3061905645743862  0.4205076154950333  0.5755316962217661  1.0000
  H   H25       1.0  0.352726473405113  0.12477029711043029  0.9605538113614995  1.0000
  H   H26       1.0  0.6472671087793103  0.875228951738471  0.03944426920563871  1.0000
  H   H27       1.0  0.44434795422498047  0.11922147129500618  0.0768619896568339  1.0000
  H   H28       1.0  0.5556547306474543  0.880780573401644  0.923134870744434  1.0000
  H   H29       1.0  0.3851850776890585  0.972324084016023  0.2292622209479731  1.0000
  H   H30       1.0  0.6148171673645066  0.0276788926298721  0.7707394205896206  1.0000
  H   H31       1.0  0.11027935295173563  0.8104435678981332  0.08168492041219369  1.0000
  H   H32       1.0  0.8897113119411062  0.1895594087477619  0.9183269089101598  1.0000
  H   H33       1.0  0.1770352135962767  0.994189477244376  0.9498827969216279  1.0000
  H   H34       1.0  0.8229514204917194  0.0058097716045324  0.05012250155044031  1.0000
  H   H35       1.0  0.803329888407049  0.5420533682115476  0.9908266435524025  1.0000
  H   H36       1.0  0.19667402691641206  0.45796079182530747  0.009171470918353488  1.0000
  H   H37       1.0  0.7858991974797079  0.3980448427994787  0.9631944711297108  1.0000
  H   H38       1.0  0.21410455640319273  0.6019721130851181  0.0368012578586558  1.0000
  H   H39       1.0  0.5893791642946766  0.6918269316642949  0.14194296384483343  1.0000
  H   H40       1.0  0.41062683318541104  0.30817790888009  0.8580629017268535  1.0000
  H   H41       1.0  0.2766398177817991  0.4863088240143796  0.23564807893912837  1.0000
  H   H42       1.0  0.723367777533241  0.5136950845807604  0.7643410133223156  1.0000
  H   H43       1.0  0.5627302154772664  0.3351932536462456  0.09677744813589582  1.0000
  H   H44       1.0  0.43727286471123955  0.664815314695133  0.9032097986217379  1.0000
  C   C1        1.0  0.038602703622935094  0.3852995049002885  0.2501785473781766  1.0000
  C   C2        1.0  0.9613973868390387  0.6147006758978719  0.74981788587327  1.0000
  C   C3        1.0  0.1762071779698005  0.2839276575291834  0.20191077512029657  1.0000
  C   C4        1.0  0.8237871224118223  0.71607252326897  0.7980879889383415  1.0000
  C   C5        1.0  0.1871316548425099  0.2389359437415663  0.0977917166299491  1.0000
  C   C6        1.0  0.8128663979656424  0.7610661009550839  0.9022057452924199  1.0000
  C   C7        1.0  0.058932395203669295  0.2951613737500765  0.04205930554768139  1.0000
  C   C8        1.0  0.941070128228212  0.7048434667943155  0.9579391166357424  1.0000
  C   C9        1.0  0.9199691620033263  0.3962620238903583  0.0903911715877186  1.0000
  C   C10       1.0  0.0800304886397782  0.60373908885704  0.9096060955355084  1.0000
  C   C11       1.0  0.9112208425659887  0.4413096546327893  0.19388898608018934  1.0000
  C   C12       1.0  0.0887753340288953  0.5586914581146161  0.8061079427309537  1.0000
  C   C13       1.0  0.030378379659900617  0.4392481828988721  0.3596408404105417  1.0000
  C   C14       1.0  0.9696236315181467  0.5607454742545528  0.6403522744774433  1.0000
  C   C15       1.0  0.9295253013042739  0.327892363246832  0.5143865086609978  1.0000
  C   C16       1.0  0.07047020159622261  0.672100361957348  0.4856129902601366  1.0000
  C   C17       1.0  0.6686191584200786  0.4468985542658288  0.5550321743531725  1.0000
  C   C18       1.0  0.3313814163635839  0.5530932389891063  0.44496194191053456  1.0000
  C   C19       1.0  0.7397414746111155  0.4967802057513921  0.4687426211847878  1.0000
  C   C20       1.0  0.26026146070748984  0.5032041319095626  0.5312449744849488  1.0000
  C   C21       1.0  0.3313400493760668  0.12487374347682588  0.04873345398565481  1.0000
  C   C22       1.0  0.6686604809047832  0.8751255053720755  0.9512629348469233  1.0000
  C   C23       1.0  0.3164358307679863  0.954330939908111  0.17265950310975595  1.0000
  C   C24       1.0  0.6835626618590425  0.0456701728392872  0.8273418616582902  1.0000
  C   C25       1.0  0.17931133585128115  0.8700202873981269  0.09054460885054989  1.0000
  C   C26       1.0  0.8206740957178413  0.1299864170447549  0.9094654809293913  1.0000
  C   C27       1.0  0.20858843231779642  0.9605246746023255  0.02643574671748891  1.0000
  C   C28       1.0  0.7913999165429076  0.0394783020435696  0.9735708571950566  1.0000
  C   C29       1.0  0.7844353943843315  0.4601620559462418  0.02858316706221594  1.0000
  C   C30       1.0  0.21556896075800588  0.5398511721413682  0.9714156924425764  1.0000
  C   C31       1.0  0.5392349147500681  0.6176419077207598  0.14799617458950107  1.0000
  C   C32       1.0  0.46077180092721903  0.3823638647728771  0.852008795567876  1.0000
  C   C33       1.0  0.3847140552810017  0.5056001734230833  0.19672926249145917  1.0000
  C   C34       1.0  0.6152923820179625  0.4944037351720637  0.8032615590560822  1.0000
  C   C35       1.0  0.5241236219420741  0.43082522560631986  0.12768317156910305  1.0000
  C   C36       1.0  0.47588612796454305  0.5691814788365619  0.8723103395255831  1.0000
  S   S1        1.0  0.1694778691085119  0.2004949012096802  0.7277406387748755  1.0000
  S   S2        1.0  0.8305229395506544  0.7995062115377181  0.27225726742097583  1.0000
  N   N1        1.0  0.9042714531179498  0.42042839980905455  0.44429750446791866  1.0000
  N   N2        1.0  0.0957366710215766  0.5795596656488939  0.5556988400305585  1.0000
  N   N3        1.0  0.7879130448306171  0.3423319848767079  0.583331159474703  1.0000
  N   N4        1.0  0.2120830148265114  0.6576644681244588  0.4166682163613658  1.0000
  N   N5        1.0  0.29528438742448776  0.012321300991906998  0.07939833223685609  1.0000
  N   N6        1.0  0.7047122289892727  0.9876788798062532  0.9206048677786852  1.0000
  N   N7        1.0  0.2467092996124905  0.8672346910994477  0.18140551434640168  1.0000
  N   N8        1.0  0.7532853960852038  0.132772013343434  0.8186017934855129  1.0000
  N   N9        1.0  0.6197457030909561  0.5030811146089889  0.09690860587471657  1.0000
  N   N10       1.0  0.38025997150801777  0.4969293176308796  0.9030893309205509  1.0000
  N   N11       1.0  0.3955616294212946  0.6218561822147777  0.20954245213672348  1.0000
  N   N12       1.0  0.6044429316644016  0.37814679443111726  0.7904596780932279  1.0000
  O   O1        1.0  0.9287875846179289  0.0969171299714091  0.6085478523742863  1.0000
  O   O2        1.0  0.07121993826216055  0.9030746632835189  0.39145799285430627  1.0000
  O   O3        1.0  0.5843293084974164  0.1738439485990284  0.6355343780129702  1.0000
  O   O4        1.0  0.41566746935691173  0.8261534363513903  0.3644751547495132  1.0000
  O   O5        1.0  0.9895400224811157  0.2794710762310046  0.7589262737151756  1.0000
  O   O6        1.0  0.010467016077292526  0.7205291045671558  0.24107083616043204  1.0000
  O   O7        1.0  0.2657621600508762  0.2847598882065725  0.6934426148525714  1.0000
  O   O8        1.0  0.7342390884271736  0.7152402925915807  0.3065584047360517  1.0000
  O   O9        1.0  0.1947109476895648  0.11415446324016897  0.63203387611577  1.0000
  O   O10       1.0  0.8052860640402669  0.8858522412027127  0.36796207861485897  1.0000
  O   O11       1.0  0.23019441334972157  0.1277394874107287  0.8183982503402163  1.0000
  O   O12       1.0  0.7697955333459349  0.8722625572859214  0.1816057904144515  1.0000
