data_image0
_chemical_formula_structural       Cu4H20C36N16O16
_chemical_formula_sum              "Cu4 H20 C36 N16 O16"
_cell_length_a       10.122232992721425
_cell_length_b       10.25193888034065
_cell_length_c       12.773931763084946
_cell_angle_alpha    113.66235119794267
_cell_angle_beta     114.38602056628953
_cell_angle_gamma    89.99661066806098

_space_group_name_H-M_alt    "P 1"
_space_group_IT_number       1

loop_
  _space_group_symop_operation_xyz
  'x, y, z'

loop_
  _atom_site_type_symbol
  _atom_site_label
  _atom_site_symmetry_multiplicity
  _atom_site_fract_x
  _atom_site_fract_y
  _atom_site_fract_z
  _atom_site_occupancy
  Cu  Cu1       1.0  0.9706111997181139  0.5529377648550381  0.31015988575938996  1.0000
  Cu  Cu2       1.0  0.5295064973015755  0.24277070272319176  0.6899838578043498  1.0000
  Cu  Cu3       1.0  0.029404380043729382  0.4470505900498907  0.6898338513673322  1.0000
  Cu  Cu4       1.0  0.47048522958345973  0.7572269674693358  0.31002167362058203  1.0000
  H   H1        1.0  0.978943447259681  0.0414853452727968  0.6549558986950642  1.0000
  H   H2        1.0  0.5208084448507647  0.38623911449514037  0.34502640725588657  1.0000
  H   H3        1.0  0.021069549797843486  0.9585266162873864  0.34503665204144335  1.0000
  H   H4        1.0  0.4791873750257451  0.613787393061834  0.6549841557302896  1.0000
  H   H5        1.0  0.0741134009281552  0.2978600530723128  0.35171201095495513  1.0000
  H   H6        1.0  0.4251208115353365  0.9463079218738177  0.648229913187329  1.0000
  H   H7        1.0  0.9259621662359975  0.7021526030524755  0.6482944092473487  1.0000
  H   H8        1.0  0.5748559828838182  0.05370020726009982  0.3517785534371  1.0000
  H   H9        1.0  0.0912870523345859  0.05062817842769362  0.21942233644524112  1.0000
  H   H10       1.0  0.4076747655708743  0.8314128954986091  0.7804349630960558  1.0000
  H   H11       1.0  0.9087773428602118  0.9493862331173448  0.7805737571252889  1.0000
  H   H12       1.0  0.5922951269677837  0.1685835037846317  0.21956475192953917  1.0000
  H   H13       1.0  0.9032614154886219  0.15064819526042336  0.8937855602973526  1.0000
  H   H14       1.0  0.5986988691652968  0.2565511969142307  0.10666468641228728  1.0000
  H   H15       1.0  0.09663547096250372  0.8493130044330144  0.10619368049822238  1.0000
  H   H16       1.0  0.4013306745912217  0.7434372770070896  0.8933558113355459  1.0000
  H   H17       1.0  0.8970897207856295  0.39043724741677016  0.03899382204303233  1.0000
  H   H18       1.0  0.6045915058021762  0.3511832006703486  0.9613838643423518  1.0000
  H   H19       1.0  0.10287564742488799  0.6095431025483009  0.9609961659672449  1.0000
  H   H20       1.0  0.395416993064174  0.6488233541156135  0.03863996619774921  1.0000
  C   C1        1.0  0.7653066316970936  0.7107355375648368  0.36731868945442864  1.0000
  C   C2        1.0  0.7347517598429504  0.3432491097120689  0.632705300949631  1.0000
  C   C3        1.0  0.23469303590393048  0.2892658758153886  0.6326739787633429  1.0000
  C   C4        1.0  0.2652505704571126  0.6567530350760717  0.3672923228709449  1.0000
  C   C5        1.0  0.6769322456857622  0.5717772294709176  0.24590439696191163  1.0000
  C   C6        1.0  0.8231622829447928  0.3254780156752517  0.7540236616295174  1.0000
  C   C7        1.0  0.3230697589297904  0.4282226013871409  0.7540938286045031  1.0000
  C   C8        1.0  0.1768361822875235  0.674518122656579  0.24596509207961495  1.0000
  C   C9        1.0  0.9990341059511959  0.8473473221116237  0.529609031520138  1.0000
  C   C10       1.0  0.5009101020219474  0.3180719815348637  0.47072251391507064  1.0000
  C   C11       1.0  0.0009664163989385122  0.15265713914848084  0.47037559956793007  1.0000
  C   C12       1.0  0.49909887132746167  0.6819435459094834  0.5292899210176286  1.0000
  C   C13       1.0  0.7657976773221833  0.9331452781675865  0.5209172796882695  1.0000
  C   C14       1.0  0.7340540942326752  0.4118867251860436  0.4789338622512884  1.0000
  C   C15       1.0  0.2342156331480254  0.06685679187847171  0.47907317175848607  1.0000
  C   C16       1.0  0.2659402777967514  0.588118553618486  0.521063508540628  1.0000
  C   C17       1.0  0.03582798275964189  0.2584386756245749  0.24916430170688383  1.0000
  C   C18       1.0  0.4637809314985264  0.009357964679424005  0.7508466865068613  1.0000
  C   C19       1.0  0.9642045028688316  0.7415625584820374  0.7508296337835743  1.0000
  C   C20       1.0  0.536210767120501  0.9906546479026377  0.2491668752271039  1.0000
  C   C21       1.0  0.04416212499337749  0.11984416513706007  0.17342398828082384  1.0000
  C   C22       1.0  0.4553446667540584  0.9465143165560547  0.8265445916555617  1.0000
  C   C23       1.0  0.9558372125426899  0.8801481438705707  0.8265698445344113  1.0000
  C   C24       1.0  0.5446447820784356  0.0534834878925707  0.17345877979264657  1.0000
  C   C25       1.0  0.9964738678855625  0.07368820455998562  0.04185228086247147  1.0000
  C   C26       1.0  0.5037104343405261  0.03182965828360551  0.9582216773244594  1.0000
  C   C27       1.0  0.0035025473484751176  0.926296037398629  0.958135992541436  1.0000
  C   C28       1.0  0.4963000742953623  0.9681527294204387  0.04178566822135111  1.0000
  C   C29       1.0  0.9428553367832251  0.17438727497030732  0.993847435825678  1.0000
  C   C30       1.0  0.5583608535701501  0.18036906286745596  0.0064645463705375215  1.0000
  C   C31       1.0  0.05710531247996898  0.8255921865419111  0.0061385331040710875  1.0000
  C   C32       1.0  0.44164594212890035  0.8196165405307737  0.9935547747357558  1.0000
  C   C33       1.0  0.9379818623280085  0.3114066096968457  0.07512748867419101  1.0000
  C   C34       1.0  0.563190652759033  0.2361149203075072  0.925182496464373  1.0000
  C   C35       1.0  0.061978779043812424  0.6885674368136776  0.9248564198600135  1.0000
  C   C36       1.0  0.4368151860496852  0.7638813617463923  0.07484218781888792  1.0000
  N   N1        1.0  0.9121162059704132  0.7241925098558967  0.41742372943934186  1.0000
  N   N2        1.0  0.5879264901970769  0.30693515839049473  0.5828094578544378  1.0000
  N   N3        1.0  0.0878891249850184  0.2758248857144423  0.5825797457821125  1.0000
  N   N4        1.0  0.41207399863707656  0.6930692889333017  0.4171869524930826  1.0000
  N   N5        1.0  0.9188501335903894  0.9466520820866506  0.5759737728504176  1.0000
  N   N6        1.0  0.5809968707782431  0.3704174883938479  0.42400389610746453  1.0000
  N   N7        1.0  0.0811612359141023  0.05335647570645819  0.4240186005164829  1.0000
  N   N8        1.0  0.4190030017633362  0.6296026156357543  0.5760045825610476  1.0000
  N   N9        1.0  0.689766667729721  0.804803936327943  0.41104559518330314  1.0000
  N   N10       1.0  0.8101858421651543  0.39344299865947363  0.5888277426589852  1.0000
  N   N11       1.0  0.3102266454795668  0.19518776983065322  0.5889408161888028  1.0000
  N   N12       1.0  0.1898187696983626  0.6065576364317522  0.4111746643854771  1.0000
  N   N13       1.0  0.983237541581225  0.3527188572763151  0.20077303069998448  1.0000
  N   N14       1.0  0.5170766035472028  0.15189319252198172  0.7993852527673936  1.0000
  N   N15       1.0  0.01677706988798635  0.6472761367233987  0.7992213859609976  1.0000
  N   N16       1.0  0.4829219362512802  0.8481162664101661  0.20064003539106778  1.0000
  O   O1        1.0  0.7544117422526071  0.4946633560237004  0.19686895209915173  1.0000
  O   O2        1.0  0.745746260973874  0.29753092687499827  0.803139214702952  1.0000
  O   O3        1.0  0.24559080898217897  0.5053303315800691  0.803134954319205  1.0000
  O   O4        1.0  0.2542480327998716  0.7024663456330204  0.19684801467879956  1.0000
  O   O5        1.0  0.5394149561288585  0.5433890218400563  0.2021982986156771  1.0000
  O   O6        1.0  0.9606685612172257  0.34049803294511344  0.7975683634949886  1.0000
  O   O7        1.0  0.4605869375845657  0.4566109546685127  0.7977983787012377  1.0000
  O   O8        1.0  0.03933128960067481  0.6594841800089171  0.20241391314529986  1.0000
  O   O9        1.0  0.13496571928844506  0.8718639746431055  0.5862725125189385  1.0000
  O   O10       1.0  0.364935349732086  0.2864769388324078  0.41445085435401535  1.0000
  O   O11       1.0  0.865040887219969  0.12814780708328752  0.41371975128539157  1.0000
  O   O12       1.0  0.6350783355427865  0.7135422279464336  0.5855603531648866  1.0000
  O   O13       1.0  0.7048472004190813  0.027886049897219316  0.5670073319713183  1.0000
  O   O14       1.0  0.7948766810240215  0.4603508961141003  0.4326820783107974  1.0000
  O   O15       1.0  0.29516024856661016  0.9721165742648383  0.4329753971593888  1.0000
  O   O16       1.0  0.20512047600886515  0.539659008008698  0.5673264799761168  1.0000
