data_image0
_chemical_formula_structural       Zn2H12C20N16O4
_chemical_formula_sum              "Zn2 H12 C20 N16 O4"
_cell_length_a       7.552925443150022
_cell_length_b       7.552909775595263
_cell_length_c       12.181881153247481
_cell_angle_alpha    86.65241242117817
_cell_angle_beta     86.65233286781584
_cell_angle_gamma    61.78467243157075

_space_group_name_H-M_alt    "P 1"
_space_group_IT_number       1

loop_
  _space_group_symop_operation_xyz
  'x, y, z'

loop_
  _atom_site_type_symbol
  _atom_site_label
  _atom_site_symmetry_multiplicity
  _atom_site_fract_x
  _atom_site_fract_y
  _atom_site_fract_z
  _atom_site_occupancy
  Zn  Zn1       1.0  0.09143787256020616  0.9085658263460702  0.2500013472309561  1.0000
  Zn  Zn2       1.0  0.9085571020068032  0.09143680545535912  0.7500002090467108  1.0000
  H   H1        1.0  0.4632729316804358  0.603214987564961  0.3050880985572278  1.0000
  H   H2        1.0  0.3967868239090959  0.5367265533713095  0.19490958858799703  1.0000
  H   H3        1.0  0.5367265922950251  0.3967891718245583  0.6949091180966182  1.0000
  H   H4        1.0  0.6032088644544872  0.46327457140132833  0.8050911774793904  1.0000
  H   H5        1.0  0.6940677252993481  0.18271318669926023  0.27554310356070744  1.0000
  H   H6        1.0  0.8172883459058651  0.30593638002483914  0.22445903519694352  1.0000
  H   H7        1.0  0.30592998723270864  0.8172864307521692  0.7244543589076857  1.0000
  H   H8        1.0  0.18271143061002004  0.6940617699417471  0.775544150493751  1.0000
  H   H9        1.0  0.9996142820304427  0.5367875441671048  0.3144020111177357  1.0000
  H   H10       1.0  0.4632138575827156  0.00038518857019200024  0.18559787210687523  1.0000
  H   H11       1.0  0.0003853700250146746  0.46321361232169533  0.6855986003645926  1.0000
  H   H12       1.0  0.5367774832387441  0.9996083484905897  0.8144017139395177  1.0000
  C   C1        1.0  0.8550336622964205  0.7804888343091749  0.08583167270091964  1.0000
  C   C2        1.0  0.21951982000946654  0.144968528344549  0.41417293239927505  1.0000
  C   C3        1.0  0.1449697895648896  0.2194987558837838  0.9141660330461011  1.0000
  C   C4        1.0  0.7804805961269066  0.8550477365141306  0.5858295276750172  1.0000
  C   C5        1.0  0.7886660005964001  0.6343297061626033  0.0837463660021101  1.0000
  C   C6        1.0  0.36568015301364193  0.21133608654899666  0.4162556963182738  1.0000
  C   C7        1.0  0.21133339206923538  0.36566088780830347  0.9162554850825446  1.0000
  C   C8        1.0  0.6343231110698895  0.788674142951521  0.5837419616746261  1.0000
  C   C9        1.0  0.9369098084184982  0.5959073964939563  0.23446601271690784  1.0000
  C   C10       1.0  0.4040965920077041  0.06309295795387733  0.26553862551527635  1.0000
  C   C11       1.0  0.0630899427603424  0.4040907281222132  0.7655314286329613  1.0000
  C   C12       1.0  0.5959011603397074  0.9369066993339176  0.7344678637744125  1.0000
  C   C13       1.0  0.8393421300397603  0.9162293167862432  0.9985807824902085  1.0000
  C   C14       1.0  0.08378116256835709  0.16066190204329442  0.5014190224872765  1.0000
  C   C15       1.0  0.16065938953730097  0.08375674161231932  0.001415415483101902  1.0000
  C   C16       1.0  0.9162231000386285  0.8393574082967348  0.49858235003383566  1.0000
  C   C17       1.0  0.6874950489297831  0.6092864868953215  0.9973416473866907  1.0000
  C   C18       1.0  0.3907210834853315  0.3125055638416755  0.5026583296089058  1.0000
  C   C19       1.0  0.31249143603888985  0.3906949129801306  0.0026528498243151995  1.0000
  C   C20       1.0  0.6092913156108892  0.6875077570499003  0.4973388553375317  1.0000
  N   N1        1.0  0.9488597054559165  0.7536130488645797  0.18322532091026744  1.0000
  N   N2        1.0  0.24639397467407773  0.05114412056350661  0.31677758553607305  1.0000
  N   N3        1.0  0.0511380070761405  0.2463865685868427  0.8167721415581187  1.0000
  N   N4        1.0  0.7536006663270239  0.9488675706409143  0.6832252749378116  1.0000
  N   N5        1.0  0.8424376255353677  0.5184560593873186  0.17858491524513911  1.0000
  N   N6        1.0  0.4815503548883484  0.1575640938888441  0.3214155731296772  1.0000
  N   N7        1.0  0.15756490342387508  0.4815390907152236  0.821417459116745  1.0000
  N   N8        1.0  0.5184498865032693  0.8424385620933637  0.6785816739340051  1.0000
  N   N9        1.0  0.8237473190804394  0.017382404502484402  0.9197160438749068  1.0000
  N   N10       1.0  0.9826098984296363  0.17625742180813123  0.5802856640020978  1.0000
  N   N11       1.0  0.17625949265828203  0.9826037034272732  0.08028158922524402  1.0000
  N   N12       1.0  0.017387505873557443  0.8237512803967065  0.41971884700332407  1.0000
  N   N13       1.0  0.6050428521423326  0.5971570181972369  0.9223333764258829  1.0000
  N   N14       1.0  0.40284744043765386  0.39496605137561147  0.5776697168160255  1.0000
  N   N15       1.0  0.39495921194117045  0.4028336258896844  0.07767493656300672  1.0000
  N   N16       1.0  0.5971625397811167  0.6050412099770172  0.42232697526301183  1.0000
  O   O1        1.0  0.35958897177575005  0.6404260991123679  0.24999503503292436  1.0000
  O   O2        1.0  0.6404103322354898  0.3595841022934678  0.7500035981651437  1.0000
  O   O3        1.0  0.826730142122841  0.17327369013472088  0.2500009968114369  1.0000
  O   O4        1.0  0.1732689024985772  0.8267259487532216  0.7499988759889578  1.0000
