data_image0
_chemical_formula_structural       Cd2P4H68C60N4O12
_chemical_formula_sum              "Cd2 P4 H68 C60 N4 O12"
_cell_length_a       5.634576136059823
_cell_length_b       15.277535222410055
_cell_length_c       16.965702514502375
_cell_angle_alpha    100.53070965567433
_cell_angle_beta     89.99967864291602
_cell_angle_gamma    89.99969387638502

_space_group_name_H-M_alt    "P 1"
_space_group_IT_number       1

loop_
  _space_group_symop_operation_xyz
  'x, y, z'

loop_
  _atom_site_type_symbol
  _atom_site_label
  _atom_site_symmetry_multiplicity
  _atom_site_fract_x
  _atom_site_fract_y
  _atom_site_fract_z
  _atom_site_occupancy
  Cd  Cd1       1.0  0.8132087613936037  0.8080170293243897  0.277437101642775  1.0000
  Cd  Cd2       1.0  0.3132323780433167  0.19198343494924333  0.7225652881186094  1.0000
  P   P1        1.0  0.2965946111519742  0.9257052752094452  0.21130557860755772  1.0000
  P   P2        1.0  0.7965929179021529  0.07429243126370012  0.7886875833989748  1.0000
  P   P3        1.0  0.3047025567899624  0.6706205964431078  0.3308159960094414  1.0000
  P   P4        1.0  0.8047506145011452  0.3293818225099727  0.6691825829569922  1.0000
  H   H1        1.0  0.8666539043773084  0.9609529606885802  0.1207952146311726  1.0000
  H   H2        1.0  0.3666133719796321  0.0390303571579977  0.8791808717586703  1.0000
  H   H3        1.0  0.7837913120810356  0.9388090040771929  0.9747937605856691  1.0000
  H   H4        1.0  0.28373856417126575  0.061162543423883206  0.025180705106500105  1.0000
  H   H5        1.0  0.08285962232454838  0.8657807823924841  0.8767854076881392  1.0000
  H   H6        1.0  0.5827802189836576  0.13418740506797636  0.1231966283862178  1.0000
  H   H7        1.0  0.4707432507457127  0.8172155856941005  0.9249532643923999  1.0000
  H   H8        1.0  0.9706603558158376  0.1827638289438411  0.0750449999012304  1.0000
  H   H9        1.0  0.556147267131557  0.8421102491150237  0.07201639778800482  1.0000
  H   H10       1.0  0.05610080259318549  0.1578868889479352  0.9279866108674995  1.0000
  H   H11       1.0  0.7361152983933151  0.0153931700598307  0.2742951192476966  1.0000
  H   H12       1.0  0.23611903308463408  0.9846062245984726  0.7257113947138549  1.0000
  H   H13       1.0  0.8396496085939235  0.1759705411762127  0.3162528316404902  1.0000
  H   H14       1.0  0.3396579741861601  0.8240298370131002  0.6837483109078236  1.0000
  H   H15       1.0  0.5507931256799806  0.29292226534712285  0.2995971115857756  1.0000
  H   H16       1.0  0.05081350478251068  0.7070747854554894  0.7003994105867478  1.0000
  H   H17       1.0  0.15385719820874033  0.2501029373912402  0.23803535658923644  1.0000
  H   H18       1.0  0.6538625403413078  0.7498905299528645  0.761960994064772  1.0000
  H   H19       1.0  0.048942107536802795  0.0909601646246401  0.1974085969898169  1.0000
  H   H20       1.0  0.5489410840623988  0.9090322218335488  0.8025866288400678  1.0000
  H   H21       1.0  0.7269639643011486  0.7120916351318202  0.43237542742239315  1.0000
  H   H22       1.0  0.22704361896278158  0.2879236864500926  0.5676288166242287  1.0000
  H   H23       1.0  0.8174969297376435  0.6912766713534283  0.5711870107051027  1.0000
  H   H24       1.0  0.31756420156378345  0.30871772631343924  0.4288103192836417  1.0000
  H   H25       1.0  0.533867785289786  0.6107601826292139  0.6448893321309299  1.0000
  H   H26       1.0  0.0339421593042033  0.38922958871062  0.3551061160554028  1.0000
  H   H27       1.0  0.15387560069215309  0.5519092645437027  0.5790001222215793  1.0000
  H   H28       1.0  0.653952397886158  0.4480935959264372  0.4210023754724759  1.0000
  H   H29       1.0  0.05625064472571489  0.5785023173780033  0.4433632601538093  1.0000
  H   H30       1.0  0.5563133314851568  0.4215141165862661  0.556642098970798  1.0000
  H   H31       1.0  0.8578756651244177  0.6065095987603755  0.24886323209666736  1.0000
  H   H32       1.0  0.357899611966964  0.39349135254609274  0.751135012347838  1.0000
  H   H33       1.0  0.7583809477996084  0.4668709743637081  0.15513887061074172  1.0000
  H   H34       1.0  0.2584121923298354  0.5331356125888576  0.8448639769872486  1.0000
  H   H35       1.0  0.05029857636606749  0.34224085810362936  0.1290778512995274  1.0000
  H   H36       1.0  0.5503514603388666  0.6577563223372849  0.8709269443503587  1.0000
  H   H37       1.0  0.4443204907737268  0.35904255240332367  0.1963113195592854  1.0000
  H   H38       1.0  0.9443604275952708  0.6409542106330547  0.8036878747996496  1.0000
  H   H39       1.0  0.5481882150220869  0.5004465516899331  0.2874763545455394  1.0000
  H   H40       1.0  0.0482237035218631  0.49954519846428985  0.7125205443009648  1.0000
  H   H41       1.0  0.2626505380426493  0.711428885304265  0.1834717499020684  1.0000
  H   H42       1.0  0.7626933783150276  0.2885797703612952  0.8165367093290996  1.0000
  H   H43       1.0  0.9806745683319419  0.5844861744161137  0.9772881826540286  1.0000
  H   H44       1.0  0.48072344338549294  0.4155246587210115  0.022724869455423402  1.0000
  H   H45       1.0  0.15189671751405598  0.6694724408204777  0.9442360693697297  1.0000
  H   H46       1.0  0.651930980129812  0.3305344190123022  0.055767041912829995  1.0000
  H   H47       1.0  0.9024214562921384  0.6992785572705528  0.008324185774682705  1.0000
  H   H48       1.0  0.40243061854972234  0.3007344735729234  0.9916893644809123  1.0000
  H   H49       1.0  0.5403512273364938  0.6451869509846163  0.11092570702736991  1.0000
  H   H50       1.0  0.040352322198806696  0.3548301161310761  0.8890750659601494  1.0000
  H   H51       1.0  0.5310984194113217  0.6480644254646535  0.0063924587918649045  1.0000
  H   H52       1.0  0.031112168510219397  0.3519579726512987  0.9936079668507175  1.0000
  H   H53       1.0  0.43189526939494266  0.5510732570255783  0.04107650182871941  1.0000
  H   H54       1.0  0.9318804923716966  0.44894945460096386  0.9589237251071906  1.0000
  H   H55       1.0  0.3527399728688465  0.8625719700292364  0.3787010266246896  1.0000
  H   H56       1.0  0.8527505908546473  0.1374357248955533  0.6213029719709767  1.0000
  H   H57       1.0  0.07189121450097251  0.8639480165317153  0.46441336344486234  1.0000
  H   H58       1.0  0.5719155732333688  0.13605781782486298  0.5355962427489018  1.0000
  H   H59       1.0  0.11096483671204989  0.9271227195021795  0.5637498594340613  1.0000
  H   H60       1.0  0.6109773758491527  0.07288363458120269  0.436256797064722  1.0000
  H   H61       1.0  0.18241038785403413  0.8115817881652135  0.5427502015525293  1.0000
  H   H62       1.0  0.682429884929597  0.1884250393516211  0.45725578857725685  1.0000
  H   H63       1.0  0.7468795815663966  0.9502224142757287  0.5415889669394431  1.0000
  H   H64       1.0  0.24691094107105724  0.0497794688292217  0.4584084720400696  1.0000
  H   H65       1.0  0.638055268956073  0.8658198068826622  0.5922698055494919  1.0000
  H   H66       1.0  0.13806138249867672  0.13418234596325362  0.4077273120663066  1.0000
  H   H67       1.0  0.5061260886483866  0.9744143603199548  0.6105546084788146  1.0000
  H   H68       1.0  0.006135755602699099  0.0255861701833879  0.3894448950250791  1.0000
  C   C1        1.0  0.21999529629808015  0.9049064629042649  0.10544062925024632  1.0000
  C   C2        1.0  0.7199739642258507  0.09508141761131843  0.8945488373634376  1.0000
  C   C3        1.0  0.0008927753858642999  0.9308382353731233  0.07791935206019934  1.0000
  C   C4        1.0  0.5008625112566775  0.06914746126609118  0.9220649334713968  1.0000
  C   C5        1.0  0.9526700224808166  0.9170078182064856  0.9958306529056458  1.0000
  C   C6        1.0  0.45261196741974163  0.08297071101171842  0.004150419208961902  1.0000
  C   C7        1.0  0.12108554534844977  0.8759598827653009  0.9407465018541714  1.0000
  C   C8        1.0  0.6210090263679291  0.12401954208023369  0.0592383457806847  1.0000
  C   C9        1.0  0.337985606418627  0.8485438152582673  0.9679278370889364  1.0000
  C   C10       1.0  0.8379091199721032  0.15143989713327244  0.03206900106951591  1.0000
  C   C11       1.0  0.38769273779823976  0.8630784001917532  0.04985339921464062  1.0000
  C   C12       1.0  0.8876380395374069  0.13691118531652793  0.9501448196577441  1.0000
  C   C13       1.0  0.3836541161177535  0.042509122261059  0.23470030594264557  1.0000
  C   C14       1.0  0.8836476632604047  0.9574884344919141  0.7652973675077207  1.0000
  C   C15       1.0  0.6079491888845608  0.0669643716608377  0.2671012090752143  1.0000
  C   C16       1.0  0.1079499782823135  0.9330319403671439  0.7328997971705391  1.0000
  C   C17       1.0  0.6664337140656542  0.15701439220570992  0.29010832334925146  1.0000
  C   C18       1.0  0.16644319625979154  0.8429843777251592  0.7098893985483272  1.0000
  C   C19       1.0  0.5037822330475449  0.22299185574114233  0.28033957716151997  1.0000
  C   C20       1.0  0.0037924796190224987  0.7770053247202496  0.7196576523153055  1.0000
  C   C21       1.0  0.2815600852353056  0.1989136091833572  0.2463414474714725  1.0000
  C   C22       1.0  0.7815666200327626  0.8010875285448478  0.7536563950978064  1.0000
  C   C23       1.0  0.2225466779676211  0.10925744990196762  0.22359300460252743  1.0000
  C   C24       1.0  0.7225480788505292  0.8907451521324319  0.7764040052311572  1.0000
  C   C25       1.0  0.3824203150963754  0.649026515728714  0.42957570105538423  1.0000
  C   C26       1.0  0.8825015158302987  0.3509831001631342  0.5704285282728208  1.0000
  C   C27       1.0  0.5986224300842906  0.6794421234161873  0.4655982209116445  1.0000
  C   C28       1.0  0.09869148801597309  0.32056893133970743  0.5344097670336581  1.0000
  C   C29       1.0  0.6500064494052893  0.6669150045108128  0.5433646550592997  1.0000
  C   C30       1.0  0.15009425979646807  0.33308928899615614  0.45664396386153777  1.0000
  C   C31       1.0  0.49025884973150363  0.6218672993952908  0.5847872212785532  1.0000
  C   C32       1.0  0.9903331524656593  0.3781334318323317  0.4152183766962594  1.0000
  C   C33       1.0  0.2775388266704653  0.5891856499966863  0.548207188987412  1.0000
  C   C34       1.0  0.777613898032058  0.4108248820412895  0.4517962197509178  1.0000
  C   C35       1.0  0.22321934178863495  0.6034579965681885  0.47128909957628207  1.0000
  C   C36       1.0  0.7233076433558169  0.3965506591927052  0.5287129575838279  1.0000
  C   C37       1.0  0.2119709403152186  0.5634258452368076  0.27292650472000457  1.0000
  C   C38       1.0  0.7120095396745328  0.43657494266318514  0.7270802718658729  1.0000
  C   C39       1.0  0.9879835207335077  0.5528344914785637  0.23650946808825074  1.0000
  C   C40       1.0  0.4880260605118707  0.44716549736357786  0.763490716218449  1.0000
  C   C41       1.0  0.9316838670411725  0.4738025650325355  0.18412036988152644  1.0000
  C   C42       1.0  0.43172274555430323  0.5261955984903253  0.8158814221617376  1.0000
  C   C43       1.0  0.0952754936101243  0.4041563191977958  0.1694565689099647  1.0000
  C   C44       1.0  0.5953103231372906  0.5958420590728508  0.8305471365077111  1.0000
  C   C45       1.0  0.316748766755083  0.4135168818864657  0.20731375361081922  1.0000
  C   C46       1.0  0.8167807497251403  0.5864795974123211  0.792689200494678  1.0000
  C   C47       1.0  0.374301404856773  0.4926622637415293  0.2587545697654932  1.0000
  C   C48       1.0  0.8743263877794831  0.5073327183207681  0.7412468571956623  1.0000
  C   C49       1.0  0.12495470347857207  0.7029633639804873  0.13645239892972688  1.0000
  C   C50       1.0  0.624989615473666  0.2970369078334656  0.8635497646763781  1.0000
  C   C51       1.0  0.05048332283718078  0.6526015691807602  0.994630232631863  1.0000
  C   C52       1.0  0.5505127911597043  0.34741370412308475  0.005384982864235621  1.0000
  C   C53       1.0  0.43923504629452026  0.6243082847149426  0.05548986388900094  1.0000
  C   C54       1.0  0.9392427974938541  0.37570047410574153  0.9445111690094734  1.0000
  C   C55       1.0  0.495211616433579  0.88307466717324  0.42271258642523435  1.0000
  C   C56       1.0  0.9952515808299011  0.11692599637210319  0.577289454059084  1.0000
  C   C57       1.0  0.1826923316830076  0.8734732745503849  0.5182618363174214  1.0000
  C   C58       1.0  0.6827176378789942  0.1265335980981064  0.48174710749733407  1.0000
  C   C59       1.0  0.5877567088185457  0.9231712830383431  0.5649103844220562  1.0000
  C   C60       1.0  0.08775965138902822  0.0768337349135422  0.4350919905342181  1.0000
  N   N1        1.0  0.20180958629781287  0.6612846597970831  0.06463840584083162  1.0000
  N   N2        1.0  0.7018410592243711  0.33872471660895087  0.9353638058461584  1.0000
  N   N3        1.0  0.4235320885178311  0.8960695203633408  0.49889010533503614  1.0000
  N   N4        1.0  0.9235485400246901  0.10393395303849932  0.5011101549240919  1.0000
  O   O1        1.0  0.5110440823230817  0.8686165682879905  0.21953968201387405  1.0000
  O   O2        1.0  0.011042813312990098  0.1313780316494189  0.7804636233963507  1.0000
  O   O3        1.0  0.07629909611130611  0.917932599805255  0.26179232514351725  1.0000
  O   O4        1.0  0.5763317806122289  0.0820675398746999  0.738193414365945  1.0000
  O   O5        1.0  0.09096282510121508  0.7326686434764013  0.3395842576873136  1.0000
  O   O6        1.0  0.5910012250967113  0.2673330376830735  0.6604176020894458  1.0000
  O   O7        1.0  0.5287354967688954  0.6973442071934601  0.29102167972754245  1.0000
  O   O8        1.0  0.028791509192941992  0.30265431405319987  0.7089804178035805  1.0000
  O   O9        1.0  0.9167690752867583  0.7310412902656083  0.14916609727228552  1.0000
  O   O10       1.0  0.41681630574267803  0.2689469900822772  0.8508383462520257  1.0000
  O   O11       1.0  0.7066615081937613  0.8930729922838341  0.40154089935040826  1.0000
  O   O12       1.0  0.20667398300363965  0.10692708851583892  0.5984622437079707  1.0000
