data_image0
_chemical_formula_structural       Zn2H34C30N4O14
_chemical_formula_sum              "Zn2 H34 C30 N4 O14"
_cell_length_a       9.015707470122262
_cell_length_b       9.763594169294972
_cell_length_c       10.614599948916393
_cell_angle_alpha    101.27652737632907
_cell_angle_beta     95.6397566634419
_cell_angle_gamma    113.34460667186738

_space_group_name_H-M_alt    "P 1"
_space_group_IT_number       1

loop_
  _space_group_symop_operation_xyz
  'x, y, z'

loop_
  _atom_site_type_symbol
  _atom_site_label
  _atom_site_symmetry_multiplicity
  _atom_site_fract_x
  _atom_site_fract_y
  _atom_site_fract_z
  _atom_site_occupancy
  Zn  Zn1       1.0  0.10269404883513293  0.3481052895146704  0.6435190313168491  1.0000
  Zn  Zn2       1.0  0.8973087689817661  0.6518919221989352  0.3564800217447086  1.0000
  H   H1        1.0  0.3680665495536601  0.7037493598388098  0.9768070400396381  1.0000
  H   H2        1.0  0.6319320386222316  0.29625349082447633  0.02319265817776989  1.0000
  H   H3        1.0  0.15317065109776698  0.600792217379201  0.9717194746545914  1.0000
  H   H4        1.0  0.8468312648038251  0.3992130541126358  0.02828465838595661  1.0000
  H   H5        1.0  0.18090874135701543  0.5083972275911821  0.115693963257101  1.0000
  H   H6        1.0  0.8190829260031335  0.4915998540426474  0.8843089357688285  1.0000
  H   H7        1.0  0.13502766209250439  0.31585179075042197  0.2450964753924865  1.0000
  H   H8        1.0  0.8649597262058324  0.6841406146146128  0.7549043576783134  1.0000
  H   H9        1.0  0.2808375599984458  0.04270312098347521  0.9557141234338289  1.0000
  H   H10       1.0  0.7191538796466688  0.9572961421072113  0.04428347818375763  1.0000
  H   H11       1.0  0.3233633325730452  0.23345418900590437  0.8249509215664047  1.0000
  H   H12       1.0  0.676630328895733  0.7665474906161267  0.17505197277601067  1.0000
  H   H13       1.0  0.29859180999942225  0.9324022755374061  0.132064490910146  1.0000
  H   H14       1.0  0.7014090448423859  0.06760063598492391  0.8679363313353932  1.0000
  H   H15       1.0  0.09904802164686537  0.8686668322497656  0.036979876800259624  1.0000
  H   H16       1.0  0.9009515415934571  0.13132802832146953  0.9630185278801732  1.0000
  H   H17       1.0  0.4983694284822491  0.5214336721808907  0.7440205388552457  1.0000
  H   H18       1.0  0.5016330142466359  0.4785625076310966  0.25598490499809406  1.0000
  H   H19       1.0  0.7008963698863653  0.4114702202046915  0.6168106608030398  1.0000
  H   H20       1.0  0.2991054517521762  0.5885270917409786  0.383194929823226  1.0000
  H   H21       1.0  0.20676850883478437  0.14590259125559876  0.418367444013839  1.0000
  H   H22       1.0  0.7932380694843388  0.8541059978912601  0.5816263022723546  1.0000
  H   H23       1.0  0.6543683173896612  0.21219734295283393  0.4170772702478871  1.0000
  H   H24       1.0  0.34563844380225117  0.7878114204094759  0.5829259421433406  1.0000
  H   H25       1.0  0.4696015839798022  0.14549763835579202  0.3013577701888721  1.0000
  H   H26       1.0  0.5304112463958218  0.8545123351880692  0.698643281396663  1.0000
  H   H27       1.0  0.3291925863271388  0.9389283141414426  0.413417959613099  1.0000
  H   H28       1.0  0.6708180770866576  0.061079295135705515  0.5865806390791235  1.0000
  H   H29       1.0  0.5025229042216992  0.9252429306479899  0.358482306513352  1.0000
  H   H30       1.0  0.49748713810176065  0.07476581076284111  0.641516438951804  1.0000
  H   H31       1.0  0.9207548907900431  0.34782489690962143  0.4089278215361674  1.0000
  H   H32       1.0  0.07925188411059023  0.6521712129834613  0.5910694576578948  1.0000
  H   H33       1.0  0.9177363705914772  0.1834404973370027  0.3985710324793814  1.0000
  H   H34       1.0  0.082269398111201  0.816553304851212  0.6014257757511814  1.0000
  C   C1        1.0  0.20723462582090954  0.6695861956294424  0.7983285638566286  1.0000
  C   C2        1.0  0.7927608257697685  0.33041201790535274  0.2016701037249717  1.0000
  C   C3        1.0  0.25160558576761355  0.6144263739929201  0.9147608474479796  1.0000
  C   C4        1.0  0.7483909451701364  0.38557421693292343  0.08524207753912802  1.0000
  C   C5        1.0  0.2534146342675427  0.3814232727162904  0.959792809903746  1.0000
  C   C6        1.0  0.7465791634798719  0.6185761383411618  0.04021064879449196  1.0000
  C   C7        1.0  0.203169598591046  0.4073407125534133  0.07931999371554352  1.0000
  C   C8        1.0  0.7968198835199941  0.5926539873921614  0.9206795058065608  1.0000
  C   C9        1.0  0.17831237878844056  0.2995953832745073  0.15340998716841628  1.0000
  C   C10       1.0  0.8216743518449973  0.7003981193811273  0.846589099454313  1.0000
  C   C11       1.0  0.20495509448112867  0.16791356272081975  0.11034211923335849  1.0000
  C   C12       1.0  0.795033245153327  0.8320810980844514  0.8896563449694312  1.0000
  C   C13       1.0  0.260847562906882  0.14498658959774965  0.992788211542532  1.0000
  C   C14       1.0  0.7391433919265326  0.8550115370620405  0.007210101203810394  1.0000
  C   C15       1.0  0.28479374939146135  0.2523315132843109  0.918397815423198  1.0000
  C   C16       1.0  0.7151994455528905  0.7476690473283727  0.08160673665847899  1.0000
  C   C17       1.0  0.1729044078165599  0.9214505332612719  0.1373140142978784  1.0000
  C   C18       1.0  0.8270950374324  0.07854661329608352  0.8626847726372374  1.0000
  C   C19       1.0  0.4678814532804195  0.4292275733481788  0.656929083502277  1.0000
  C   C20       1.0  0.532118667920713  0.5707684933401255  0.34307239649141513  1.0000
  C   C21       1.0  0.5693032864194691  0.37683378925827077  0.5951843237657783  1.0000
  C   C22       1.0  0.4307027594190487  0.6231681466915548  0.4048204929841006  1.0000
  C   C23       1.0  0.31104309178050465  0.23489921143415426  0.49077545737850414  1.0000
  C   C24       1.0  0.6889609444887695  0.7651059815443733  0.5092222268061448  1.0000
  C   C25       1.0  0.5199834262558696  0.15457937693541624  0.4024691460872702  1.0000
  C   C26       1.0  0.48002735514928924  0.8454259463556115  0.5975290703502694  1.0000
  C   C27       1.0  0.4644300726072713  0.9960520206062569  0.4303813697213599  1.0000
  C   C28       1.0  0.5355771816640243  0.003955488671550695  0.5696150696234028  1.0000
  C   C29       1.0  0.09773497388965777  0.8104221785192326  0.2194883617514094  1.0000
  C   C30       1.0  0.902265129024201  0.18957387074753035  0.7805121716317843  1.0000
  N   N1        1.0  0.3072725006611776  0.3394964710444271  0.5908920737931851  1.0000
  N   N2        1.0  0.6927310873709517  0.6605076203462946  0.4091082147412308  1.0000
  N   N3        1.0  0.46842902907054906  0.2550416768729634  0.490421379326456  1.0000
  N   N4        1.0  0.5315772921519083  0.7449635943861566  0.5095783754968295  1.0000
  O   O1        1.0  0.13897200812724  0.5683986127089754  0.6845366308718539  1.0000
  O   O2        1.0  0.8610258098334284  0.4315973582771947  0.3154618318726961  1.0000
  O   O3        1.0  0.23163652424800313  0.8068646597784126  0.816380784682046  1.0000
  O   O4        1.0  0.7683561575777845  0.19313233904490099  0.1836165233896736  1.0000
  O   O5        1.0  0.9478812158655573  0.28154565425820993  0.4618686647180894  1.0000
  O   O6        1.0  0.05213437969639769  0.7184528631063646  0.5381268665696552  1.0000
  O   O7        1.0  0.26687349616251765  0.4730266038569795  0.8726026887440809  1.0000
  O   O8        1.0  0.7331241589645427  0.5269740087876118  0.1274003249518429  1.0000
  O   O9        1.0  0.172741892998431  0.0673807909831794  0.1892259149218489  1.0000
  O   O10       1.0  0.8272487315892079  0.9326139481026915  0.8107746199195772  1.0000
  O   O11       1.0  0.019395311752020847  0.8472165230179131  0.3058861390970975  1.0000
  O   O12       1.0  0.9806047362999945  0.15277947398421793  0.6941115544545795  1.0000
  O   O13       1.0  0.11105661558781313  0.6853656415079216  0.19603840510372092  1.0000
  O   O14       1.0  0.8889456177133113  0.31463273718246415  0.803962687951774  1.0000
