data_image0
_chemical_formula_structural       Al2H10C28Cl2O10F4
_chemical_formula_sum              "Al2 H10 C28 Cl2 O10 F4"
_cell_length_a       6.608678166086042
_cell_length_b       11.201701684743371
_cell_length_c       17.62404225136342
_cell_angle_alpha    83.48751506700525
_cell_angle_beta     81.31578916221815
_cell_angle_gamma    71.44265697691525

_space_group_name_H-M_alt    "P 1"
_space_group_IT_number       1

loop_
  _space_group_symop_operation_xyz
  'x, y, z'

loop_
  _atom_site_type_symbol
  _atom_site_label
  _atom_site_symmetry_multiplicity
  _atom_site_fract_x
  _atom_site_fract_y
  _atom_site_fract_z
  _atom_site_occupancy
  Al  Al1       1.0  0.49354471278145706  0.5021297324473649  0.5024481499241418  1.0000
  Al  Al2       1.0  0.9957760836705701  0.4988773806172303  0.5015854458135323  1.0000
  H   H1        1.0  0.30024598951619214  0.35604899688897257  0.5602389999837242  1.0000
  H   H2        1.0  0.6867289246436739  0.6542277711181724  0.4611432710631576  1.0000
  H   H3        1.0  0.6047379551550663  0.576750359538188  0.2750357000388775  1.0000
  H   H4        1.0  0.688521566232012  0.5765969574691637  0.13174559891713505  1.0000
  H   H5        1.0  0.10054990250889521  0.41380707109422576  0.26630741707875677  1.0000
  H   H6        1.0  0.8957157323485206  0.59155523809833  0.732587459018262  1.0000
  H   H7        1.0  0.4022889723868132  0.4164103320878709  0.7338447692972352  1.0000
  H   H8        1.0  0.3372401692140982  0.41395841126844585  0.8777309992744834  1.0000
  H   H9        1.0  0.20930293247143794  0.237682115511248  0.3943014349386118  1.0000
  H   H10       1.0  0.41560674079584475  0.7680882495207437  0.3943438849214402  1.0000
  C   C1        1.0  0.8568637398306437  0.2763061007643301  0.49296537529733087  1.0000
  C   C2        1.0  0.6988236376859547  0.4987992449958795  0.6400477215776661  1.0000
  C   C3        1.0  0.12959208424286567  0.7268227356483832  0.5039324780719454  1.0000
  C   C4        1.0  0.29310505612505006  0.5015880442597761  0.3637427819430314  1.0000
  C   C5        1.0  0.34629640411121454  0.4967955723354931  0.2789069680279184  1.0000
  C   C6        1.0  0.5139531810039556  0.5413763327285321  0.24117434246210226  1.0000
  C   C7        1.0  0.5607930160163052  0.540910995912206  0.161899820473046  1.0000
  C   C8        1.0  0.44508649369176834  0.4934464382684566  0.11794975581171491  1.0000
  C   C9        1.0  0.2803818839691488  0.44555692112680834  0.1573556537232648  1.0000
  C   C10       1.0  0.22973293204794487  0.4487725632459316  0.23672996442196143  1.0000
  C   C11       1.0  0.493049441994998  0.4954405570251481  0.0372785547707366  1.0000
  C   C12       1.0  0.5359393677155923  0.5006723223087731  0.967399138602893  1.0000
  C   C13       1.0  0.5766195244006838  0.5030347567091835  0.8865400410657074  1.0000
  C   C14       1.0  0.7331991679316728  0.5547668658216123  0.8443359595396842  1.0000
  C   C15       1.0  0.7734560633797899  0.5531331830362374  0.7646544257803355  1.0000
  C   C16       1.0  0.6543312246969107  0.5025390401161615  0.7251772910430958  1.0000
  C   C17       1.0  0.49478599149220065  0.4538659881453169  0.7657311736153288  1.0000
  C   C18       1.0  0.45841802146762245  0.45288130494812123  0.8452471279218017  1.0000
  C   C19       1.0  0.9299148713468526  0.13587260558005448  0.4908212647733805  1.0000
  C   C20       1.0  0.12305342579399789  0.0699902782576345  0.44519160382159123  1.0000
  C   C21       1.0  0.8064009242227784  0.06829323598892498  0.5345607335888047  1.0000
  C   C22       1.0  0.25078230371524046  0.13528822765347567  0.39638942495536605  1.0000
  C   C23       1.0  0.43042956270792126  0.06906218102557198  0.35121250440015217  1.0000
  C   C24       1.0  0.0584733626455362  0.8680541555463104  0.49597934498530094  1.0000
  C   C25       1.0  0.8710129838128963  0.9353739927514721  0.5376793331018845  1.0000
  C   C26       1.0  0.1856869272746167  0.9345795237218296  0.4468247403111079  1.0000
  C   C27       1.0  0.3697440821089375  0.8699066304233153  0.3977069056491729  1.0000
  C   C28       1.0  0.48891790602929325  0.9362687364738703  0.3513892738505149  1.0000
  Cl  Cl1       1.0  0.13990342851319335  0.383098582600489  0.1059976034609491  1.0000
  Cl  Cl2       1.0  0.8763192117401886  0.6201903295428933  0.8926601106312261  1.0000
  O   O1        1.0  0.6649585477775586  0.3334526682226411  0.48025959388467504  1.0000
  O   O2        1.0  0.8723248213144218  0.5181967848056103  0.6073049195408586  1.0000
  O   O3        1.0  0.9974071485642285  0.6722319183052646  0.49162294948087043  1.0000
  O   O4        1.0  0.421118460714588  0.5334755601380506  0.3990036969407811  1.0000
  O   O5        1.0  0.3191817733562703  0.6730224330710893  0.5208587199629946  1.0000
  O   O6        1.0  0.123512976788497  0.47607969040539183  0.39563978265669414  1.0000
  O   O7        1.0  0.9915707671752044  0.3269638706622118  0.5083822057533993  1.0000
  O   O8        1.0  0.5609177268421064  0.4738325684071539  0.6060857003800351  1.0000
  O   O9        1.0  0.263870901018592  0.44046186599504705  0.5352734042441369  1.0000
  O   O10       1.0  0.725259002829098  0.5628901288338354  0.4684968818290399  1.0000
  F   F1        1.0  0.7473051518062875  0.8763577236672971  0.5855649278946373  1.0000
  F   F2        1.0  0.623757431869045  0.12639954004876586  0.5794458249542416  1.0000
  F   F3        1.0  0.5544023863125602  0.12977005296511374  0.30462081244888134  1.0000
  F   F4        1.0  0.6647254088889484  0.8755038817821087  0.30426081708530006  1.0000
