data_image0
_chemical_formula_structural       CuH24PdC20N12
_chemical_formula_sum              "Cu1 H24 Pd1 C20 N12"
_cell_length_a       8.236666267078688
_cell_length_b       8.434690011059942
_cell_length_c       9.827945987096692
_cell_angle_alpha    72.04908332049021
_cell_angle_beta     73.84794154221649
_cell_angle_gamma    87.50836175403768

_space_group_name_H-M_alt    "P 1"
_space_group_IT_number       1

loop_
  _space_group_symop_operation_xyz
  'x, y, z'

loop_
  _atom_site_type_symbol
  _atom_site_label
  _atom_site_symmetry_multiplicity
  _atom_site_fract_x
  _atom_site_fract_y
  _atom_site_fract_z
  _atom_site_occupancy
  Cu  Cu1       1.0  0.49999733862184575  0.49999986370824695  0.5000010049315622  1.0000
  H   H1        1.0  0.7648378152495708  0.7816395223302595  0.21764563243836227  1.0000
  H   H2        1.0  0.23515666330035154  0.21835645746411814  0.7823564097087187  1.0000
  H   H3        1.0  0.5507770632906528  0.7495252123722905  0.668878419679345  1.0000
  H   H4        1.0  0.44922160362041563  0.25047824366024674  0.3311226702605197  1.0000
  H   H5        1.0  0.8951274496077276  0.046931177685927104  0.2725075797215554  1.0000
  H   H6        1.0  0.1048758706372723  0.9530647528051829  0.7274913759953208  1.0000
  H   H7        1.0  0.8794772896129075  0.11562292868931219  0.5078697287023175  1.0000
  H   H8        1.0  0.12052981769569732  0.8843729778399662  0.4921273241034214  1.0000
  H   H9        1.0  0.7659360931880955  0.974489803760754  0.683233874467625  1.0000
  H   H10       1.0  0.23406989204848835  0.0255086190820606  0.3167658216628553  1.0000
  H   H11       1.0  0.6587738720425803  0.1336407537804831  0.5751905673803323  1.0000
  H   H12       1.0  0.3412323079777835  0.8663614117286967  0.42480808119436386  1.0000
  H   H13       1.0  0.41573207849739185  0.3179712610000466  0.8656963583276253  1.0000
  H   H14       1.0  0.5842673091881567  0.682022178518949  0.1343011375835843  1.0000
  H   H15       1.0  0.873042781958006  0.44247479272137713  0.5213505491045112  1.0000
  H   H16       1.0  0.12695487709689962  0.5575336549125751  0.4786484247022358  1.0000
  H   H17       1.0  0.9442265375761354  0.2760448304432188  0.7905373403044608  1.0000
  H   H18       1.0  0.05577364488451049  0.723963599564264  0.20946002647092143  1.0000
  H   H19       1.0  0.509468288557251  0.14958613026986717  0.07987564634509428  1.0000
  H   H20       1.0  0.49053395499365143  0.8504135393114469  0.9201205271521005  1.0000
  H   H21       1.0  0.6929784110292445  0.2529714159067282  0.08528489317490791  1.0000
  H   H22       1.0  0.30702503125161223  0.7470269997837703  0.9147113336277856  1.0000
  H   H23       1.0  0.7123769792313014  0.0624090489404736  0.037845616208500056  1.0000
  H   H24       1.0  0.2876252525896135  0.9375906057735648  0.962147511473205  1.0000
  Pd  Pd1       1.0  0.9999990415765508  0.49999893610569757  6.709060706169707e-06  1.0000
  C   C1        1.0  0.7379882967442625  0.8145849696324845  0.31959203488403903  1.0000
  C   C2        1.0  0.2620075831393721  0.1854135088489528  0.6804110435564112  1.0000
  C   C3        1.0  0.625759872506272  0.7929151096427843  0.5536327924271306  1.0000
  C   C4        1.0  0.37423740089107577  0.207085857614203  0.4463692917630198  1.0000
  C   C5        1.0  0.803421076908741  0.9468030500924838  0.34483886233263666  1.0000
  C   C6        1.0  0.19657706275893358  0.05319041558490771  0.6551629905456623  1.0000
  C   C7        1.0  0.7596737842670578  0.044909978474194596  0.5706396783421681  1.0000
  C   C8        1.0  0.24033206329367834  0.9550859393461977  0.4293586856151776  1.0000
  C   C9        1.0  0.5487956491356912  0.33061364728262543  0.8053761786507608  1.0000
  C   C10       1.0  0.4512040710094781  0.6693860399251647  0.19462160187779884  1.0000
  C   C11       1.0  0.789831429479932  0.39446425066965674  0.6331729695452211  1.0000
  C   C12       1.0  0.2101648243312582  0.6055416933214701  0.36682395269632206  1.0000
  C   C13       1.0  0.8258423799233584  0.3114330228345921  0.7647948840903852  1.0000
  C   C14       1.0  0.17415894024929912  0.6885729106823748  0.2352039004475869  1.0000
  C   C15       1.0  0.6454973445704725  0.17868368815381067  0.029103310567322262  1.0000
  C   C16       1.0  0.35450490680042884  0.82131599133902  0.9708948934735347  1.0000
  C   C17       1.0  0.8334448854905573  0.441400214579005  0.19939626212534026  1.0000
  C   C18       1.0  0.16655103740306032  0.5585983184157755  0.800617984305248  1.0000
  C   C19       1.0  0.1137759370950988  0.2869564878077995  0.0567071723179353  1.0000
  C   C20       1.0  0.8862224701042721  0.71304197800292  0.9432953143629774  1.0000
  N   N1        1.0  0.6274091756012653  0.7198740408560982  0.4506887953140719  1.0000
  N   N2        1.0  0.3725868341382181  0.2801269327362447  0.5493135847558507  1.0000
  N   N3        1.0  0.7314672648118831  0.9306617322310375  0.4934344333719308  1.0000
  N   N4        1.0  0.2685323372074322  0.0693354747331156  0.5065670913426459  1.0000
  N   N5        1.0  0.6167208073862086  0.40469959601041694  0.6601456254358454  1.0000
  N   N6        1.0  0.38327891275896064  0.5953000911973663  0.33985215509271444  1.0000
  N   N7        1.0  0.6721059824223873  0.2717442965295049  0.8722184767622422  1.0000
  N   N8        1.0  0.32789520007442263  0.7282591319650396  0.12777897560259527  1.0000
  N   N9        1.0  0.7319293900840834  0.41147282488941533  0.31567819859309043  1.0000
  N   N10       1.0  0.2680716289089419  0.5885269005848386  0.6843284235021799  1.0000
  N   N11       1.0  0.1847095587659453  0.16221422717826783  0.08505607915160598  1.0000
  N   N12       1.0  0.8152838509098784  0.8377855016178299  0.9149452113194488  1.0000
