data_image0
_chemical_formula_structural       Ni8H48C32O56
_chemical_formula_sum              "Ni8 H48 C32 O56"
_cell_length_a       7.884851288
_cell_length_b       10.656470573
_cell_length_c       17.943
_cell_angle_alpha    90.0
_cell_angle_beta     90.0
_cell_angle_gamma    90.0

_space_group_name_H-M_alt    "P 1"
_space_group_IT_number       1

loop_
  _space_group_symop_operation_xyz
  'x, y, z'

loop_
  _atom_site_type_symbol
  _atom_site_label
  _atom_site_symmetry_multiplicity
  _atom_site_fract_x
  _atom_site_fract_y
  _atom_site_fract_z
  _atom_site_occupancy
  Ni  Ni1       1.0  0.1555552483109821  0.2261311551036016  0.3430686061416708  1.0000
  Ni  Ni2       1.0  0.6555139483564074  0.273975326070655  0.6569163462074314  1.0000
  Ni  Ni3       1.0  0.8444699534325579  0.7260518336721518  0.1568968399933155  1.0000
  Ni  Ni4       1.0  0.3444808152734281  0.7739241565491639  0.8430769659477235  1.0000
  Ni  Ni5       1.0  0.633283979318598  0.2757714179257249  0.1325057125341331  1.0000
  Ni  Ni6       1.0  0.1331096759678019  0.2241605214068088  0.8675338572145108  1.0000
  Ni  Ni7       1.0  0.3667805383218052  0.7758760223059796  0.3675182522432152  1.0000
  Ni  Ni8       1.0  0.8668508447841246  0.7241844236451982  0.6324717159895243  1.0000
  H   H1        1.0  0.4706670886295611  0.3693286602763095  0.23440561778966898  1.0000
  H   H2        1.0  0.9705598394286452  0.1306267389811921  0.7655670735105602  1.0000
  H   H3        1.0  0.529361917878191  0.8694417102295517  0.2655481246168421  1.0000
  H   H4        1.0  0.0294590210412125  0.630598090987661  0.7344329264894398  1.0000
  H   H5        1.0  0.0124707488332305  0.6008950107950497  0.2502290586858393  1.0000
  H   H6        1.0  0.512518226710277  0.8992264309610292  0.7497988073343365  1.0000
  H   H7        1.0  0.9875417703629379  0.10097808581448932  0.24980159393635398  1.0000
  H   H8        1.0  0.48750570677852767  0.3992297422355975  0.7501917182188009  1.0000
  H   H9        1.0  0.08203705769117417  0.8633815424134212  0.4409268238310204  1.0000
  H   H10       1.0  0.5820756577850617  0.6366188461298563  0.5590787493730147  1.0000
  H   H11       1.0  0.9179653154670859  0.36331072032511  0.0590258039346807  1.0000
  H   H12       1.0  0.4179457391942662  0.1365339480865657  0.9408694198294612  1.0000
  H   H13       1.0  0.4267727921668295  0.20641168057772316  0.4247088000891708  1.0000
  H   H14       1.0  0.9267555890522701  0.2935455954737733  0.5752800535027589  1.0000
  H   H15       1.0  0.5732257762272182  0.7063530038802455  0.0752889706292166  1.0000
  H   H16       1.0  0.0732569301438915  0.7934737812183101  0.9247349941481389  1.0000
  H   H17       1.0  0.3381839305020477  0.3848028267810975  0.4149947054561665  1.0000
  H   H18       1.0  0.8380728765369196  0.1152032459143157  0.585034832525217  1.0000
  H   H19       1.0  0.6618767823741365  0.8847066142036796  0.08495179178509459  1.0000
  H   H20       1.0  0.1618445235539383  0.6151258012768679  0.9149033049099913  1.0000
  H   H21       1.0  0.1484466805076394  0.4437472958430675  0.4068477957978018  1.0000
  H   H22       1.0  0.6483546503635722  0.0562775447923158  0.593192331271247  1.0000
  H   H23       1.0  0.8516305196801353  0.9436520216626505  0.0930964721618466  1.0000
  H   H24       1.0  0.3515805052936115  0.5562141761098474  0.9067987516022952  1.0000
  H   H25       1.0  0.5976789958197626  0.0735534335341725  0.078000891712648  1.0000
  H   H26       1.0  0.09735757491942817  0.4263100028174804  0.9221651897675968  1.0000
  H   H27       1.0  0.4024425932838227  0.573660853105423  0.4220609708521437  1.0000
  H   H28       1.0  0.9024203171503087  0.9264089768157434  0.577915064370508  1.0000
  H   H29       1.0  0.7795606759704794  0.1102119122794463  0.0471303572423807  1.0000
  H   H30       1.0  0.279320423373342  0.3897012591131173  0.9529889093239703  1.0000
  H   H31       1.0  0.22053174327414374  0.6102893031467502  0.4529080978654605  1.0000
  H   H32       1.0  0.7204942480837813  0.8897439292914768  0.5470946887365571  1.0000
  H   H33       1.0  0.6359435095030008  0.3956525728774238  0.3261333110405147  1.0000
  H   H34       1.0  0.1359442253059768  0.1043957276829204  0.6738605584350452  1.0000
  H   H35       1.0  0.3639700858236381  0.8956924278647875  0.1738471827453623  1.0000
  H   H36       1.0  0.8640568795975483  0.6043745868653829  0.8261360976425323  1.0000
  H   H37       1.0  0.8488479687861954  0.5418726547822104  0.3359633283174475  1.0000
  H   H38       1.0  0.3489399989302626  0.9582450333858789  0.6640517193334432  1.0000
  H   H39       1.0  0.1510529439930792  0.0419369618616798  0.164046146129408  1.0000
  H   H40       1.0  0.651050959935368  0.4582258231324801  0.8359516245889793  1.0000
  H   H41       1.0  0.20591510742517014  0.9265168924705663  0.540991472997824  1.0000
  H   H42       1.0  0.7059676583211638  0.5735060176006712  0.4590157721674188  1.0000
  H   H43       1.0  0.7939173195982789  0.4264207336632992  0.9589962659532958  1.0000
  H   H44       1.0  0.2941019323381795  0.0734727313923003  0.0409624923368455  1.0000
  H   H45       1.0  0.3486850797280353  0.1351526277048194  0.5309262665106189  1.0000
  H   H46       1.0  0.8487794830303699  0.3648862888855433  0.4690664883241382  1.0000
  H   H47       1.0  0.6512437346554589  0.6350535999364055  0.9690687176057508  1.0000
  H   H48       1.0  0.151268547298443  0.8648567024950181  0.030948559326759596  1.0000
  C   C1        1.0  0.8351761827166084  0.3153867856131853  0.262113916290474  1.0000
  C   C2        1.0  0.33501709842266786  0.184765677013992  0.737918965613332  1.0000
  C   C3        1.0  0.1649111635090605  0.8153290473127086  0.2378922142339661  1.0000
  C   C4        1.0  0.6650182493587662  0.684755796960431  0.7620832636682806  1.0000
  C   C5        1.0  0.698128575789063  0.41627290852183313  0.2724471938917716  1.0000
  C   C6        1.0  0.19811407253519053  0.0837997903604801  0.7275550353898481  1.0000
  C   C7        1.0  0.3017786782638936  0.9162639668652731  0.22753720113693282  1.0000
  C   C8        1.0  0.8018743498209628  0.5838021094678965  0.7724460792509618  1.0000
  C   C9        1.0  0.7836127498565941  0.545065081371007  0.2816747478125166  1.0000
  C   C10       1.0  0.2836781466511766  0.9550272700781194  0.7183302680711137  1.0000
  C   C11       1.0  0.2162983089605746  0.0450590086755938  0.2183297107507087  1.0000
  C   C12       1.0  0.7163178852334011  0.4550343349406845  0.7816747478125166  1.0000
  C   C13       1.0  0.6549013813182256  0.6526344677027609  0.2861048876999419  1.0000
  C   C14       1.0  0.1549781924054443  0.8474531917613747  0.7138739341247273  1.0000
  C   C15       1.0  0.3451542585390115  0.1525739679814322  0.2138928830184454  1.0000
  C   C16       1.0  0.8450520823570429  0.3474386734929737  0.7861344256813254  1.0000
  C   C17       1.0  0.4561024512248223  0.9106120017434804  0.4953753552917561  1.0000
  C   C18       1.0  0.9561473925923989  0.5894202922977456  0.5046268739898565  1.0000
  C   C19       1.0  0.5438035345733994  0.4105158429362064  0.0046781474669757  1.0000
  C   C20       1.0  0.043899369481678684  0.0893607309734179  0.9953720113693336  1.0000
  C   C21       1.0  0.2719442538204007  0.9545665171518677  0.489650002786604  1.0000
  C   C22       1.0  0.7720018777353488  0.545448885743383  0.5103600289806636  1.0000
  C   C23       1.0  0.7279579272136016  0.4544797423145823  0.0103527838154136  1.0000
  C   C24       1.0  0.2280436160839869  0.0454052771680296  0.9896316112132836  1.0000
  C   C25       1.0  0.2726265748691432  0.09858705026238822  0.4843331661372119  1.0000
  C   C26       1.0  0.7726968813314696  0.4014293448000146  0.5156556874547178  1.0000
  C   C27       1.0  0.7273276046091013  0.5984908376849702  0.0156573594159255  1.0000
  C   C28       1.0  0.2273384664499716  0.9013753600875276  0.9843482137881097  1.0000
  C   C29       1.0  0.093791242597753  0.1514056637183359  0.4937078526444835  1.0000
  C   C30       1.0  0.5938602808053375  0.3486004089770773  0.5062570361700907  1.0000
  C   C31       1.0  0.9061857654657641  0.6512953751859456  0.0062536922476752  1.0000
  C   C32       1.0  0.4061649209382025  0.8485285947216212  0.9937412918686944  1.0000
  O   O1        1.0  0.818811891839452  0.23072554680811663  0.2121378810678252  1.0000
  O   O2        1.0  0.3185703709875725  0.2693555976471771  0.7879228668561566  1.0000
  O   O3        1.0  0.1813223798115118  0.7307212971365473  0.2879022460012237  1.0000
  O   O4        1.0  0.6814560990107026  0.7693616703425974  0.7120815917070757  1.0000
  O   O5        1.0  0.9548994299307552  0.3250785498133979  0.308159170707242  1.0000
  O   O6        1.0  0.454703566249428  0.1752184259515417  0.6918497464192157  1.0000
  O   O7        1.0  0.04525640205073959  0.8248453312742042  0.19180683274814916  1.0000
  O   O8        1.0  0.5453406593151724  0.675244204983926  0.8081669731928898  1.0000
  O   O9        1.0  0.5738180511896045  0.41221434150344294  0.2140650950231304  1.0000
  O   O10       1.0  0.07373125741569447  0.087777655236998  0.7859271024912218  1.0000
  O   O11       1.0  0.426199541025511  0.9122485661088149  0.2859181853647641  1.0000
  O   O12       1.0  0.9262977490920576  0.5877856047264132  0.7140667669843381  1.0000
  O   O13       1.0  0.9100957948212878  0.5676870178131566  0.2250208995151297  1.0000
  O   O14       1.0  0.4101180709547947  0.9324034568419747  0.7750025079418137  1.0000
  O   O15       1.0  0.0899040418275021  0.0676968978667105  0.2749930334949582  1.0000
  O   O16       1.0  0.5899122038076925  0.4324386736144916  0.7249958200969715  1.0000
  O   O17       1.0  0.5408878169320273  0.6420606103239876  0.3352243214624053  1.0000
  O   O18       1.0  0.040996334387685386  0.8580195419641612  0.6647472551970139  1.0000
  O   O19       1.0  0.45926167377577787  0.1419409915917598  0.1648425569860095  1.0000
  O   O20       1.0  0.9590326721200666  0.3579768717858016  0.8352449423173383  1.0000
  O   O21       1.0  0.6722777394758666  0.7474275789003286  0.24342473387950753  1.0000
  O   O22       1.0  0.17236089183677444  0.7526413126238367  0.7565490720615315  1.0000
  O   O23       1.0  0.3277322432108248  0.2474271365869072  0.256546285459514  1.0000
  O   O24       1.0  0.8276351400478035  0.2526399319134143  0.7434464693752432  1.0000
  O   O25       1.0  0.5302636469965092  0.9381333089146437  0.5561890430808702  1.0000
  O   O26       1.0  0.030303678696341794  0.5618914779505957  0.4438165301231649  1.0000
  O   O27       1.0  0.4695560974795683  0.43807280919331504  0.9438912110572346  1.0000
  O   O28       1.0  0.9697773262556451  0.06184130059624951  0.056191829682887794  1.0000
  O   O29       1.0  0.526172257213531  0.8529249846594595  0.4421456835534769  1.0000
  O   O30       1.0  0.026213557168105694  0.6471288925127325  0.5578470712812802  1.0000
  O   O31       1.0  0.4738288476899938  0.3527875363842554  0.0579139497297021  1.0000
  O   O32       1.0  0.9737926207543735  0.1470393024844512  0.9421445689126671  1.0000
  O   O33       1.0  0.19060219972534034  0.8993080714998954  0.4255865797246869  1.0000
  O   O34       1.0  0.690649677602394  0.6006876250583915  0.574420665440563  1.0000
  O   O35       1.0  0.809407782961344  0.39922598864760067  0.0743955860224048  1.0000
  O   O36       1.0  0.3093349399895473  0.1006515236590246  0.9255542551412788  1.0000
  O   O37       1.0  0.3473978011695351  0.1354135020703922  0.414568912667896  1.0000
  O   O38       1.0  0.8474262552255283  0.3645681723030663  0.5854227275260513  1.0000
  O   O39       1.0  0.6525956942055655  0.6353454414029258  0.0854243994872661  1.0000
  O   O40       1.0  0.1525634353853675  0.8645076188115866  0.9145906481636317  1.0000
  O   O41       1.0  0.0340031777654488  0.1501604109013641  0.559796578052719  1.0000
  O   O42       1.0  0.5341077271056847  0.3498456617940491  0.4401666388006475  1.0000
  O   O43       1.0  0.9659319778917277  0.6500229088560161  0.9401554923925771  1.0000
  O   O44       1.0  0.4659073285999539  0.8497485108196372  0.059831131917739803  1.0000
  O   O45       1.0  0.0154371966640952  0.1940830208118101  0.437646435936017  1.0000
  O   O46       1.0  0.5154770650127176  0.305925867074599  0.562312879674522  1.0000
  O   O47       1.0  0.9845803955510204  0.6939764858674096  0.06229170149919129  1.0000
  O   O48       1.0  0.48453799069292086  0.8058615599951295  0.937686563005073  1.0000
  O   O49       1.0  0.2394515674472402  0.39685278263846874  0.3810477623585768  1.0000
  O   O50       1.0  0.7393506595200066  0.103185195554893  0.6189940366716797  1.0000
  O   O51       1.0  0.7606180232121105  0.8967631388400434  0.1188931616786491  1.0000
  O   O52       1.0  0.2606288850529808  0.6031312108424132  0.8809758680265318  1.0000
  O   O53       1.0  0.6566363537990438  0.1381423605419485  0.0490720615281717  1.0000
  O   O54       1.0  0.15641512502296703  0.3617201374127035  0.951049991640197  1.0000
  O   O55       1.0  0.3434408463887308  0.6382516569071939  0.45096973750209207  1.0000
  O   O56       1.0  0.8434096924720578  0.8617956514860055  0.5490258039346827  1.0000
