data_image0
_chemical_formula_structural       Cu2H4C12N4O8
_chemical_formula_sum              "Cu2 H4 C12 N4 O8"
_cell_length_a       6.861487783286399
_cell_length_b       6.861479882151252
_cell_length_c       7.420361093222242
_cell_angle_alpha    86.69538151809574
_cell_angle_beta     86.69521446779392
_cell_angle_gamma    66.38481161727896

_space_group_name_H-M_alt    "P 1"
_space_group_IT_number       1

loop_
  _space_group_symop_operation_xyz
  'x, y, z'

loop_
  _atom_site_type_symbol
  _atom_site_label
  _atom_site_symmetry_multiplicity
  _atom_site_fract_x
  _atom_site_fract_y
  _atom_site_fract_z
  _atom_site_occupancy
  Cu  Cu1       1.0  7.96789002822109e-07  0.500001442651289  1.2454130952989452e-06  1.0000
  Cu  Cu2       1.0  0.49999880259094454  2.9716952810002796e-07  0.499999333846425  1.0000
  H   H1        1.0  0.46048675014549884  0.34662534303030407  0.8458534614510002  1.0000
  H   H2        1.0  0.6533733443633166  0.5395143821436222  0.6541503413947111  1.0000
  H   H3        1.0  0.5395172759569248  0.6533733657411533  0.154146346422138  1.0000
  H   H4        1.0  0.3466279500421622  0.46048750807947414  0.3458494426220896  1.0000
  C   C1        1.0  0.3807721333868487  0.5131965613716147  0.8019470863985064  1.0000
  C   C2        1.0  0.4868025725486617  0.619230979505886  0.6980555767257144  1.0000
  C   C3        1.0  0.619231892428509  0.4868021471164213  0.1980540691482773  1.0000
  C   C4        1.0  0.5131968131286088  0.38077568624965596  0.30194270756263103  1.0000
  C   C5        1.0  0.06583903377633497  0.821267386663159  0.792791816611448  1.0000
  C   C6        1.0  0.17873115972653864  0.9341589858334416  0.7072119995652743  1.0000
  C   C7        1.0  0.9341606149787299  0.1787313156817305  0.20720957147594987  1.0000
  C   C8        1.0  0.8212678529771652  0.06584130854453461  0.2927879901635322  1.0000
  C   C9        1.0  0.8258326389695512  0.8953187622810433  0.823019774228726  1.0000
  C   C10       1.0  0.10468194585212844  0.17416031314214558  0.6769832583821439  1.0000
  C   C11       1.0  0.17416409145824474  0.1046799356849917  0.17698311655939145  1.0000
  C   C12       1.0  0.8953177034770552  0.8258383897695792  0.3230154343579557  1.0000
  N   N1        1.0  0.1739028529233622  0.6152624381647129  0.8442359984073422  1.0000
  N   N2        1.0  0.3847401039329483  0.8260944154826576  0.6557672162912311  1.0000
  N   N3        1.0  0.8260934280833966  0.3847410376649023  0.15576396746513413  1.0000
  N   N4        1.0  0.615262463149378  0.17390429124107945  0.3442326690954475  1.0000
  O   O1        1.0  0.7676803354064959  0.7706658820912012  0.9290420642073159  1.0000
  O   O2        1.0  0.2293343681527985  0.2323197238982431  0.5709605247404141  1.0000
  O   O3        1.0  0.23232077179453375  0.2293328217345589  0.070961941713847  1.0000
  O   O4        1.0  0.770663372161117  0.7676837542625138  0.42903801594487584  1.0000
  O   O5        1.0  0.7025150040723676  0.0558320601779698  0.7397015292191256  1.0000
  O   O6        1.0  0.9441651960390873  0.2974866997357921  0.7602948526241777  1.0000
  O   O7        1.0  0.2974861037027951  0.9441666442146328  0.2602997813547319  1.0000
  O   O8        1.0  0.055833181474440614  0.7025151875255418  0.2396996957251005  1.0000
