data_image0
_chemical_formula_structural       Zn8H60C72Br4O26
_chemical_formula_sum              "Zn8 H60 C72 Br4 O26"
_cell_length_a       17.80640585802347
_cell_length_b       18.613878990613408
_cell_length_c       23.414189418076635
_cell_angle_alpha    66.64979139006586
_cell_angle_beta     69.57729269422187
_cell_angle_gamma    90.24639904155687

_space_group_name_H-M_alt    "P 1"
_space_group_IT_number       1

loop_
  _space_group_symop_operation_xyz
  'x, y, z'

loop_
  _atom_site_type_symbol
  _atom_site_label
  _atom_site_symmetry_multiplicity
  _atom_site_fract_x
  _atom_site_fract_y
  _atom_site_fract_z
  _atom_site_occupancy
  Zn  Zn1       1.0  0.1185091569936532  0.5301687354089779  0.9437069233408975  1.0000
  Zn  Zn2       1.0  0.9702930385606976  0.557497745683769  0.05292618998198851  1.0000
  Zn  Zn3       1.0  0.9781060602090577  0.3888184914567604  0.0477720811177561  1.0000
  Zn  Zn4       1.0  0.9407403729404464  0.5320147854062753  0.9326355906426114  1.0000
  Zn  Zn5       1.0  0.38552919693557197  0.979707519048361  0.0476410478412177  1.0000
  Zn  Zn6       1.0  0.5287899536952949  0.11566057073530094  0.9385732699822424  1.0000
  Zn  Zn7       1.0  0.5257002749542679  0.9465384825432183  0.9354677043815939  1.0000
  Zn  Zn8       1.0  0.5659430371920423  0.9703916754343147  0.05185930670808833  1.0000
  H   H1        1.0  0.49189548434671343  0.8737502242671416  0.25817991494444914  1.0000
  H   H2        1.0  0.4349154446756884  0.8107999300702248  0.3837821343026775  1.0000
  H   H3        1.0  0.19355040357041992  0.8029546948983325  0.3820899326241828  1.0000
  H   H4        1.0  0.32174834015521725  0.6990224339464178  0.6069332844992346  1.0000
  H   H5        1.0  0.022773098688503537  0.6337058042101662  0.7269574140806582  1.0000
  H   H6        1.0  0.08217307301497813  0.6969249061402892  0.6014201142707377  1.0000
  H   H7        1.0  0.6226462933904314  0.025921192016646395  0.731237471876163  1.0000
  H   H8        1.0  0.6911620038176167  0.08489556480246561  0.6059762590047554  1.0000
  H   H9        1.0  0.7063855872559799  0.3173735759152906  0.6038341209983215  1.0000
  H   H10       1.0  0.8039962245073939  0.18918578609486053  0.3890906175593895  1.0000
  H   H11       1.0  0.8730099413149403  0.480369792028789  0.2542706568214042  1.0000
  H   H12       1.0  0.8146950794289367  0.4253336494704529  0.37969818851524206  1.0000
  H   H13       1.0  0.20008799075044686  0.3025100096091293  0.9097254190096462  1.0000
  H   H14       1.0  0.1283145121030458  0.23028552778094283  0.9863276435122754  1.0000
  H   H15       1.0  0.2179869571106182  0.13915648308655906  0.9830694709549233  1.0000
  H   H16       1.0  0.2896729035804668  0.21230145743336246  0.9070340807863386  1.0000
  H   H17       1.0  0.21689106182202517  0.1251850427442065  0.09449396712747665  1.0000
  H   H18       1.0  0.2888505804407586  0.18672838512148365  0.09836173465340883  1.0000
  H   H19       1.0  0.1285765382427755  0.21788268900358082  0.09740358939623657  1.0000
  H   H20       1.0  0.2019998517180071  0.2795565242056527  0.09964159467723721  1.0000
  H   H21       1.0  0.30488995087063137  0.39303062010460377  0.9123849483747362  1.0000
  H   H22       1.0  0.3051836936447359  0.3846726704290475  0.9897391969505661  1.0000
  H   H23       1.0  0.393395627966349  0.2921585199051152  0.9893186691792477  1.0000
  H   H24       1.0  0.3945311504451395  0.3018593618880275  0.9113024527284849  1.0000
  H   H25       1.0  0.8905734677430883  0.8005950395745175  0.9057257876405197  1.0000
  H   H26       1.0  0.8866741543385571  0.7876367350479471  0.9858484297198656  1.0000
  H   H27       1.0  0.7969966920018834  0.8789335822464468  0.9872773577846558  1.0000
  H   H28       1.0  0.8010842534912614  0.8909736346539675  0.9073077717443206  1.0000
  H   H29       1.0  0.693446768509908  0.7743578544892246  0.09257878630471326  1.0000
  H   H30       1.0  0.6219711318867667  0.71218283587379  0.08885349727270868  1.0000
  H   H31       1.0  0.7816237566741222  0.6814915566615201  0.09139746794329538  1.0000
  H   H32       1.0  0.7104350113548676  0.6209897287997921  0.08582580353543515  1.0000
  H   H33       1.0  0.7899513471709623  0.7120941261461341  0.8973619309162612  1.0000
  H   H34       1.0  0.7169369408919053  0.6381367878787005  0.9706273576358768  1.0000
  H   H35       1.0  0.6265841142394635  0.7283652845006474  0.9737109920030418  1.0000
  H   H36       1.0  0.6990760913621583  0.8019600239865383  0.8999279948806913  1.0000
  H   H37       1.0  0.1616106681132834  0.7936002735345371  0.9379806049645791  1.0000
  H   H38       1.0  0.24503085216975518  0.7566794634632575  0.8972795967068732  1.0000
  H   H39       1.0  0.33394926815468307  0.8524425961259898  0.8938093660265947  1.0000
  H   H40       1.0  0.2500098595329732  0.8883413806340102  0.9350977630933525  1.0000
  H   H41       1.0  0.3933794703688206  0.7438176327176793  0.9608495731248251  1.0000
  H   H42       1.0  0.3523531057846867  0.7029963987598721  0.04969200227606757  1.0000
  H   H43       1.0  0.3037008418093167  0.6477517660174359  0.9649717082056026  1.0000
  H   H44       1.0  0.26278933758175077  0.6081803496275954  0.05377868243466818  1.0000
  H   H45       1.0  0.10112155849292756  0.7357178802642965  0.06623675884335957  1.0000
  H   H46       1.0  0.14231337125234944  0.6599413800394772  0.11332987205295084  1.0000
  H   H47       1.0  0.2318715049102807  0.7550869992891125  0.10995893228471224  1.0000
  H   H48       1.0  0.19051775678312313  0.8306932335774564  0.06301904692375611  1.0000
  H   H49       1.0  0.8985452168213469  0.26923905073687143  0.9284761849279445  1.0000
  H   H50       1.0  0.8531557374617194  0.3439971886938481  0.8837510399215204  1.0000
  H   H51       1.0  0.7680425142718973  0.24595218722901546  0.8861748671546791  1.0000
  H   H52       1.0  0.8119283121678292  0.17172856026751762  0.9330025112153134  1.0000
  H   H53       1.0  0.6483538680147448  0.2964454414086647  0.9454391076838744  1.0000
  H   H54       1.0  0.6047806195265649  0.2557374920650234  0.034207847460081056  1.0000
  H   H55       1.0  0.7342086410203804  0.3923763908783969  0.9453179300137149  1.0000
  H   H56       1.0  0.6916108790866174  0.34946508435710655  0.03413227635973464  1.0000
  H   H57       1.0  0.8386317193783555  0.20662049897063645  0.05636085976883009  1.0000
  H   H58       1.0  0.7559693162264762  0.24027101847412521  0.10023113522948532  1.0000
  H   H59       1.0  0.6655778235040657  0.1471154262360983  0.10225951507317882  1.0000
  H   H60       1.0  0.7485597866467728  0.11099875053090366  0.06136870991387153  1.0000
  C   C1        1.0  0.14013884297848733  0.6347352850711376  0.004727294401206339  1.0000
  C   C2        1.0  0.9094769406119383  0.40794851017970774  0.1751683675279451  1.0000
  C   C3        1.0  0.14645777542128263  0.3646237090803482  2.0350161520351452e-05  1.0000
  C   C4        1.0  0.8600158604562865  0.3673397089135478  0.989203893532959  1.0000
  C   C5        1.0  0.09416037472841056  0.5909590313901777  0.8134756073821163  1.0000
  C   C6        1.0  0.8615875570448991  0.6431660933990175  0.9891222521215395  1.0000
  C   C7        1.0  0.36235516965899717  0.14379193261935097  0.9958553371216536  1.0000
  C   C8        1.0  0.5819520413638697  0.09470839207946113  0.8132029373371523  1.0000
  C   C9        1.0  0.35686268081047967  0.8639137887420463  0.9975832301611541  1.0000
  C   C10       1.0  0.6427794356056395  0.8630603639347216  0.9930141225371115  1.0000
  C   C11       1.0  0.417442022718383  0.916073868454426  0.17367784325867297  1.0000
  C   C12       1.0  0.6464169743856872  0.13800785391122622  0.9928142602052572  1.0000
  C   C13       1.0  0.3765615993305715  0.8755710384578779  0.24884916599379625  1.0000
  C   C14       1.0  0.4264309701464768  0.858204762446775  0.2863636593947658  1.0000
  C   C15       1.0  0.39489936208088483  0.8231879642179794  0.3560909100703068  1.0000
  C   C16       1.0  0.3099309429455772  0.8033597361895063  0.39169581541455034  1.0000
  C   C17       1.0  0.25912212908907156  0.8189837848477598  0.35507523155137466  1.0000
  C   C18       1.0  0.2916664793758699  0.8543375402148501  0.2849789383939409  1.0000
  C   C19       1.0  0.27482258025199263  0.7680187541545397  0.462852976578979  1.0000
  C   C20       1.0  0.24261138880115143  0.7375450099179733  0.5242082041095342  1.0000
  C   C21       1.0  0.206452254569669  0.702053688030219  0.5953370489627615  1.0000
  C   C22       1.0  0.2559992858600921  0.6846059318846545  0.6330302301729062  1.0000
  C   C23       1.0  0.22212406355702546  0.6493173308422728  0.7031549835330747  1.0000
  C   C24       1.0  0.13691713293349755  0.6298985132372369  0.73834828141387  1.0000
  C   C25       1.0  0.08839225475016123  0.6483670969792714  0.6996259670820705  1.0000
  C   C26       1.0  0.12127518996127416  0.6834788899545006  0.6299301964903206  1.0000
  C   C27       1.0  0.6240737394069739  0.1369202551287003  0.7384027740758866  1.0000
  C   C28       1.0  0.6409437015668615  0.08986295606744223  0.7022457732110752  1.0000
  C   C29       1.0  0.6791267333221497  0.12240791842226173  0.6328769347474648  1.0000
  C   C30       1.0  0.7027193252259992  0.20541455431398964  0.5963463072151638  1.0000
  C   C31       1.0  0.6875514713727781  0.2533887962958516  0.6315947940115263  1.0000
  C   C32       1.0  0.6487002331832413  0.21981521876054447  0.7014331595995882  1.0000
  C   C33       1.0  0.7404651048108449  0.24030089877707891  0.5254060404827497  1.0000
  C   C34       1.0  0.7714986438983685  0.26998969190405125  0.4640332880606834  1.0000
  C   C35       1.0  0.805709988563926  0.30324028320281843  0.3929821842957252  1.0000
  C   C36       1.0  0.8194719129446925  0.253193651381558  0.35963635090193674  1.0000
  C   C37       1.0  0.8521993051963364  0.2846338610030231  0.28959660080847266  1.0000
  C   C38       1.0  0.8724679703004767  0.3675300271773169  0.2504463942730338  1.0000
  C   C39       1.0  0.8577289784609974  0.4165421332469209  0.28484325871917787  1.0000
  C   C40       1.0  0.8253918471783307  0.38614020988962494  0.35436104444213606  1.0000
  C   C41       1.0  0.19179287964628597  0.2603338156150273  0.9610808892388146  1.0000
  C   C42       1.0  0.2511623439040918  0.19998528497058032  0.9592820073657504  1.0000
  C   C43       1.0  0.3059009611224469  0.20470191213072308  0.9968891719569652  1.0000
  C   C44       1.0  0.250669958193768  0.18578559510424245  0.0704172444817317  1.0000
  C   C45       1.0  0.19229555160351455  0.2471098880643653  0.07177909853257344  1.0000
  C   C46       1.0  0.2066573596220067  0.30699594573244593  0.9992268188561365  1.0000
  C   C47       1.0  0.2950298850340403  0.34999670180783243  0.9637234432090336  1.0000
  C   C48       1.0  0.35386905587881756  0.28922469757650765  0.9630003113711041  1.0000
  C   C49       1.0  0.8490400114964132  0.7862022129914837  0.95768223733684  1.0000
  C   C50       1.0  0.789391284161418  0.8466405629460286  0.958745188176948  1.0000
  C   C51       1.0  0.7006746296359907  0.802978325075458  0.9915189124184918  1.0000
  C   C52       1.0  0.6855179287549192  0.7423408925150171  0.06397523856792711  1.0000
  C   C53       1.0  0.7444508496912617  0.6815175485179028  0.06260265674156763  1.0000
  C   C54       1.0  0.8012682537678729  0.7011400823827502  0.9893362747460441  1.0000
  C   C55       1.0  0.7497019520361337  0.6987676230545006  0.9493159927517851  1.0000
  C   C56       1.0  0.6898259733352817  0.7586228781740945  0.9510195369628675  1.0000
  C   C57       1.0  0.21810378971165534  0.7713987253570026  0.940374413856787  1.0000
  C   C58       1.0  0.2770938859370915  0.834577683924039  0.938235111354096  1.0000
  C   C59       1.0  0.29707067372013546  0.8011161960028448  0.0022539795340107698  1.0000
  C   C60       1.0  0.3363734273894821  0.7265282582301541  0.005056635943567695  1.0000
  C   C61       1.0  0.27690712053497174  0.6632197261647904  0.007632918629333611  1.0000
  C   C62       1.0  0.19714272470789498  0.6946607876204497  0.006102384827805456  1.0000
  C   C63       1.0  0.15845681726484173  0.7145342410931123  0.06665518138920848  1.0000
  C   C64       1.0  0.21777823544369576  0.7775236071904176  0.06445880090848982  1.0000
  C   C65       1.0  0.8400754179123737  0.28866599210184773  0.9293479962370482  1.0000
  C   C66       1.0  0.7826916450343404  0.22407217345525512  0.9313701042108489  1.0000
  C   C67       1.0  0.7026965419405827  0.19861205900578233  0.9941824336482622  1.0000
  C   C68       1.0  0.6628010797292276  0.27312560822817744  0.9907150714997639  1.0000
  C   C69       1.0  0.7204008299884845  0.33627575976080964  0.9902869990133139  1.0000
  C   C70       1.0  0.8003600185230155  0.3058245162631153  0.9919341249617443  1.0000
  C   C71       1.0  0.781504089612845  0.2279739988494215  0.05563875924245555  1.0000
  C   C72       1.0  0.7223704544249472  0.16519728574271406  0.057675331643508715  1.0000
  Br  Br1       1.0  0.21364035360459613  0.8670553092114875  0.24444029299626624  1.0000
  Br  Br2       1.0  0.2998713851355675  0.632310867821353  0.7442383835190254  1.0000
  Br  Br3       1.0  0.6357803528276307  0.2934649689673138  0.7406666937724464  1.0000
  Br  Br4       1.0  0.8637125648465868  0.20776231056325412  0.2537488532430458  1.0000
  O   O1        1.0  0.0003672633922065104  0.5036951697307472  0.993102349388735  1.0000
  O   O2        1.0  0.16979485398755403  0.6105755765609899  0.9586630157855821  1.0000
  O   O3        1.0  0.9119901238964728  0.48310363710780285  0.14828524752962116  1.0000
  O   O4        1.0  0.07146941422835343  0.3339627800639634  0.03343738743166813  1.0000
  O   O5        1.0  0.06739575794760103  0.6143686783319924  0.04812965077176291  1.0000
  O   O6        1.0  0.17450906116488343  0.4386189397726384  0.9667449511259888  1.0000
  O   O7        1.0  0.9364526179815228  0.3653848444205964  0.14384571610113275  1.0000
  O   O8        1.0  0.8972042125591031  0.3410894390971394  0.029107350188219482  1.0000
  O   O9        1.0  0.016560481341045444  0.583694324074145  0.8369509013835666  1.0000
  O   O10       1.0  0.8697061393484447  0.43936287210875963  0.9468692413022736  1.0000
  O   O11       1.0  0.13800851974083633  0.5676935078165857  0.8479316976902067  1.0000
  O   O12       1.0  0.8997729102560046  0.63448816666795  0.02801747457326785  1.0000
  O   O13       1.0  0.86993645739048  0.6084971037616074  0.9505010760729389  1.0000
  O   O14       1.0  0.5026187512494077  0.0010794437842562973  0.994429506438564  1.0000
  O   O15       1.0  0.32927989939862806  0.07090262611081502  0.02412089547120642  1.0000
  O   O16       1.0  0.5493456638942648  0.13541761673982936  0.8450852309732253  1.0000
  O   O17       1.0  0.4265625159181711  0.8838946992328334  0.9495546886741475  1.0000
  O   O18       1.0  0.43855129567227646  0.16963006610695433  0.9668426745769878  1.0000
  O   O19       1.0  0.33291581198938763  0.8921227461179982  0.041269329678776376  1.0000
  O   O20       1.0  0.5812801054537928  0.0197987225188712  0.8394368926881979  1.0000
  O   O21       1.0  0.6009517414530593  0.8732334814431797  0.9568302919508582  1.0000
  O   O22       1.0  0.4931989125768794  0.9134938509108753  0.1483086957584162  1.0000
  O   O23       1.0  0.6407743478357304  0.8986679285917919  0.03024004476803529  1.0000
  O   O24       1.0  0.37431819955467205  0.9510702956641527  0.14106950772217158  1.0000
  O   O25       1.0  0.6227241103955307  0.16306304017836482  0.9436730283307281  1.0000
  O   O26       1.0  0.627555627848814  0.06770673968409821  0.03959336509130648  1.0000
