data_image0
_chemical_formula_structural       K4H8C16N12O4
_chemical_formula_sum              "K4 H8 C16 N12 O4"
_cell_length_a       3.847285978012038
_cell_length_b       8.300061864455172
_cell_length_c       18.9866765416053
_cell_angle_alpha    93.70101319784331
_cell_angle_beta     89.99992576583085
_cell_angle_gamma    90.0002764783437

_space_group_name_H-M_alt    "P 1"
_space_group_IT_number       1

loop_
  _space_group_symop_operation_xyz
  'x, y, z'

loop_
  _atom_site_type_symbol
  _atom_site_label
  _atom_site_symmetry_multiplicity
  _atom_site_fract_x
  _atom_site_fract_y
  _atom_site_fract_z
  _atom_site_occupancy
  K   K1        1.0  0.1727804120267322  0.33835826585951884  0.9030128522331187  1.0000
  K   K2        1.0  0.3272233360601435  0.33836008692939157  0.4030129187080648  1.0000
  K   K3        1.0  0.827222585116225  0.6616350202213467  0.09698728339922982  1.0000
  K   K4        1.0  0.6727562680547766  0.6616476368060235  0.5969833781474351  1.0000
  H   H1        1.0  0.010143051183035802  0.6176553282650586  0.7340745573785767  1.0000
  H   H2        1.0  0.4898594295865949  0.6176575079099819  0.23407406422158067  1.0000
  H   H3        1.0  0.9898599459688173  0.3823403849555476  0.2659266946393402  1.0000
  H   H4        1.0  0.5101383691190762  0.3823405761235746  0.7659235624907483  1.0000
  H   H5        1.0  0.9376316134942329  0.8215324202579167  0.7567162346344676  1.0000
  H   H6        1.0  0.5623712579502681  0.8215336534603351  0.2567168813414327  1.0000
  H   H7        1.0  0.06236098670864011  0.17846209815481726  0.24328603975559562  1.0000
  H   H8        1.0  0.43762134228114763  0.1784632169975211  0.7432801871786411  1.0000
  C   C1        1.0  0.43238876639053814  0.7434389851607224  0.9357375669238622  1.0000
  C   C2        1.0  0.06762931984415131  0.743436595689424  0.43573706484894364  1.0000
  C   C3        1.0  0.5676090322865903  0.2565567468277123  0.06426526565846301  1.0000
  C   C4        1.0  0.9323658796963346  0.2565759886008721  0.5642619916307368  1.0000
  C   C5        1.0  0.6330588044042712  0.953340598464905  0.86288788765188  1.0000
  C   C6        1.0  0.8669577402006754  0.9533401253196131  0.3628905177170125  1.0000
  C   C7        1.0  0.36694679192890334  0.046645475036356715  0.13711469422443662  1.0000
  C   C8        1.0  0.13302706237750078  0.0466676234531747  0.6371078865564785  1.0000
  C   C9        1.0  0.5913480110926628  0.790264856518789  0.8741644471123421  1.0000
  C   C10       1.0  0.9086641926870701  0.7902656279268995  0.3741623584181256  1.0000
  C   C11       1.0  0.40865758529245266  0.20973086296262267  0.12583733175993936  1.0000
  C   C12       1.0  0.09133100681574292  0.20973848640581136  0.6258348981306057  1.0000
  C   C13       1.0  0.7218758975480315  0.6635369136287467  0.8246266427255409  1.0000
  C   C14       1.0  0.77813532233116  0.6635410204244536  0.32462520120670046  1.0000
  C   C15       1.0  0.2781296988139205  0.3364552026903526  0.17537662269617735  1.0000
  C   C16       1.0  0.22186507563374394  0.33646189285997957  0.6753725508579792  1.0000
  N   N1        1.0  0.3029490741518331  0.6984080792764046  0.9870657092740774  1.0000
  N   N2        1.0  0.197060427885539  0.6984059551280168  0.48706307369462826  1.0000
  N   N3        1.0  0.6970487245411975  0.3015888224767097  0.012933993518622303  1.0000
  N   N4        1.0  0.8029321724338417  0.3016090375254592  0.5129355186069945  1.0000
  N   N5        1.0  0.67450181918786  0.08956698936187021  0.8508417254648108  1.0000
  N   N6        1.0  0.8255111539468845  0.0895785213974492  0.35084678468264496  1.0000
  N   N7        1.0  0.3255089756935021  0.9104323207719105  0.14915751314825343  1.0000
  N   N8        1.0  0.17447624786409216  0.9104304659796653  0.6491542852018881  1.0000
  N   N9        1.0  0.8821841099525188  0.7049303066032238  0.7653869120277221  1.0000
  N   N10       1.0  0.6178253100665786  0.70493164542129  0.26538596699541733  1.0000
  N   N11       1.0  0.11782408565650122  0.2950642243427737  0.2346164160700326  1.0000
  N   N12       1.0  0.38217248865125714  0.2950688532362449  0.7346117223932185  1.0000
  O   O1        1.0  0.6823225440364311  0.5158586784046265  0.8371708631552155  1.0000
  O   O2        1.0  0.8176896831047032  0.515858032165326  0.33716823460294176  1.0000
  O   O3        1.0  0.3176908500440377  0.4841358462893126  0.16283193808738622  1.0000
  O   O4        1.0  0.18231851254503087  0.48414126544977165  0.6628299503011237  1.0000
