data_image0
_chemical_formula_structural       Zn2H20C52N14O28
_chemical_formula_sum              "Zn2 H20 C52 N14 O28"
_cell_length_a       15.116083968269006
_cell_length_b       15.839606102789244
_cell_length_c       19.34904593943455
_cell_angle_alpha    87.19477491969602
_cell_angle_beta     75.45261077675445
_cell_angle_gamma    77.99850432268674

_space_group_name_H-M_alt    "P 1"
_space_group_IT_number       1

loop_
  _space_group_symop_operation_xyz
  'x, y, z'

loop_
  _atom_site_type_symbol
  _atom_site_label
  _atom_site_symmetry_multiplicity
  _atom_site_fract_x
  _atom_site_fract_y
  _atom_site_fract_z
  _atom_site_occupancy
  Zn  Zn1       1.0  0.597504019801754  0.50412016582154  0.4737105035343914  1.0000
  Zn  Zn2       1.0  0.4080348163035339  0.4879635896887606  0.506277739237646  1.0000
  H   H1        1.0  0.6247168886079705  0.4309521217988461  0.6866585373657798  1.0000
  H   H2        1.0  0.3748800275438883  0.5756004919845807  0.2969394363202084  1.0000
  H   H3        1.0  0.6302836695883657  0.4312209032072971  0.8151317071705645  1.0000
  H   H4        1.0  0.36812580606446244  0.5813171662993569  0.16886402317165047  1.0000
  H   H5        1.0  0.34100431786549734  0.5600364927670612  0.8717486870875317  1.0000
  H   H6        1.0  0.6446316952777026  0.4222325300332273  0.111963196864707  1.0000
  H   H7        1.0  0.2733215684328202  0.7426183390290005  0.5751745215606687  1.0000
  H   H8        1.0  0.7418124723248097  0.2429321516235774  0.4767688373726385  1.0000
  H   H9        1.0  0.639370000652896  0.8449595691859813  0.5301503708284087  1.0000
  H   H10       1.0  0.37175495047843293  0.14048608461276055  0.5796381618438529  1.0000
  H   H11       1.0  0.9802381296308483  0.3850851591240527  0.6720453863628745  1.0000
  H   H12       1.0  0.9662349279323191  0.7237875095028415  0.4182715055069507  1.0000
  H   H13       1.0  0.6675330704686145  0.6561492508659443  0.4102861644980748  1.0000
  H   H14       1.0  0.3156104235853974  0.3797577278077853  0.6120763261582025  1.0000
  H   H15       1.0  0.8573421285023244  0.4483790416105506  0.6145446628890524  1.0000
  H   H16       1.0  0.09607119316779487  0.6461589961088167  0.4622515735998076  1.0000
  H   H17       1.0  0.595333037132015  0.8251143503566993  0.44529459135011945  1.0000
  H   H18       1.0  0.41824371027577456  0.16924480333755548  0.47970159441109655  1.0000
  H   H19       1.0  0.8521197972465516  0.119113563982765  0.4654080650019734  1.0000
  H   H20       1.0  0.16279387921658633  0.8636043576816448  0.6163447992283222  1.0000
  C   C1        1.0  0.5717663218880064  0.3330450608708516  0.4852215001503664  1.0000
  C   C2        1.0  0.43992368366031087  0.6597310919680979  0.506792439432523  1.0000
  C   C3        1.0  0.4821015308779765  0.4934593754863599  0.62925403240051  1.0000
  C   C4        1.0  0.5129531758148075  0.4968764424758731  0.3540649456958319  1.0000
  C   C5        1.0  0.5633582468423555  0.4589457919736193  0.7278841867090691  1.0000
  C   C6        1.0  0.43330654002024716  0.5421626461139866  0.25584073245305916  1.0000
  C   C7        1.0  0.5663912279394481  0.4590202156231343  0.7989864732177163  1.0000
  C   C8        1.0  0.4295659717911989  0.5454720688599012  0.1847211343892567  1.0000
  C   C9        1.0  0.48680356116873463  0.49653635603034735  0.8513376739578786  1.0000
  C   C10       1.0  0.5055480640021417  0.5022969933581152  0.13217531255599368  1.0000
  C   C11       1.0  0.40332861656560237  0.5313115212125652  0.8316560192257252  1.0000
  C   C12       1.0  0.5851647361952103  0.4559836487725805  0.15201212781932577  1.0000
  C   C13       1.0  0.40244834561859494  0.5304539547587623  0.7601294871569734  1.0000
  C   C14       1.0  0.5864564807294387  0.45263557766608653  0.22354321640059271  1.0000
  C   C15       1.0  0.48164212086123126  0.49561790424930763  0.7068018512415504  1.0000
  C   C16       1.0  0.5117790939969994  0.4956014750666142  0.27675194644859846  1.0000
  C   C17       1.0  0.50172466099896  0.5046527969528753  0.057011621104699386  1.0000
  C   C18       1.0  0.49224224003236117  0.501299897437498  0.9257743726068807  1.0000
  C   C19       1.0  0.5984765929074244  0.23706219099115347  0.48941061628458715  1.0000
  C   C20       1.0  0.4136593816341759  0.7535998255291929  0.5254885908072706  1.0000
  C   C21       1.0  0.7228448778523884  0.11166230906155757  0.4908875209027668  1.0000
  C   C22       1.0  0.2908082829861768  0.8735817365210609  0.5806579738702806  1.0000
  C   C23       1.0  0.692306380347766  0.19980042575801352  0.48611269204233293  1.0000
  C   C24       1.0  0.32126436006301157  0.7872112347819498  0.5626369566494062  1.0000
  C   C25       1.0  0.5336022018224684  0.1832975627753726  0.49718116985254557  1.0000
  C   C26       1.0  0.4777828000685462  0.8084947945931518  0.5080733636463604  1.0000
  C   C27       1.0  0.5599233348115646  0.0941381417646596  0.5129042002384236  1.0000
  C   C28       1.0  0.4521409610100804  0.8947313294079677  0.534399723631381  1.0000
  C   C29       1.0  0.6566468878828076  0.05722344056655973  0.5081643182484824  1.0000
  C   C30       1.0  0.35599606347663837  0.9291766807925371  0.5681662735913516  1.0000
  C   C31       1.0  0.49143436927383977  0.039703285715567915  0.5317747273294059  1.0000
  C   C32       1.0  0.5205013107395758  0.9487666159641107  0.5260201162008398  1.0000
  C   C33       1.0  0.6163959649534121  0.9136490875894695  0.521820858638172  1.0000
  C   C34       1.0  0.39540572267648605  0.07290336176989601  0.5637811055663773  1.0000
  C   C35       1.0  0.6791375576717655  0.9660976497368596  0.5182476703863299  1.0000
  C   C36       1.0  0.33321694442814487  0.01902784961627192  0.5846015665115656  1.0000
  C   C37       1.0  0.16834858806098651  0.39221224711300107  0.6211741289047763  1.0000
  C   C38       1.0  0.805091755227295  0.6635125763334815  0.4207132881435596  1.0000
  C   C39       1.0  0.2560865307137803  0.40816756656922604  0.5907491785084318  1.0000
  C   C40       1.0  0.7278867419811093  0.6265197169286908  0.4302965616113282  1.0000
  C   C41       1.0  0.2011933119007451  0.49500388176846144  0.5057466064547851  1.0000
  C   C42       1.0  0.7949194327796648  0.5141963843511164  0.4924544647595323  1.0000
  C   C43       1.0  0.1068472408016703  0.49192112940308164  0.536542213589385  1.0000
  C   C44       1.0  0.8716936974207385  0.5512669409432789  0.4939761567478768  1.0000
  C   C45       1.0  0.08970090323045099  0.43388954143639324  0.5957451591796994  1.0000
  C   C46       1.0  0.8801429041493236  0.6276297668261038  0.45183949614112595  1.0000
  C   C47       1.0  0.030020208272063094  0.539929404853936  0.509747979354337  1.0000
  C   C48       1.0  0.9431771910109961  0.5138576967321385  0.530420311327674  1.0000
  C   C49       1.0  0.9274050879466672  0.45885184198129986  0.5907956193837263  1.0000
  C   C50       1.0  0.03492609661110174  0.6175606741651765  0.46970806234994444  1.0000
  C   C51       1.0  0.9961820843550412  0.42341040057397816  0.6242689247012193  1.0000
  C   C52       1.0  0.9615152343129696  0.6623139242300979  0.4448379674458493  1.0000
  N   N1        1.0  0.4172826506354923  0.5452157220265265  0.9736113488413236  1.0000
  N   N2        1.0  0.5794585646140433  0.4672796471654621  0.007998946545463114  1.0000
  N   N3        1.0  0.4220340519802975  0.5467202504006609  0.040516629157501385  1.0000
  N   N4        1.0  0.5745283050711762  0.46542566590617446  0.9412965975954816  1.0000
  N   N5        1.0  0.2725293521769174  0.4583422945376724  0.5321167422664388  1.0000
  N   N6        1.0  0.7249386057672639  0.5495991411757118  0.46406050091261597  1.0000
  N   N7        1.0  0.7945507491778019  0.42289366862134875  0.5162944038482634  1.0000
  N   N8        1.0  0.22909130640900338  0.5328412539091616  0.433094359288276  1.0000
  N   N9        1.0  0.16322756882838263  0.3289579060123273  0.6807516847923478  1.0000
  N   N10       1.0  0.8086017941281443  0.7394117238290576  0.3732043115889494  1.0000
  N   N11       1.0  0.3149531429428622  0.5729277300190248  0.7409878241684137  1.0000
  N   N12       1.0  0.6682894099017104  0.39681569240622855  0.24247131774180983  1.0000
  N   N13       1.0  0.767883745082827  0.9226938540859068  0.5344062660732972  1.0000
  N   N14       1.0  0.24149649969072579  0.06088380788762749  0.6296546350235415  1.0000
  O   O1        1.0  0.6379642080107288  0.3749501158005798  0.47156231726967934  1.0000
  O   O2        1.0  0.37421318075875126  0.61774946734306  0.5198304247343514  1.0000
  O   O3        1.0  0.48539513368556425  0.36651029980053107  0.49823393722937925  1.0000
  O   O4        1.0  0.5257626503555314  0.6274892683066113  0.48088210219361827  1.0000
  O   O5        1.0  0.5570379232799354  0.5039744219691258  0.5855782807528058  1.0000
  O   O6        1.0  0.4354177476081632  0.49345053986036186  0.39782885253255523  1.0000
  O   O7        1.0  0.4089195692338521  0.4801105509153132  0.6144459168478205  1.0000
  O   O8        1.0  0.5884691443989923  0.5038523234277292  0.3685011123214394  1.0000
  O   O9        1.0  0.8446937582635672  0.3680624190298758  0.47263505702665015  1.0000
  O   O10       1.0  0.7460270569343451  0.41012542714621975  0.5756749240544392  1.0000
  O   O11       1.0  0.22902958257891734  0.4864923805974471  0.38380018943010424  1.0000
  O   O12       1.0  0.2497129827430129  0.6044976822092921  0.42851976078269144  1.0000
  O   O13       1.0  0.2321581969401123  0.31007331826629075  0.7061568737944552  1.0000
  O   O14       1.0  0.09193659844619621  0.29859693430768897  0.700506070293862  1.0000
  O   O15       1.0  0.7342803031885979  0.7906410172172046  0.3742567897531968  1.0000
  O   O16       1.0  0.8854084660917182  0.745405460942024  0.33404001974415093  1.0000
  O   O17       1.0  0.24426500160041797  0.5437535418944821  0.7681665667354948  1.0000
  O   O18       1.0  0.3186293683444532  0.6359351433543737  0.7007510417203802  1.0000
  O   O19       1.0  0.7463359584440639  0.4067663582323391  0.20807975289520186  1.0000
  O   O20       1.0  0.6524251632780178  0.3425042834138382  0.289665949977767  1.0000
  O   O21       1.0  0.8099842937823851  0.854155033708878  0.5021324210739663  1.0000
  O   O22       1.0  0.791592774772468  0.9548834722603915  0.5819895684755918  1.0000
  O   O23       1.0  0.22158858746022503  0.03651520119772302  0.6920831552891327  1.0000
  O   O24       1.0  0.1943385480701778  0.12012285496899011  0.6019970544244513  1.0000
  O   O25       1.0  0.562818432365056  0.7783516159669617  0.4636871775180108  1.0000
  O   O26       1.0  0.44710138590303944  0.2168799938491404  0.48669564755243727  1.0000
  O   O27       1.0  0.8154851492855003  0.07429299100607523  0.47798068844289776  1.0000
  O   O28       1.0  0.19900968109561035  0.9088293011871331  0.6092935317438799  1.0000
