data_image0
_chemical_formula_structural       Ba2H30C16N2O24
_chemical_formula_sum              "Ba2 H30 C16 N2 O24"
_cell_length_a       7.009867129539684
_cell_length_b       11.047170229362079
_cell_length_c       11.110257571195296
_cell_angle_alpha    116.51525693539011
_cell_angle_beta     103.68111078581417
_cell_angle_gamma    99.2397491239666

_space_group_name_H-M_alt    "P 1"
_space_group_IT_number       1

loop_
  _space_group_symop_operation_xyz
  'x, y, z'

loop_
  _atom_site_type_symbol
  _atom_site_label
  _atom_site_symmetry_multiplicity
  _atom_site_fract_x
  _atom_site_fract_y
  _atom_site_fract_z
  _atom_site_occupancy
  Ba  Ba1       1.0  0.829992261668444  0.5563945585089198  0.3271549036761882  1.0000
  Ba  Ba2       1.0  0.003047394809612999  0.22937959872628258  0.6728967045420332  1.0000
  H   H1        1.0  0.18861560212891254  0.4589275122728226  0.5430671322269304  1.0000
  H   H2        1.0  0.1450383279437588  0.9158420783488878  0.4570583965069019  1.0000
  H   H3        1.0  0.24183337786231368  0.6136609257500325  0.5715415012093389  1.0000
  H   H4        1.0  0.17029970270382216  0.04216491696850971  0.42874310200545546  1.0000
  H   H5        1.0  0.9267253361205832  0.3020742328479002  0.15790597451940155  1.0000
  H   H6        1.0  0.2691667900434638  0.1442223755820322  0.8421671732181009  1.0000
  H   H7        1.0  0.9082723529393559  0.3359085192092407  0.030372362226955805  1.0000
  H   H8        1.0  0.378095311915871  0.30554437379737454  0.9698892637865838  1.0000
  H   H9        1.0  0.26721259108335  0.3900939942774926  0.1461153656582468  1.0000
  H   H10       1.0  0.6214297914274595  0.24428383924244196  0.8539442311939849  1.0000
  H   H11       1.0  0.3636638711640714  0.5067110248659646  0.11949678348220522  1.0000
  H   H12       1.0  0.7445690328053446  0.3874386462729689  0.8804077223757787  1.0000
  H   H13       1.0  0.5370673368783657  0.7387531650913816  0.27540053231888356  1.0000
  H   H14       1.0  0.7620157563191013  0.46373998371281283  0.7246729732011657  1.0000
  H   H15       1.0  0.6581977295621187  0.864126292317863  0.43281212789172224  1.0000
  H   H16       1.0  0.7252382625880642  0.43151381604954503  0.5672028627807889  1.0000
  H   H17       1.0  0.32486348440619395  0.7517467923132558  0.4311910041309305  1.0000
  H   H18       1.0  0.39360349120677535  0.3202999670571387  0.5686596102418804  1.0000
  H   H19       1.0  0.21140082826334353  0.7086005764952644  0.27208964943319797  1.0000
  H   H20       1.0  0.4396241967987962  0.4364598569615409  0.7276847061650074  1.0000
  H   H21       1.0  0.4415814934146525  0.45377910112350156  0.425188028895704  1.0000
  H   H22       1.0  0.5171277583765743  0.0282769815420778  0.5749503761529623  1.0000
  H   H23       1.0  0.5819053248295205  0.6082282002731317  0.5399173216376097  1.0000
  H   H24       1.0  0.5415843338963099  0.06792316830345868  0.4599894846920165  1.0000
  H   H25       1.0  0.5935553635522836  0.664697800521786  0.7700390243598462  1.0000
  H   H26       1.0  0.32294562108914004  0.8942550582628005  0.2299948440589362  1.0000
  H   H27       1.0  0.6308588236332965  0.1081257104507145  0.9983348721244597  1.0000
  H   H28       1.0  0.13260681308705813  0.10956255145444524  0.0016859248483883154  1.0000
  H   H29       1.0  0.8147289205434233  0.8975481591370238  0.23132776084489134  1.0000
  H   H30       1.0  0.08403855228994683  0.6662019010338656  0.7686255873107727  1.0000
  C   C1        1.0  0.706110112121614  0.7669868433328944  0.0005772916914140155  1.0000
  C   C2        1.0  0.20553378156604654  0.7662043850225331  0.9993935810678137  1.0000
  C   C3        1.0  0.6318451600417774  0.7630689625808955  0.8704009903656882  1.0000
  C   C4        1.0  0.26109008144515417  0.892325245432183  0.12962201784476  1.0000
  C   C5        1.0  0.6071912074150063  0.8865586595099018  0.8722561657002571  1.0000
  C   C6        1.0  0.23461293548000128  0.013921747951684401  0.1277423597635021  1.0000
  C   C7        1.0  0.6548951911775801  0.013969866459632404  0.9998898980948495  1.0000
  C   C8        1.0  0.15506082936259702  0.013818457759740001  9.773883142120389e-05  1.0000
  C   C9        1.0  0.7326705311675711  0.01869144751862  0.13014269155547  1.0000
  C   C10       1.0  0.10297166827024996  0.8884093597121777  0.8698086128814139  1.0000
  C   C11       1.0  0.7567311323304365  0.8947611909249317  0.12960421408074999  1.0000
  C   C12       1.0  0.12751942674616862  0.7650369638290968  0.8703606859607974  1.0000
  C   C13       1.0  0.7329675856341493  0.6335855259229533  0.0004650861292318975  1.0000
  C   C14       1.0  0.23255512562879943  0.6329005224608082  0.9993554740830745  1.0000
  C   C15       1.0  0.7933789503649964  0.15912837641677413  0.270709047227129  1.0000
  C   C16       1.0  0.023557667215151123  0.8883635135952093  0.7292241228059526  1.0000
  N   N1        1.0  0.5293421317625402  0.8836179514575659  0.7375483061120817  1.0000
  N   N2        1.0  0.2913225120466265  0.1456546350318249  0.2624786599892701  1.0000
  O   O1        1.0  0.8039346391642255  0.6391967940900899  0.1179202134038634  1.0000
  O   O2        1.0  0.18730073653477314  0.5213532835747329  0.8818764408529275  1.0000
  O   O3        1.0  0.15579003494941202  0.5168915760913252  0.49889293744341506  1.0000
  O   O4        1.0  0.1564886118154831  0.0179696207080866  0.5012341871024687  1.0000
  O   O5        1.0  0.9953929824296422  0.3665924379316793  0.13125645226509872  1.0000
  O   O6        1.0  0.36465459246327475  0.23548611428343946  0.8691019306228752  1.0000
  O   O7        1.0  0.3954182533301278  0.4267341947013962  0.13324573297516204  1.0000
  O   O8        1.0  0.7625434278515258  0.293737489762485  0.86675936318656  1.0000
  O   O9        1.0  0.6396602536070048  0.7635446269947154  0.3670493229888053  1.0000
  O   O10       1.0  0.7728316656027515  0.396860258950639  0.6330836899568055  1.0000
  O   O11       1.0  0.19391213241474506  0.742885336394494  0.366833685515715  1.0000
  O   O12       1.0  0.3271222894785311  0.375790249610958  0.6329622355257029  1.0000
  O   O13       1.0  0.586284598023603  0.5127518854770656  0.4780705305392772  1.0000
  O   O14       1.0  0.6084388309104013  0.03446976727383339  0.5218706020435064  1.0000
  O   O15       1.0  0.6808109133712108  0.522010373658972  0.8758568523688408  1.0000
  O   O16       1.0  0.30410338875778115  0.6456873678423989  0.12394157231855021  1.0000
  O   O17       1.0  0.8654366969079491  0.1576641495455888  0.38528118512543585  1.0000
  O   O18       1.0  0.9817745199450555  0.772452071996021  0.6147012061477283  1.0000
  O   O19       1.0  0.7665827506997048  0.2648847184902792  0.2582117482320854  1.0000
  O   O20       1.0  0.0089717770252307  0.006533696154718902  0.7416761098072158  1.0000
  O   O21       1.0  0.5019561017573225  0.9921861436421511  0.7396931713526486  1.0000
  O   O22       1.0  0.2617596370889217  0.25198801002283483  0.2601474024712828  1.0000
  O   O23       1.0  0.4895654615713526  0.7697978687928  0.6222304560001959  1.0000
  O   O24       1.0  0.3668175870037089  0.1472681141889467  0.37791396622093737  1.0000
