data_image0
_chemical_formula_structural       Cd2H18C24Br2N4O8
_chemical_formula_sum              "Cd2 H18 C24 Br2 N4 O8"
_cell_length_a       7.897464749577283
_cell_length_b       8.048278062775244
_cell_length_c       10.709362745184892
_cell_angle_alpha    71.10753851707423
_cell_angle_beta     80.38021452886048
_cell_angle_gamma    85.13428108736657

_space_group_name_H-M_alt    "P 1"
_space_group_IT_number       1

loop_
  _space_group_symop_operation_xyz
  'x, y, z'

loop_
  _atom_site_type_symbol
  _atom_site_label
  _atom_site_symmetry_multiplicity
  _atom_site_fract_x
  _atom_site_fract_y
  _atom_site_fract_z
  _atom_site_occupancy
  Cd  Cd1       1.0  0.7339785851439588  0.9541464504795413  0.9049618922985443  1.0000
  Cd  Cd2       1.0  0.26601372544002544  0.0458588040941805  0.09503196995226658  1.0000
  H   H1        1.0  0.6013818830445319  0.4919201032816858  0.753708290140359  1.0000
  H   H2        1.0  0.39862987180028864  0.5080754765145841  0.24629476678703813  1.0000
  H   H3        1.0  0.7970906201316057  0.5919374576965095  0.1568172679227544  1.0000
  H   H4        1.0  0.20289788821627036  0.40806513970743913  0.8431823545585356  1.0000
  H   H5        1.0  0.6058717927551814  0.3222439488003204  0.5985639155733579  1.0000
  H   H6        1.0  0.39413608497554975  0.6777530045940877  0.4014392998250214  1.0000
  H   H7        1.0  0.9343844249884656  0.869149551990567  0.4565360271970961  1.0000
  H   H8        1.0  0.06561826018466382  0.13085021630686808  0.5434615694753545  1.0000
  H   H9        1.0  0.736688695548203  0.46698905577236616  0.9790926966413308  1.0000
  H   H10       1.0  0.26330371136440794  0.5330108722873916  0.020906133612065517  1.0000
  H   H11       1.0  0.6295271891323467  0.2639739590116719  0.040744482897551386  1.0000
  H   H12       1.0  0.3704678355097073  0.7360232658505268  0.9592565229619082  1.0000
  H   H13       1.0  0.9456209652308801  0.6972094865244072  0.3011508185352198  1.0000
  H   H14       1.0  0.05437527457878131  0.30279167737052853  0.6988481828822298  1.0000
  H   H15       1.0  0.7055529141296903  0.04721002136844279  0.2768925916837188  1.0000
  H   H16       1.0  0.2944511026745574  0.9527870816429456  0.7231063969136357  1.0000
  H   H17       1.0  0.7450194526870746  0.1357641597935668  0.5014548293293969  1.0000
  H   H18       1.0  0.25498841583335263  0.8642329191893836  0.4985418209175449  1.0000
  C   C1        1.0  0.67559841537544  0.5370540406279574  0.654439826235432  1.0000
  C   C2        1.0  0.32441207613745593  0.4629402633925536  0.3455627511326753  1.0000
  C   C3        1.0  0.7524367965584704  0.7946737055395088  0.7119383544064416  1.0000
  C   C4        1.0  0.24756977230753563  0.20532459945367515  0.2880637731889095  1.0000
  C   C5        1.0  0.9088250885667863  0.2417984671005442  0.9885650557888891  1.0000
  C   C6        1.0  0.09116989054246723  0.7582013851361893  0.011435341826832332  1.0000
  C   C7        1.0  0.777014518835401  0.4575877137223969  0.22055345212959304  1.0000
  C   C8        1.0  0.22297915272488922  0.5424134721719016  0.7794467955618739  1.0000
  C   C9        1.0  0.679666397685658  0.44068056106503656  0.5676157345508556  1.0000
  C   C10       1.0  0.320342764827636  0.5593163723590848  0.43238732664990914  1.0000
  C   C11       1.0  0.8611319651235548  0.7499490926384949  0.48733509718530854  1.0000
  C   C12       1.0  0.13887331501261713  0.250049286148645  0.5126643709713291  1.0000
  C   C13       1.0  0.7450081783787328  0.32900701267227817  0.042731025991216136  1.0000
  C   C14       1.0  0.2549842311654019  0.6709928795050429  0.9572696800197419  1.0000
  C   C15       1.0  0.764407212347365  0.6934904647961204  0.6151818652718359  1.0000
  C   C16       1.0  0.23559815753864655  0.30650267718316826  0.38481788149351087  1.0000
  C   C17       1.0  0.8676070027583692  0.6530705443286846  0.3993788530888621  1.0000
  C   C18       1.0  0.13239315969818927  0.34692661859357793  0.6006205981013436  1.0000
  C   C19       1.0  0.7754086292196477  0.4991267701939607  0.4404691762199062  1.0000
  C   C20       1.0  0.22459539416339425  0.5008702431113221  0.5595345017713241  1.0000
  C   C21       1.0  0.7280453502219973  0.1720220308374962  0.2885632279575886  1.0000
  C   C22       1.0  0.2719573362668798  0.8279777195187137  0.7114353065936426  1.0000
  C   C23       1.0  0.7433395982930976  0.21670811927354797  0.3983275584563015  1.0000
  C   C24       1.0  0.25666184894601685  0.7832890236784208  0.6016717385362895  1.0000
  Br  Br1       1.0  0.5669561326029678  0.8608733539288309  0.16187147787896808  1.0000
  Br  Br2       1.0  0.4330372806323767  0.13914239017274346  0.8381197971992548  1.0000
  N   N1        1.0  0.7477529652599699  0.3233780008550511  0.17979952706679098  1.0000
  N   N2        1.0  0.2522394683663195  0.6766205596937737  0.8202024209448097  1.0000
  N   N3        1.0  0.7727888052936296  0.39618622979156015  0.35432640083895695  1.0000
  N   N4        1.0  0.22721264326124674  0.6038108952191904  0.645673834032415  1.0000
  O   O1        1.0  0.8999099519998879  0.17367672987897717  0.8981266038894231  1.0000
  O   O2        1.0  0.10008748415825151  0.826329632912298  0.10187290260047623  1.0000
  O   O3        1.0  0.6676369455272424  0.7278797710632927  0.8284331407097267  1.0000
  O   O4        1.0  0.3323670485106049  0.27211864563536636  0.17156554376575164  1.0000
  O   O5        1.0  0.824528851069843  0.9422920815155106  0.6770197014563022  1.0000
  O   O6        1.0  0.17547514691528224  0.0577062813594793  0.3229817966555116  1.0000
  O   O7        1.0  0.0437098075910001  0.2533330910339799  0.0337824910765647  1.0000
  O   O8        1.0  0.9562812970356804  0.7466680989184552  0.9662199407676937  1.0000
