data_image0
_chemical_formula_structural       Gd2H20C18N6O16
_chemical_formula_sum              "Gd2 H20 C18 N6 O16"
_cell_length_a       8.244312550533953
_cell_length_b       8.316688351243467
_cell_length_c       10.391538679051177
_cell_angle_alpha    73.37405614621841
_cell_angle_beta     70.94939695622512
_cell_angle_gamma    73.14163025629017

_space_group_name_H-M_alt    "P 1"
_space_group_IT_number       1

loop_
  _space_group_symop_operation_xyz
  'x, y, z'

loop_
  _atom_site_type_symbol
  _atom_site_label
  _atom_site_symmetry_multiplicity
  _atom_site_fract_x
  _atom_site_fract_y
  _atom_site_fract_z
  _atom_site_occupancy
  Gd  Gd1       1.0  0.25074865437913024  0.4762000456573361  0.5146273001069871  1.0000
  Gd  Gd2       1.0  0.7492495815261648  0.523797532650832  0.4853737429469333  1.0000
  H   H1        1.0  0.328398273848265  0.15796559474622276  0.11059653200211979  1.0000
  H   H2        1.0  0.6716093920503068  0.8420352440888051  0.8893996676042235  1.0000
  H   H3        1.0  0.4076368794650875  0.024868116382251105  0.25586212728837404  1.0000
  H   H4        1.0  0.5923580840401994  0.9751221767343027  0.7441467342203012  1.0000
  H   H5        1.0  0.03941259771593764  0.24294896929598758  0.2550381921367517  1.0000
  H   H6        1.0  0.9605933264007546  0.7570583747884074  0.7449564089825245  1.0000
  H   H7        1.0  0.06441274144597742  0.052320088594086704  0.38483020796203965  1.0000
  H   H8        1.0  0.9355786565436617  0.9476839662356938  0.6151685933369819  1.0000
  H   H9        1.0  0.15377395768970106  0.8813474154535966  0.8565643495974555  1.0000
  H   H10       1.0  0.8462137193372425  0.1186414476683595  0.1434446510766635  1.0000
  H   H11       1.0  0.08471667641470054  0.684737314166142  0.9459945048623553  1.0000
  H   H12       1.0  0.9152906462878719  0.31525465230547683  0.05401289982428627  1.0000
  H   H13       1.0  0.4636953482404776  0.7199447200245217  0.7801337946221453  1.0000
  H   H14       1.0  0.5362987120712501  0.2800684279555981  0.21986380424770863  1.0000
  H   H15       1.0  0.4100104960163548  0.5335941090138688  0.9034876868487771  1.0000
  H   H16       1.0  0.5900001899266056  0.4664144360685328  0.0965084143955792  1.0000
  H   H17       1.0  0.32945941562275755  0.11161772711245281  0.6356502384864626  1.0000
  H   H18       1.0  0.6705219528088406  0.8883806618098617  0.36435202195979605  1.0000
  H   H19       1.0  0.2631954000637222  0.15515192426869356  0.7863622750378453  1.0000
  H   H20       1.0  0.7367896687346446  0.8448517190441507  0.21363915379414064  1.0000
  C   C1        1.0  0.295777808360981  0.0681215019276067  0.2102724907177276  1.0000
  C   C2        1.0  0.7042208761070015  0.9318839828967711  0.7897261714158573  1.0000
  C   C3        1.0  0.13249210575404655  0.15133748203750488  0.3103042178127637  1.0000
  C   C4        1.0  0.8675069364362429  0.8486666158839142  0.6896955483880021  1.0000
  C   C5        1.0  0.17078642778457012  0.24582106589537034  0.39659522051078266  1.0000
  C   C6        1.0  0.8292127419929757  0.7541777455231581  0.603406349986237  1.0000
  C   C7        1.0  0.19295591388888061  0.750987422061506  0.9153834947199044  1.0000
  C   C8        1.0  0.8070472465521802  0.24900574879271892  0.08462379414199717  1.0000
  C   C9        1.0  0.35907180203820843  0.6482156292753132  0.8312845374934879  1.0000
  C   C10       1.0  0.6409290727743553  0.3517912568159076  0.1687133422068284  1.0000
  C   C11       1.0  0.3263368964045625  0.5797541171831283  0.7251034764809104  1.0000
  C   C12       1.0  0.673662849522934  0.42024731424872647  0.274897517392013  1.0000
  C   C13       1.0  0.2457054139360082  0.9180323233620982  0.054817376858622445  1.0000
  C   C14       1.0  0.7542938511254533  0.08195137155260566  0.9451943852332576  1.0000
  C   C15       1.0  0.2234509524155328  0.614111473771139  0.15068965926149497  1.0000
  C   C16       1.0  0.7765663061858064  0.385887017138792  0.8493064425801649  1.0000
  C   C17       1.0  0.26207402669177776  0.7712383899031322  0.28984576859157596  1.0000
  C   C18       1.0  0.7379265271453476  0.22875530316898815  0.7101562963253157  1.0000
  N   N1        1.0  0.23935192527392246  0.6263277593520371  0.2729940823404319  1.0000
  N   N2        1.0  0.7606631781050693  0.3736690083419845  0.7270057433211575  1.0000
  N   N3        1.0  0.21906682355571414  0.7665153272243047  0.04400641948448229  1.0000
  N   N4        1.0  0.7809386871205107  0.23348378839481393  0.9559935039417766  1.0000
  N   N5        1.0  0.2682972138044306  0.9160230323584246  0.182300280193978  1.0000
  N   N6        1.0  0.7317019559731078  0.08397577906011121  0.8177012903030416  1.0000
  O   O1        1.0  0.3234449090845218  0.22099874460136698  0.4119396469954921  1.0000
  O   O2        1.0  0.676560428799455  0.7789918288130766  0.5880568981827707  1.0000
  O   O3        1.0  0.044536371704204235  0.3539242683286687  0.4596616459245552  1.0000
  O   O4        1.0  0.9554604333118704  0.6460788575913341  0.5403349808606137  1.0000
  O   O5        1.0  0.4525035888335864  0.5440141641844393  0.6180802019871408  1.0000
  O   O6        1.0  0.5474927102770052  0.45598569782410436  0.3819228841954256  1.0000
  O   O7        1.0  0.17739835640569615  0.5525595420606566  0.7395105640048526  1.0000
  O   O8        1.0  0.8226020581367663  0.4474395448307079  0.2604887161535814  1.0000
  O   O9        1.0  0.24954764113179811  0.04863013974456005  0.9595108626553924  1.0000
  O   O10       1.0  0.750448332559813  0.9513809391678906  0.04048273216137228  1.0000
  O   O11       1.0  0.2140647200543739  0.4804557110149119  0.12689115443009769  1.0000
  O   O12       1.0  0.7859593191198256  0.51954094597815  0.8731112676435231  1.0000
  O   O13       1.0  0.2791316551970909  0.7746209181205188  0.4057250661572668  1.0000
  O   O14       1.0  0.7208653577334656  0.22539042805509266  0.5942778802625669  1.0000
  O   O15       1.0  0.27348923174326245  0.20454338663283522  0.6858553040913334  1.0000
  O   O16       1.0  0.7264896003288612  0.7954548806092488  0.31414761518322376  1.0000
