data_image0
_chemical_formula_structural       Cd2H56C76N4O10
_chemical_formula_sum              "Cd2 H56 C76 N4 O10"
_cell_length_a       10.209091281262245
_cell_length_b       10.068074030200094
_cell_length_c       15.688
_cell_angle_alpha    74.40227866895451
_cell_angle_beta     75.7879611818173
_cell_angle_gamma    75.39908641677026

_space_group_name_H-M_alt    "P 1"
_space_group_IT_number       1

loop_
  _space_group_symop_operation_xyz
  'x, y, z'

loop_
  _atom_site_type_symbol
  _atom_site_label
  _atom_site_symmetry_multiplicity
  _atom_site_fract_x
  _atom_site_fract_y
  _atom_site_fract_z
  _atom_site_occupancy
  Cd  Cd1       1.0  0.20061145281726311  0.3049284446837461  0.47230245033781426  1.0000
  Cd  Cd2       1.0  0.7993879174216333  0.6950708394209997  0.5276975188408741  1.0000
  H   H1        1.0  0.18846692213310942  0.0141590043835933  0.4741017284272147  1.0000
  H   H2        1.0  0.8115300162388125  0.9858423843669185  0.525898266109337  1.0000
  H   H3        1.0  0.35133319774880084  0.9927698259021936  0.46705995696341057  1.0000
  H   H4        1.0  0.6486647510681252  0.007231562848311099  0.5329398761360693  1.0000
  H   H5        1.0  0.13100453700624123  0.564662778534192  0.3109723990872482  1.0000
  H   H6        1.0  0.8689992689922407  0.4353396625391994  0.6890288663511797  1.0000
  H   H7        1.0  0.3513864474497694  0.16166310281895588  0.3053829639521695  1.0000
  H   H8        1.0  0.6486165535921915  0.838338285931556  0.6946141496722902  1.0000
  H   H9        1.0  0.39830354839534016  0.5968386029884911  0.6931508758642693  1.0000
  H   H10       1.0  0.6016962328205225  0.40315857647048847  0.3068474785410515  1.0000
  H   H11       1.0  0.5441615837686912  0.3956239446320211  0.6316667402984848  1.0000
  H   H12       1.0  0.4558367930226055  0.6043700778583058  0.36833429554505404  1.0000
  H   H13       1.0  0.4353853024851375  0.2237964550913247  0.1407621780853034  1.0000
  H   H14       1.0  0.5646136567767926  0.7762049336591872  0.8592349438575724  1.0000
  H   H15       1.0  0.36730986484694483  0.595618960767716  0.8538128901293477  1.0000
  H   H16       1.0  0.6326905158369628  0.4043803233370297  0.1461862801823842  1.0000
  H   H17       1.0  0.2810079620182719  0.4115740025615722  0.6158190461753321  1.0000
  H   H18       1.0  0.718989592819092  0.5884242292202869  0.3841794823459921  1.0000
  H   H19       1.0  0.014527657984622497  0.1424792566715851  0.6535638017236849  1.0000
  H   H20       1.0  0.9854692973847038  0.857516870464508  0.3464377354705235  1.0000
  H   H21       1.0  0.9530007892059873  0.1277467363170501  0.8176032840277119  1.0000
  H   H22       1.0  0.04699676563138413  0.872251495464809  0.18239779421314495  1.0000
  H   H23       1.0  0.20111122129311812  0.6446772012254343  0.1445039447119925  1.0000
  H   H24       1.0  0.7988895533703441  0.3553252398479572  0.8554958927480031  1.0000
  H   H25       1.0  0.5902442267908654  0.1260998510059892  0.9869727184106126  1.0000
  H   H26       1.0  0.4097581747830504  0.8738994330987495  0.013028678746493882  1.0000
  H   H27       1.0  0.3067449650812009  0.562412912211478  0.9947202916563  1.0000
  H   H28       1.0  0.6932550046257404  0.4375884765390339  0.005277943709266692  1.0000
  H   H29       1.0  0.6791111422050307  0.152969863486895  0.6569981928418613  1.0000
  H   H30       1.0  0.3208896494558431  0.8470273159720776  0.3430031872757909  1.0000
  H   H31       1.0  0.5325198407771694  0.3006623277182213  0.02208309585243745  1.0000
  H   H32       1.0  0.467480334418255  0.6993380087094039  0.9779178379908019  1.0000
  H   H33       1.0  0.2267719824719023  0.4136197182450871  0.7789521099156858  1.0000
  H   H34       1.0  0.773226582810473  0.5863785135367721  0.2210475320283294  1.0000
  H   H35       1.0  0.5569519636109418  0.9650326993661408  0.31546036330264127  1.0000
  H   H36       1.0  0.44304476927249686  0.0349697417072505  0.68453757018613  1.0000
  H   H37       1.0  0.8657600026089367  0.2407178070413849  0.3253186143027024  1.0000
  H   H38       1.0  0.1342409945404128  0.7592783200947082  0.6746835520029748  1.0000
  H   H39       1.0  0.9204982396354069  0.13712082855406746  0.9595575847451911  1.0000
  H   H40       1.0  0.07950234653697662  0.8628774032277917  0.04044428404420589  1.0000
  H   H41       1.0  0.10845427390500359  0.3488271460487269  0.922707083927705  1.0000
  H   H42       1.0  0.8915461067788968  0.6511721380560188  0.07729144895413506  1.0000
  H   H43       1.0  0.7760005768075119  0.0593573245084187  0.04194287948099169  1.0000
  H   H44       1.0  0.22399999236746734  0.9406461688878522  0.958056171790986  1.0000
  H   H45       1.0  0.7354116221997342  0.926523995805148  0.9249178036458119  1.0000
  H   H46       1.0  0.2645889639726562  0.0734742359767111  0.07508342771370019  1.0000
  H   H47       1.0  0.6001400171375977  0.9478240632691594  0.15406486004668812  1.0000
  H   H48       1.0  0.39985529432387074  0.05218048244999809  0.8459310250732345  1.0000
  H   H49       1.0  0.7867607226426117  0.9411302374137875  0.7590174638805891  1.0000
  H   H50       1.0  0.2132418844197872  0.05886799436807169  0.24098408203465746  1.0000
  H   H51       1.0  0.6886465685818735  0.09883942673568667  0.36117829942283924  1.0000
  H   H52       1.0  0.311352202188985  0.9011577527232858  0.6388227661390786  1.0000
  H   H53       1.0  0.09256918244531678  0.3409094686810477  0.055130541532349794  1.0000
  H   H54       1.0  0.9074344350620862  0.6590887631008115  0.94487148037571  1.0000
  H   H55       1.0  0.043553844896138096  0.3575698445562594  0.21363976053059733  1.0000
  H   H56       1.0  0.9564459363197244  0.6424273349027201  0.7863624184540184  1.0000
  C   C1        1.0  0.1960997313159609  0.4925018415147946  0.26977407676199056  1.0000
  C   C2        1.0  0.8038986114805269  0.5075027042043629  0.730223873766235  1.0000
  C   C3        1.0  0.5776237193225882  0.26543055761323586  0.7626814005053006  1.0000
  C   C4        1.0  0.4223766613613193  0.7345687264915028  0.2373190446661937  1.0000
  C   C5        1.0  0.320264050426701  0.267786708547078  0.2667590059582495  1.0000
  C   C6        1.0  0.6797377346817656  0.7322157325263134  0.7332393952049117  1.0000
  C   C7        1.0  0.4416118673294919  0.5021768980961951  0.7383466038369519  1.0000
  C   C8        1.0  0.5583879138863779  0.4978202813627846  0.2616530254281315  1.0000
  C   C9        1.0  0.5553949583174997  0.2612959810080255  0.857567170377962  1.0000
  C   C10       1.0  0.4446046174098797  0.7387022507738334  0.14243294755886643  1.0000
  C   C11       1.0  0.5212680266645364  0.3890258801589539  0.7040579429651216  1.0000
  C   C12       1.0  0.478730744106322  0.6109712993000187  0.2959418477370406  1.0000
  C   C13       1.0  0.36581063210597625  0.3042686382364366  0.17382230740292934  1.0000
  C   C14       1.0  0.6341875221994329  0.6957316981911887  0.8261751247351583  1.0000
  C   C15       1.0  0.4226927903214489  0.5000217408329064  0.8307244654602854  1.0000
  C   C16       1.0  0.5773075903624586  0.4999775432718394  0.1692734299916765  1.0000
  C   C17       1.0  0.2080708989533449  0.3510528089451412  0.6629825348402676  1.0000
  C   C18       1.0  0.7919276663290306  0.6489454228367177  0.3370151948141  1.0000
  C   C19       1.0  0.06074265287719532  0.19976034813289797  0.6844025272521677  1.0000
  C   C20       1.0  0.9392540970036483  0.8002368313260816  0.3155988611839006  1.0000
  C   C21       1.0  0.08509305517411293  0.2709847177868951  0.8141197768417641  1.0000
  C   C22       1.0  0.914905099131296  0.7290156186407302  0.18588084244574082  1.0000
  C   C23       1.0  0.7504001014614943  0.3191716348979341  0.4889041191100887  1.0000
  C   C24       1.0  0.24960087869045106  0.6808297538525777  0.5110952296781691  1.0000
  C   C25       1.0  0.8356650741291176  0.14952034907817338  0.13461767436245958  1.0000
  C   C26       1.0  0.16433652248827715  0.8504778827036857  0.8653840329898586  1.0000
  C   C27       1.0  0.6421591423425781  0.2918554375148616  0.48548483097408013  1.0000
  C   C28       1.0  0.35784041638739694  0.7081480558814162  0.5145182063142713  1.0000
  C   C29       1.0  0.8088042542826201  0.1597668169847495  0.22743618275405447  1.0000
  C   C30       1.0  0.1911997742017563  0.8402293101513434  0.7725642243806305  1.0000
  C   C31       1.0  0.026215955318917808  0.1928771041586828  0.7765298238486551  1.0000
  C   C32       1.0  0.9737803835849591  0.807122179946056  0.22347126707114034  1.0000
  C   C33       1.0  0.23592691796274326  0.5358880616360152  0.1772277793586738  1.0000
  C   C34       1.0  0.7640748671457233  0.4641143794373761  0.8227706218044872  1.0000
  C   C35       1.0  0.4827717266409478  0.3852606688854934  0.8901569825934957  1.0000
  C   C36       1.0  0.5172274381094653  0.6147396675421319  0.10984283782704546  1.0000
  C   C37       1.0  0.6120516457330538  0.1349846131026595  0.9143993371986738  1.0000
  C   C38       1.0  0.38794953990737474  0.8650157233249658  0.0856007977776088  1.0000
  C   C39       1.0  0.3896146765794128  0.5015181439717722  0.031252100049094594  1.0000
  C   C40       1.0  0.6103852931275213  0.4984832447787397  0.9687461353164722  1.0000
  C   C41       1.0  0.9408655323246721  0.216582781732015  0.07080934009006512  1.0000
  C   C42       1.0  0.05913626978120588  0.7834143977269648  0.9291931534502851  1.0000
  C   C43       1.0  0.6614585017453507  0.1475788133600204  0.7291539543567397  1.0000
  C   C44       1.0  0.3385416734500738  0.8524215230676049  0.27084697948649955  1.0000
  C   C45       1.0  0.5112137038935316  0.2518345459717679  0.4935323102809832  1.0000
  C   C46       1.0  0.4887860603249195  0.7481678951016234  0.506467688616091  1.0000
  C   C47       1.0  0.500903526328301  0.4026608277470771  0.9782790721317057  1.0000
  C   C48       1.0  0.4990974538236444  0.5973405610034277  0.021719639226667198  1.0000
  C   C49       1.0  0.8788625248297492  0.3427236733304184  0.5015321042281045  1.0000
  C   C50       1.0  0.1211378388567468  0.657280872388732  0.4984687105753807  1.0000
  C   C51       1.0  0.3275016464747083  0.4427659051207726  0.1269636117667687  1.0000
  C   C52       1.0  0.6724973127872219  0.5572354836297393  0.8730347850358697  1.0000
  C   C53       1.0  0.17751071882469918  0.3514526916404819  0.754038429832633  1.0000
  C   C54       1.0  0.8224852091022186  0.6485486971100229  0.2459598138513499  1.0000
  C   C55       1.0  0.6321441142823616  0.0185114118254717  0.2649638545900005  1.0000
  C   C56       1.0  0.36785707135806694  0.9814889246021535  0.7350343680966278  1.0000
  C   C57       1.0  0.8857019838944992  0.23482479889957378  0.2547034686515417  1.0000
  C   C58       1.0  0.1143004346768208  0.7651692235907603  0.7452988337333438  1.0000
  C   C59       1.0  0.9715767777869857  0.2068919403073792  0.9765798789295489  1.0000
  C   C60       1.0  0.02842401387388094  0.7931052391516002  0.02342277604787312  1.0000
  C   C61       1.0  0.05616431957970042  0.27714606826373966  0.9085332633120231  1.0000
  C   C62       1.0  0.9438352561476792  0.7228521635181195  0.09146749205468312  1.0000
  C   C63       1.0  0.756794178150848  0.0720756988659161  0.11088472222759553  1.0000
  C   C64       1.0  0.24320356517759487  0.9279267422074753  0.8891149621137515  1.0000
  C   C65       1.0  0.6927297820248199  0.0220798387199181  0.8797557464671827  1.0000
  C   C66       1.0  0.3072724140606197  0.9779204977077072  0.12024358964213631  1.0000
  C   C67       1.0  0.6577098231872682  0.0084911933386209  0.17407954050240457  1.0000
  C   C68       1.0  0.3422858992511664  0.9915112477347634  0.8259185544234385  1.0000
  C   C69       1.0  0.7203768876925168  0.0295502788625512  0.7859012512980286  1.0000
  C   C70       1.0  0.27962530839291583  0.970450057565074  0.21409808481129744  1.0000
  C   C71       1.0  0.7065145976747117  0.0927317447258531  0.2907517944403822  1.0000
  C   C72       1.0  0.2934851665437463  0.9072706963475382  0.7092469295969296  1.0000
  C   C73       1.0  0.012000672312574118  0.2901348896020294  0.10189006263902202  1.0000
  C   C74       1.0  0.9880035616602784  0.7098601852111841  0.8981130429733355  1.0000
  C   C75       1.0  0.98500645321149  0.2994605749864476  0.19252677766978374  1.0000
  C   C76       1.0  0.014993328004372607  0.700536604472532  0.80747603874471  1.0000
  N   N1        1.0  0.1501075887583525  0.2773418003198812  0.6278242177176453  1.0000
  N   N2        1.0  0.8498913875009819  0.7226543268162189  0.3721763591725349  1.0000
  N   N3        1.0  0.2394704674997357  0.3604395290567481  0.31464926992778436  1.0000
  N   N4        1.0  0.7605301016752434  0.6395639643395228  0.6853485064844307  1.0000
  O   O1        1.0  0.41503446534244404  0.3492459705559483  0.46501329276831166  1.0000
  O   O2        1.0  0.584965093387531  0.6507575228403225  0.5349884696602701  1.0000
  O   O3        1.0  0.9875169507108694  0.2604414948274608  0.47086097382965875  1.0000
  O   O4        1.0  0.012480792617573372  0.7395609462459305  0.529139985371451  1.0000
  O   O5        1.0  0.8723012500143099  0.4360752362340463  0.5430907276879893  1.0000
  O   O6        1.0  0.12770074058263964  0.5639261525164585  0.4569122842424846  1.0000
  O   O7        1.0  0.5047281390377591  0.12456872121200038  0.5297038709555579  1.0000
  O   O8        1.0  0.49527284111418607  0.8754326675385045  0.4702961152625846  1.0000
  O   O9        1.0  0.2636402972748826  0.064547380964747  0.45838492183114  1.0000
  O   O10       1.0  0.7363578570305264  0.9354529554628782  0.5416144225965951  1.0000
