data_image0
_chemical_formula_structural       MnH18C14N2O4
_chemical_formula_sum              "Mn1 H18 C14 N2 O4"
_cell_length_a       6.165292890627526
_cell_length_b       6.283413358382116
_cell_length_c       10.37615629440352
_cell_angle_alpha    90.44991240156932
_cell_angle_beta     104.92210490262724
_cell_angle_gamma    110.09705436097659

_space_group_name_H-M_alt    "P 1"
_space_group_IT_number       1

loop_
  _space_group_symop_operation_xyz
  'x, y, z'

loop_
  _atom_site_type_symbol
  _atom_site_label
  _atom_site_symmetry_multiplicity
  _atom_site_fract_x
  _atom_site_fract_y
  _atom_site_fract_z
  _atom_site_occupancy
  Mn  Mn1       1.0  0.9761787654307883  0.9764410236691251  4.917812016463046e-05  1.0000
  H   H1        1.0  0.6165261212672775  0.8310488786594661  0.2708100586132431  1.0000
  H   H2        1.0  0.3849376922128442  0.1798613080751181  0.7266591888353703  1.0000
  H   H3        1.0  0.36728394052511254  0.5760735752431786  0.24504613591744123  1.0000
  H   H4        1.0  0.6451498694326645  0.4262208122459157  0.759233978638804  1.0000
  H   H5        1.0  0.4789283951453387  0.7460520103355962  0.40338829197773424  1.0000
  H   H6        1.0  0.5334337173978482  0.26479005717048665  0.5982248233753041  1.0000
  H   H7        1.0  0.2874296488155608  0.009137410786380003  0.4345698591700469  1.0000
  H   H8        1.0  0.727861746511458  0.0057409122834143995  0.5659731720516988  1.0000
  H   H9        1.0  0.09758517348358713  0.25371189119427845  0.4867078710737972  1.0000
  H   H10       1.0  0.9192612606102204  0.7634035502606197  0.5128668569761885  1.0000
  H   H11       1.0  0.8120339634903929  0.20788078336855162  0.37016838833842775  1.0000
  H   H12       1.0  0.195302695110506  0.7990068017106255  0.6357956029632916  1.0000
  H   H13       1.0  0.06280142771172591  0.4449249604802716  0.3631658907901071  1.0000
  H   H14       1.0  0.9391294282228846  0.5578819755644134  0.6290659693283731  1.0000
  H   H15       1.0  0.5636242835098599  0.16587965916239975  0.0892938689956608  1.0000
  H   H16       1.0  0.437199388459355  0.8394860054372444  0.9141069748937627  1.0000
  H   H17       1.0  0.09460193762866724  0.49023677513314134  0.9071956230453112  1.0000
  H   H18       1.0  0.9083561059972428  0.5083203322128044  0.08797282130774421  1.0000
  C   C1        1.0  0.44440195427035434  0.751148411062111  0.29465383417665697  1.0000
  C   C2        1.0  0.5608944107235202  0.25350072040095745  0.7061938299304985  1.0000
  C   C3        1.0  0.2771376231623466  0.8770604123697087  0.24119925197540948  1.0000
  C   C4        1.0  0.7146621364218646  0.11462543995846629  0.7590553718582669  1.0000
  C   C5        1.0  0.2132243441083901  0.0048354440710127984  0.32712214710787185  1.0000
  C   C6        1.0  0.7868922393682853  0.9951729565610565  0.6730751443537812  1.0000
  C   C7        1.0  0.05944732323448682  0.12706530715585987  0.2832736148610238  1.0000
  C   C8        1.0  0.9332045993310345  0.8656538448246921  0.7165519648308916  1.0000
  C   C9        1.0  0.006835739734079016  0.2651889761214293  0.38273493816067383  1.0000
  C   C10       1.0  0.998856752537087  0.7407113240237422  0.6166982527032517  1.0000
  C   C11       1.0  0.5326605089987595  0.31545648064899723  0.0493922836314979  1.0000
  C   C12       1.0  0.46857801948217315  0.6890739682470083  0.9516558715521201  1.0000
  C   C13       1.0  0.2762251384223973  0.4925822777531224  0.9488201700677055  1.0000
  C   C14       1.0  0.7273326055658701  0.5083484769971707  0.04980056931464821  1.0000
  N   N1        1.0  0.30314162080356527  0.3022370283311417  0.9982850027569584  1.0000
  N   N2        1.0  0.7020355175358548  0.7032695079405615  0.0015095047540754057  1.0000
  O   O1        1.0  0.19893972805606105  0.8579274098849724  0.11202784484801505  1.0000
  O   O2        1.0  0.7736523593302139  0.11534562627156932  0.8879075560267894  1.0000
  O   O3        1.0  0.9531672213946011  0.13256440528643054  0.15893261746155926  1.0000
  O   O4        1.0  0.021078044594474897  0.8421397771743245  0.8407934523811494  1.0000
