data_image0
_chemical_formula_structural       Zn4H20C4N20O4F8
_chemical_formula_sum              "Zn4 H20 C4 N20 O4 F8"
_cell_length_a       6.213808331004496
_cell_length_b       6.915975610000393
_cell_length_c       13.506430946010063
_cell_angle_alpha    89.99996452850728
_cell_angle_beta     89.99986375609775
_cell_angle_gamma    90.00001443990689

_space_group_name_H-M_alt    "P 1"
_space_group_IT_number       1

loop_
  _space_group_symop_operation_xyz
  'x, y, z'

loop_
  _atom_site_type_symbol
  _atom_site_label
  _atom_site_symmetry_multiplicity
  _atom_site_fract_x
  _atom_site_fract_y
  _atom_site_fract_z
  _atom_site_occupancy
  Zn  Zn1       1.0  0.9863304240368648  0.16101670967993448  0.7482933396474537  1.0000
  Zn  Zn2       1.0  0.4863291764133563  0.3389846140226637  0.2517064402944413  1.0000
  Zn  Zn3       1.0  0.013670939786493398  0.6610169179805467  0.7517069844052598  1.0000
  Zn  Zn4       1.0  0.5136699782865363  0.8389849364658206  0.2482931567266959  1.0000
  H   H1        1.0  0.5351562432581858  0.1433358623694971  0.7399827350557544  1.0000
  H   H2        1.0  0.03515656737610579  0.3566639161153945  0.2600175416757153  1.0000
  H   H3        1.0  0.46484511546830015  0.6433376058879717  0.7600168542402842  1.0000
  H   H4        1.0  0.9648425924204461  0.8566643478485079  0.2399827901023244  1.0000
  H   H5        1.0  0.6543860769690043  0.9504729265853131  0.7016963346874903  1.0000
  H   H6        1.0  0.15438289727531898  0.549528958828553  0.29830291111547785  1.0000
  H   H7        1.0  0.34561697965191474  0.45047396303282755  0.7983031567799799  1.0000
  H   H8        1.0  0.8456145646310275  0.049528775630754814  0.20169603771457636  1.0000
  H   H9        1.0  0.1764754174331458  0.8758053549664598  0.3990008037961701  1.0000
  H   H10       1.0  0.6764774107978083  0.6241936434539996  0.6009984176817227  1.0000
  H   H11       1.0  0.8235237478833425  0.37580384214839324  0.10099952188534192  1.0000
  H   H12       1.0  0.3235239424083288  0.12419599979731541  0.8990011777112983  1.0000
  H   H13       1.0  0.10471542469373667  0.35406831061334304  0.5477559904103444  1.0000
  H   H14       1.0  0.6047133602256877  0.14593003725119055  0.4522449501187396  1.0000
  H   H15       1.0  0.8952859948020231  0.8540684716239402  0.9522450125405655  1.0000
  H   H16       1.0  0.39528412948025243  0.6459320208770765  0.04775470839381771  1.0000
  H   H17       1.0  0.15721493874804077  0.2865117617732624  0.42375356136240333  1.0000
  H   H18       1.0  0.6572154756504884  0.2134880435736549  0.5762458405814428  1.0000
  H   H19       1.0  0.8427842008168865  0.7865094718134601  0.07624679276058541  1.0000
  H   H20       1.0  0.3427842939900785  0.7134895632060607  0.9237529859829438  1.0000
  C   C1        1.0  0.13434460528026898  0.06904273950360822  0.5286665945319342  1.0000
  C   C2        1.0  0.6343425249902878  0.43095561488232903  0.47133283259622527  1.0000
  C   C3        1.0  0.8656567320186354  0.569042871023804  0.9713337588158809  1.0000
  C   C4        1.0  0.36565504691419903  0.9309561690286544  0.0286667351316083  1.0000
  N   N1        1.0  0.09803328878147967  0.013271805152371006  0.623376321704761  1.0000
  N   N2        1.0  0.5980317109093674  0.4867279871697151  0.3766238857935136  1.0000
  N   N3        1.0  0.9019680324336149  0.513272058627891  0.876624049406928  1.0000
  N   N4        1.0  0.4019658770793412  0.9867284353436152  0.12337566416999121  1.0000
  N   N5        1.0  0.10170908991237579  0.8178350825997783  0.6232007195817175  1.0000
  N   N6        1.0  0.6017058139868183  0.6821638993657687  0.3767993246127119  1.0000
  N   N7        1.0  0.8982923191358763  0.3178347002929201  0.8767995545220657  1.0000
  N   N8        1.0  0.3982916861685268  0.1821651581075231  0.123200322358926  1.0000
  N   N9        1.0  0.13670555577560609  0.7490335660899775  0.5359008165239914  1.0000
  N   N10       1.0  0.6367034607245186  0.7509654235773982  0.4640991891349984  1.0000
  N   N11       1.0  0.8632958334309037  0.24903307103337377  0.9640994794941308  1.0000
  N   N12       1.0  0.36329566859159707  0.2509667796654186  0.0359004359214126  1.0000
  N   N13       1.0  0.15753675851588156  0.9034254157977774  0.4755524913256793  1.0000
  N   N14       1.0  0.6575359183711597  0.5965735784545249  0.5244467510072255  1.0000
  N   N15       1.0  0.8424640240869222  0.4034239992628913  0.024447085169477103  1.0000
  N   N16       1.0  0.34246381755055916  0.09657584685142243  0.9755528531841051  1.0000
  N   N17       1.0  0.14882858295025156  0.25044016075015924  0.4974155186869353  1.0000
  N   N18       1.0  0.6488295085106373  0.24955964275120832  0.5025838924909536  1.0000
  N   N19       1.0  0.8511705462119679  0.7504379612734414  0.0025848469253873  1.0000
  N   N20       1.0  0.35116866221360976  0.7495610755914516  0.99741492258498  1.0000
  O   O1        1.0  0.662995810178799  0.09534267057617998  0.7018127070562841  1.0000
  O   O2        1.0  0.16299434281534528  0.40465858196986915  0.29818742891112754  1.0000
  O   O3        1.0  0.3370071440259181  0.5953443400311189  0.7981868975254329  1.0000
  O   O4        1.0  0.8370048308222237  0.9046575855719753  0.20181288758011112  1.0000
  F   F1        1.0  0.3238396503880452  0.21924989692281124  0.794719727456993  1.0000
  F   F2        1.0  0.8238388929655469  0.2807499450927581  0.2052802314042808  1.0000
  F   F3        1.0  0.676161730233268  0.7192517528113103  0.705279097271216  1.0000
  F   F4        1.0  0.17615702630192223  0.7807501373950247  0.2947193841672657  1.0000
  F   F5        1.0  0.012697137203708998  0.9139226209621686  0.8300074227275118  1.0000
  F   F6        1.0  0.5126981141610399  0.5860777873425108  0.16999271947586442  1.0000
  F   F7        1.0  0.9873042995536493  0.4139239530220636  0.6699935611587124  1.0000
  F   F8        1.0  0.4872993582837139  0.08607737089400302  0.3300069581009168  1.0000
