data_image0
_chemical_formula_structural       Ag4H44C28S4Br4N8
_chemical_formula_sum              "Ag4 H44 C28 S4 Br4 N8"
_cell_length_a       6.65357780393711
_cell_length_b       10.784492757081598
_cell_length_c       14.200908457178656
_cell_angle_alpha    89.99972995455774
_cell_angle_beta     90.00057029889747
_cell_angle_gamma    104.43378874448449

_space_group_name_H-M_alt    "P 1"
_space_group_IT_number       1

loop_
  _space_group_symop_operation_xyz
  'x, y, z'

loop_
  _atom_site_type_symbol
  _atom_site_label
  _atom_site_symmetry_multiplicity
  _atom_site_fract_x
  _atom_site_fract_y
  _atom_site_fract_z
  _atom_site_occupancy
  Ag  Ag1       1.0  0.7429656046853526  0.9946942440475864  0.021226069401485904  1.0000
  Ag  Ag2       1.0  0.7570362222266598  0.505298457640997  0.5212168333236846  1.0000
  Ag  Ag3       1.0  0.25703058174184434  0.0052992428504766  0.9787837571556963  1.0000
  Ag  Ag4       1.0  0.2429562515582191  0.4947007662839198  0.4787746845264423  1.0000
  H   H1        1.0  0.1307063009517861  0.35289256831851645  0.7475743795469967  1.0000
  H   H2        1.0  0.3692892165285643  0.1471148774864304  0.24759251727156345  1.0000
  H   H3        1.0  0.8692915140818375  0.6471162323407  0.2524171382984619  1.0000
  H   H4        1.0  0.6306878675830845  0.8528871972089647  0.7524229426670885  1.0000
  H   H5        1.0  0.7776787863434793  0.2501478076968482  0.6438989326547785  1.0000
  H   H6        1.0  0.7222915687849893  0.24985991407502442  0.1439068453471677  1.0000
  H   H7        1.0  0.22231560620866025  0.7498562036101717  0.3560939935518306  1.0000
  H   H8        1.0  0.2776764927655293  0.7501421488436859  0.8560973476852497  1.0000
  H   H9        1.0  0.0761245370399735  0.2399819914065233  0.9800990151432176  1.0000
  H   H10       1.0  0.42387847960555547  0.2600170777466033  0.48010784869332224  1.0000
  H   H11       1.0  0.9238935628843378  0.760024921817795  0.0198932069341495  1.0000
  H   H12       1.0  0.5761117231430148  0.7399802292259636  0.5199047945639279  1.0000
  H   H13       1.0  0.9692737287660622  0.3728139769790104  0.9974089438072653  1.0000
  H   H14       1.0  0.5307366014276482  0.1271888582956961  0.4974227284799896  1.0000
  H   H15       1.0  0.030749618630942215  0.6271910291533233  0.0025839824663265  1.0000
  H   H16       1.0  0.4692581125049388  0.8728084545805859  0.5025856897061516  1.0000
  H   H17       1.0  0.2404397265710472  0.5023574269032238  0.8837973445555393  1.0000
  H   H18       1.0  0.2595788936619174  0.9976456580377758  0.38380383212661684  1.0000
  H   H19       1.0  0.7595817958761232  0.49765427566671155  0.11619769424248723  1.0000
  H   H20       1.0  0.740426761433561  0.0023564540236335994  0.616200360995009  1.0000
  H   H21       1.0  0.3501801012603565  0.3698813554443277  0.8748258840732747  1.0000
  H   H22       1.0  0.14983438712948072  0.13011805951057911  0.37483247797722913  1.0000
  H   H23       1.0  0.6498331036464864  0.6301245944125924  0.125162112912399  1.0000
  H   H24       1.0  0.8501674929741158  0.8698821336667918  0.6251710109586099  1.0000
  H   H25       1.0  0.3991920419176794  0.37564167618780436  0.052330018391579414  1.0000
  H   H26       1.0  0.1008172499443987  0.12435778838884909  0.5523343964117302  1.0000
  H   H27       1.0  0.6008297391741878  0.6243556721019488  0.9476586828103564  1.0000
  H   H28       1.0  0.8991714176910505  0.8756356886938401  0.4476669799639837  1.0000
  H   H29       1.0  0.3119918281781152  0.5178911425917787  0.055863834420989605  1.0000
  H   H30       1.0  0.18801691530335068  0.9821043471337204  0.5558708511602646  1.0000
  H   H31       1.0  0.6880337279608071  0.48210812457323027  0.9441312044091532  1.0000
  H   H32       1.0  0.8119788873179842  0.017888182296260897  0.4441333419553289  1.0000
  H   H33       1.0  0.4151955843629622  0.0371200316384943  0.751271165767669  1.0000
  H   H34       1.0  0.08479693536957462  0.4628797428533744  0.25127413225765594  1.0000
  H   H35       1.0  0.5848107756774539  0.9628763394986635  0.24872950646452816  1.0000
  H   H36       1.0  0.9151835085567727  0.5371194653338094  0.7487251315472392  1.0000
  H   H37       1.0  0.3971532894167495  0.17849250658331778  0.6870348354501064  1.0000
  H   H38       1.0  0.10283982843632343  0.32150459960965355  0.1870419209016134  1.0000
  H   H39       1.0  0.6028587017919023  0.8215029149474942  0.3129609075350785  1.0000
  H   H40       1.0  0.8971439754978122  0.6784917420385881  0.8129608638179634  1.0000
  H   H41       1.0  0.32123720487994234  0.15817123557116017  0.8075593756272639  1.0000
  H   H42       1.0  0.17875267364887287  0.34183027253582304  0.3075667481041934  1.0000
  H   H43       1.0  0.6787612838997105  0.8418279962122028  0.19243495895833726  1.0000
  H   H44       1.0  0.8212308090634296  0.6581727675179181  0.6924367407827817  1.0000
  C   C1        1.0  0.7137764379445458  0.22754533146197534  0.8721109823045767  1.0000
  C   C2        1.0  0.7862215855838388  0.2724483117110168  0.3721177084231115  1.0000
  C   C3        1.0  0.2862359370148013  0.7724510475456936  0.1278847606797839  1.0000
  C   C4        1.0  0.21376525711556124  0.7275518618070789  0.6278871888376403  1.0000
  C   C5        1.0  0.974871568601941  0.306226702080977  0.7709151171994507  1.0000
  C   C6        1.0  0.5251294616798603  0.1937797036831199  0.2709265213949408  1.0000
  C   C7        1.0  0.025151488779044804  0.6937888304073707  0.2290728797922625  1.0000
  C   C8        1.0  0.4748759035099397  0.8062329347167464  0.7290840093296397  1.0000
  C   C9        1.0  0.8014183448445139  0.25427553252579566  0.7194406276025092  1.0000
  C   C10       1.0  0.6985703522529575  0.2457252770200782  0.2194484425207222  1.0000
  C   C11       1.0  0.19857976034305114  0.7457227417554646  0.2805699031308535  1.0000
  C   C12       1.0  0.30140215803547227  0.75426913590681  0.7805592714376317  1.0000
  C   C13       1.0  0.05442340701478799  0.3280241053284029  0.9465305290825725  1.0000
  C   C14       1.0  0.4455830796206186  0.1719741168690163  0.44653908063053654  1.0000
  C   C15       1.0  0.9456025640944363  0.6719799472617822  0.0534602846580725  1.0000
  C   C16       1.0  0.554404883097476  0.8280251011335336  0.5534686333558128  1.0000
  C   C17       1.0  0.2626386410613151  0.4179983966696239  0.9222366402710094  1.0000
  C   C18       1.0  0.2373681060084607  0.0819979882536899  0.4222473453580449  1.0000
  C   C19       1.0  0.737368901381835  0.5820046748573944  0.07775276506703221  1.0000
  C   C20       1.0  0.7626341578665148  0.9180031623972482  0.5777582561178749  1.0000
  C   C21       1.0  0.39044813133503453  0.4606996656695941  0.0111141704435198  1.0000
  C   C22       1.0  0.1095576670238998  0.0392932250245792  0.5111203066207182  1.0000
  C   C23       1.0  0.6095729135371144  0.5392995956048734  0.9888766432941056  1.0000
  C   C24       1.0  0.8904325043809321  0.9607002540194285  0.48888388647976916  1.0000
  C   C25       1.0  0.4315822750345931  0.14085459245290363  0.7551376707644124  1.0000
  C   C26       1.0  0.0684065454325662  0.3591432511047472  0.2551395269669996  1.0000
  C   C27       1.0  0.5684142950536498  0.8591398519362841  0.24486300144801734  1.0000
  C   C28       1.0  0.9315723947381829  0.6408559551189229  0.7448583284737185  1.0000
  S   S1        1.0  0.5850467488996641  0.1873427906607645  0.9756759546617391  1.0000
  S   S2        1.0  0.9149687242485243  0.3126515068634745  0.4756824425546925  1.0000
  S   S3        1.0  0.41497349729976213  0.8126507277039892  0.0243240134283198  1.0000
  S   S4        1.0  0.08503277209058523  0.6873477288392351  0.5243196380213675  1.0000
  Br  Br1       1.0  0.9424214735867553  0.9561502312064715  0.8567379492495422  1.0000
  Br  Br2       1.0  0.557547639852082  0.543818406035058  0.3567232920818739  1.0000
  Br  Br3       1.0  0.0575478417211457  0.0438212101276463  0.14327680654586322  1.0000
  Br  Br4       1.0  0.4424580150847819  0.4561837060515971  0.6432647048928147  1.0000
  N   N1        1.0  0.9188790801816539  0.2905383958024289  0.86490195746579  1.0000
  N   N2        1.0  0.5811320146578042  0.20946198592724127  0.3649149792285513  1.0000
  N   N3        1.0  0.08111867239207272  0.7094627489634533  0.135095898016111  1.0000
  N   N4        1.0  0.41885709936065046  0.7905401044982128  0.6350976640174438  1.0000
  N   N5        1.0  0.6416890054123243  0.20666860860145417  0.7821088603600685  1.0000
  N   N6        1.0  0.8583114766032552  0.2933358473225453  0.28211937420417843  1.0000
  N   N7        1.0  0.35832759079087845  0.7933383026538647  0.2178854742546363  1.0000
  N   N8        1.0  0.1416821798464056  0.7066700769505444  0.7178876356032476  1.0000
