data_image0
_chemical_formula_structural       Cd2H16C24N4O12
_chemical_formula_sum              "Cd2 H16 C24 N4 O12"
_cell_length_a       6.731644441350671
_cell_length_b       10.183511037178517
_cell_length_c       10.183496715121475
_cell_angle_alpha    90.81927454382172
_cell_angle_beta     88.00902901643371
_cell_angle_gamma    88.01181650858187

_space_group_name_H-M_alt    "P 1"
_space_group_IT_number       1

loop_
  _space_group_symop_operation_xyz
  'x, y, z'

loop_
  _atom_site_type_symbol
  _atom_site_label
  _atom_site_symmetry_multiplicity
  _atom_site_fract_x
  _atom_site_fract_y
  _atom_site_fract_z
  _atom_site_occupancy
  Cd  Cd1       1.0  0.25000243485327195  0.5766550956044084  0.42335232196764133  1.0000
  Cd  Cd2       1.0  0.7499982627288234  0.4233452822978591  0.5766494390842425  1.0000
  H   H1        1.0  0.09529930527737922  0.21965930551679236  0.653064633753317  1.0000
  H   H2        1.0  0.5953100306407536  0.6530546208697456  0.21965715315378279  1.0000
  H   H3        1.0  0.9046985823364082  0.7803360090703109  0.346924423420468  1.0000
  H   H4        1.0  0.40468327604258286  0.34694677552648295  0.7803526825857077  1.0000
  H   H5        1.0  0.21884060245972842  0.3037900481111677  0.262374390537353  1.0000
  H   H6        1.0  0.7188066632540285  0.26236290305043036  0.30379087497444596  1.0000
  H   H7        1.0  0.7811746359673675  0.6962143103727672  0.7376230349112021  1.0000
  H   H8        1.0  0.2811958112629184  0.7376335738925732  0.6962127844945556  1.0000
  H   H9        1.0  0.2116801552637355  0.9820933872375833  0.618626563925602  1.0000
  H   H10       1.0  0.7116838637050049  0.6186053808463469  0.9820919026430985  1.0000
  H   H11       1.0  0.7883132879779423  0.0179019102555387  0.3813636041776292  1.0000
  H   H12       1.0  0.28830659082939286  0.38139402201964856  0.017917026502516392  1.0000
  H   H13       1.0  0.3494612655320566  0.06731395682039219  0.21376280490368058  1.0000
  H   H14       1.0  0.8494274644630198  0.21374004712355807  0.0673160233492212  1.0000
  H   H15       1.0  0.650549397019283  0.9326913163309951  0.7862308283049587  1.0000
  H   H16       1.0  0.15057469181672192  0.7862613529605509  0.9326886453322273  1.0000
  C   C1        1.0  0.2874740270243877  0.006414642880798699  0.41270098647553505  1.0000
  C   C2        1.0  0.7874611467394743  0.4126745224300306  0.006417617042785701  1.0000
  C   C3        1.0  0.7125282246440038  0.9935826946568085  0.5872908976927604  1.0000
  C   C4        1.0  0.21253371200828036  0.587325900458211  0.9935921701353576  1.0000
  C   C5        1.0  0.1533212166631586  0.1789245595320281  0.5589537834656608  1.0000
  C   C6        1.0  0.653316444744057  0.5589406580851205  0.1789237841631319  1.0000
  C   C7        1.0  0.8466735929203252  0.8210727224044448  0.4410373342969152  1.0000
  C   C8        1.0  0.34667546949892614  0.44105873353438346  0.8210831384509234  1.0000
  C   C9        1.0  0.2248643955698171  0.22605676532335647  0.3347426632370656  1.0000
  C   C10       1.0  0.7248441059440793  0.33473379360165  0.22606037266043438  1.0000
  C   C11       1.0  0.7751461344669295  0.7739504730177984  0.6652509809633287  1.0000
  C   C12       1.0  0.2751538840420054  0.6652636691756442  0.773946366699988  1.0000
  C   C13       1.0  0.3469344405652279  0.8638928743541854  0.3859989422670367  1.0000
  C   C14       1.0  0.846919666649228  0.38597664261926923  0.8638943765601681  1.0000
  C   C15       1.0  0.653072492384041  0.1361025964211535  0.6139996738444395  1.0000
  C   C16       1.0  0.1530714535171569  0.6140335067104986  0.1361076978433218  1.0000
  C   C17       1.0  0.21724667415178803  0.04983475162747909  0.5372025755394887  1.0000
  C   C18       1.0  0.7172423193089443  0.5371830147029967  0.04983134266298348  1.0000
  C   C19       1.0  0.7827571034824814  0.9501615920687528  0.46278729660136253  1.0000
  C   C20       1.0  0.2827495939231071  0.46281741034484003  0.9501804941121889  1.0000
  C   C21       1.0  0.293732406719272  0.09807764687223398  0.3115263268105295  1.0000
  C   C22       1.0  0.7937043251046063  0.3115054994041201  0.0980843644954774  1.0000
  C   C23       1.0  0.7062817324170753  0.9019187299321555  0.6884602986729149  1.0000
  C   C24       1.0  0.20629804299629487  0.6884929630620389  0.9019212694313836  1.0000
  N   N1        1.0  0.1539946543565307  0.263332012329947  0.4571222004961797  1.0000
  N   N2        1.0  0.6539824393975736  0.45711674778223005  0.2633313344576607  1.0000
  N   N3        1.0  0.8460090299109666  0.7366663270561203  0.542870627835576  1.0000
  N   N4        1.0  0.346012393251641  0.5428836547726305  0.7366764892543854  1.0000
  O   O1        1.0  0.4416152356931846  0.8322706874926382  0.2823472213955753  1.0000
  O   O2        1.0  0.9416001208510636  0.28232341523192866  0.8322643047219814  1.0000
  O   O3        1.0  0.5583903449744838  0.16772177557771067  0.7176465126284769  1.0000
  O   O4        1.0  0.0583984153016814  0.7176867693655922  0.1677365726211306  1.0000
  O   O5        1.0  0.0784932273131318  0.3845196975602079  0.4768107021403338  1.0000
  O   O6        1.0  0.578485459590489  0.47680521557243327  0.3845240696971359  1.0000
  O   O7        1.0  0.9215104830529127  0.6154786621592478  0.5231840896575193  1.0000
  O   O8        1.0  0.42151434647826136  0.5231883767456651  0.6154875132795468  1.0000
  O   O9        1.0  0.28726936346494364  0.7857374102807951  0.4776135587691925  1.0000
  O   O10       1.0  0.7872804091176278  0.4775900949559926  0.7857416919102818  1.0000
  O   O11       1.0  0.7127429836654073  0.2142649241728306  0.5223800148863376  1.0000
  O   O12       1.0  0.212714052086362  0.5224162235015442  0.21426812824314817  1.0000
