data_image0
_chemical_formula_structural       Al4H13C36Br2N3O20
_chemical_formula_sum              "Al4 H13 C36 Br2 N3 O20"
_cell_length_a       6.693769421474766
_cell_length_b       18.287759727776237
_cell_length_c       20.703626525219885
_cell_angle_alpha    107.87422924415995
_cell_angle_beta     90.31309578188353
_cell_angle_gamma    89.64725047033266

_space_group_name_H-M_alt    "P 1"
_space_group_IT_number       1

loop_
  _space_group_symop_operation_xyz
  'x, y, z'

loop_
  _atom_site_type_symbol
  _atom_site_label
  _atom_site_symmetry_multiplicity
  _atom_site_fract_x
  _atom_site_fract_y
  _atom_site_fract_z
  _atom_site_occupancy
  Al  Al1       1.0  0.13780374603043552  0.4979098055866586  0.5005924869443916  1.0000
  Al  Al2       1.0  0.6376479535595649  0.4986856683944652  0.5007251960858312  1.0000
  Al  Al3       1.0  0.6422284271642198  0.9984481183208587  0.9998910026850965  1.0000
  Al  Al4       1.0  0.1423406170318486  0.9980346534294069  0.9996241416801794  1.0000
  H   H1        1.0  0.5990583275607833  0.7433859891878712  0.1737444722265877  1.0000
  H   H2        1.0  0.6008099964292128  0.6638396229411543  0.25268331244612346  1.0000
  H   H3        1.0  0.6800208725962946  0.2604858883345145  0.8355382944963807  1.0000
  H   H4        1.0  0.3375818182885837  0.8424337423615287  0.2751370372505236  1.0000
  H   H5        1.0  0.21663494643244255  0.8706092447087883  0.2114057395771738  1.0000
  H   H6        1.0  0.0105291291568719  0.12970814794627467  0.703232989161421  1.0000
  H   H7        1.0  0.08697892114136611  0.11866277256576303  0.778414279931482  1.0000
  H   H8        1.0  0.0960477167510874  0.27492376083105097  0.6314381943451152  1.0000
  H   H9        1.0  0.9526174503065903  0.23318008100920903  0.6763094309045741  1.0000
  H   H10       1.0  0.3846787477848963  0.5941440094736804  0.5011974398723069  1.0000
  H   H11       1.0  0.8878375010430162  0.3980903748907991  0.4854711034419522  1.0000
  H   H12       1.0  0.3943332445800465  0.8990277344592101  0.9901348473950548  1.0000
  H   H13       1.0  0.892035206019294  0.09930278138256911  0.022631912741523808  1.0000
  C   C1        1.0  0.3861519361278524  0.3926638464531749  0.3955937805258571  1.0000
  C   C2        1.0  0.3927119336118139  0.4205758580432004  0.5759681871716323  1.0000
  C   C3        1.0  0.8905827709112515  0.603192990155513  0.6053288333472082  1.0000
  C   C4        1.0  0.8834826796532622  0.5762722533431557  0.42500855817574756  1.0000
  C   C5        1.0  0.0625629095275286  0.7934448424507963  0.24612666559119847  1.0000
  C   C6        1.0  0.8912196933702248  0.7907453934665156  0.20369309151979562  1.0000
  C   C7        1.0  0.7269248308435508  0.7440972797192416  0.2067516144531751  1.0000
  C   C8        1.0  0.7270029455216119  0.7001718085420024  0.2504335759643581  1.0000
  C   C9        1.0  0.8920724426900006  0.7029530795781085  0.29417460416717495  1.0000
  C   C10       1.0  0.05590273088592569  0.7499260361248758  0.29182396051403714  1.0000
  C   C11       1.0  0.8904519507413153  0.8354789492283389  0.15919375835836297  1.0000
  C   C12       1.0  0.8893506326979831  0.6588220534941628  0.3394598371275634  1.0000
  C   C13       1.0  0.8846485748627584  0.6203209105258056  0.3781241890618858  1.0000
  C   C14       1.0  0.8955689999296863  0.8753618124937078  0.12150290912417472  1.0000
  C   C15       1.0  0.8900997393598048  0.8314310608789768  0.8321718610589882  1.0000
  C   C16       1.0  0.8902393999442423  0.7779384569253907  0.7793787850262675  1.0000
  C   C17       1.0  0.8902542231495899  0.7188251923535702  0.7211276496079435  1.0000
  C   C18       1.0  0.8900330137487416  0.6652161066874385  0.668406445268573  1.0000
  C   C19       1.0  0.38809109595039354  0.33108345215233465  0.3321729768709929  1.0000
  C   C20       1.0  0.3893364711385132  0.27783484662258934  0.27919776323043516  1.0000
  C   C21       1.0  0.39080223107788464  0.21898122862949523  0.2207548292120265  1.0000
  C   C22       1.0  0.39232160606595556  0.1656061175047299  0.1678540932536379  1.0000
  C   C23       1.0  0.5598737374967157  0.2567090815432493  0.7990929771834132  1.0000
  C   C24       1.0  0.398258888112295  0.20615052385390698  0.7967453627321319  1.0000
  C   C25       1.0  0.23866838578947377  0.2002142072966038  0.7502882240795472  1.0000
  C   C26       1.0  0.2437457548726627  0.2446800154086902  0.7048877710721655  1.0000
  C   C27       1.0  0.4057392854479787  0.29510685249603336  0.7073873314994188  1.0000
  C   C28       1.0  0.5616118290302481  0.30037444237207467  0.755487579804466  1.0000
  C   C29       1.0  0.3958113518749115  0.1607602379293098  0.8408072142968877  1.0000
  C   C30       1.0  0.4044144841558789  0.33954612876568996  0.6626829052800146  1.0000
  C   C31       1.0  0.39474913985798565  0.3764032781830693  0.6225846019361754  1.0000
  C   C32       1.0  0.3892726006038955  0.12064117413676458  0.8782413318635135  1.0000
  C   C33       1.0  0.3865581154426181  0.07591307741535051  0.9244624512561969  1.0000
  C   C34       1.0  0.3953455090373055  0.1038029530792954  0.1046643062906583  1.0000
  C   C35       1.0  0.8976933373991114  0.9199375635664568  0.07513723588571973  1.0000
  C   C36       1.0  0.8883252097601539  0.8933037527641261  0.8952691486510672  1.0000
  Br  Br1       1.0  0.27439478558611086  0.7564453092490736  0.3522236938838433  1.0000
  Br  Br2       1.0  0.7701811877435745  0.3725741668657109  0.7622438355091248  1.0000
  N   N1        1.0  0.2240234587429839  0.8360654230170184  0.2413780874462361  1.0000
  N   N2        1.0  0.0754972491763652  0.15417746353641348  0.7491977858939833  1.0000
  N   N3        1.0  0.09189676143110148  0.23581205509143638  0.6574649591399577  1.0000
  O   O1        1.0  0.562104447173887  0.4411388472747859  0.5599201170197432  1.0000
  O   O2        1.0  0.21482373420607098  0.41772667133566443  0.4186800800748998  1.0000
  O   O3        1.0  0.05331809638968109  0.561430256790821  0.4463862306302743  1.0000
  O   O4        1.0  0.22233144970292784  0.4343713542740418  0.5541959160157219  1.0000
  O   O5        1.0  0.061110182866478596  0.577129875914295  0.5823122788942143  1.0000
  O   O6        1.0  0.5559120442029055  0.41463628902135247  0.4222592470589888  1.0000
  O   O7        1.0  0.3867442281848027  0.543552242144976  0.5070028262261274  1.0000
  O   O8        1.0  0.7206135269347483  0.5817675016169802  0.5786823588764278  1.0000
  O   O9        1.0  0.7130130111430971  0.5570640907365031  0.4415359523869924  1.0000
  O   O10       1.0  0.8879721099866059  0.4530344250283492  0.493133473796007  1.0000
  O   O11       1.0  0.22657328306217286  0.08313292980902531  0.0764872227862696  1.0000
  O   O12       1.0  0.5551594153781707  0.063663967518778  0.948356412808181  1.0000
  O   O13       1.0  0.7178751114004809  0.9208136538006716  0.9170512419314039  1.0000
  O   O14       1.0  0.5665277527784909  0.07680826142821222  0.08307561340123468  1.0000
  O   O15       1.0  0.7285820672829073  0.9327209330028623  0.05182826721462423  1.0000
  O   O16       1.0  0.21641548586768516  0.053496088366138395  0.9381504060593924  1.0000
  O   O17       1.0  0.3929911132852765  0.9529319517220003  0.9931810026439577  1.0000
  O   O18       1.0  0.06836898893408967  0.9416096426300554  0.06102785737739683  1.0000
  O   O19       1.0  0.057294882948362186  0.9135863511833192  0.923367995927144  1.0000
  O   O20       1.0  0.8919572595344931  0.043665190358972004  0.007538486299630203  1.0000
