data_image0
_chemical_formula_structural       Na4H8C12Cl4O12
_chemical_formula_sum              "Na4 H8 C12 Cl4 O12"
_cell_length_a       3.615777339340435
_cell_length_b       8.865068848832383
_cell_length_c       14.627309078937927
_cell_angle_alpha    94.73082774588084
_cell_angle_beta     89.99874933870035
_cell_angle_gamma    89.99917667490739

_space_group_name_H-M_alt    "P 1"
_space_group_IT_number       1

loop_
  _space_group_symop_operation_xyz
  'x, y, z'

loop_
  _atom_site_type_symbol
  _atom_site_label
  _atom_site_symmetry_multiplicity
  _atom_site_fract_x
  _atom_site_fract_y
  _atom_site_fract_z
  _atom_site_occupancy
  Na  Na1       1.0  0.5031727833792488  0.080954991453396  0.7854913933748693  1.0000
  Na  Na2       1.0  0.0031779001185939008  0.41904596914755393  0.7145020291265213  1.0000
  Na  Na3       1.0  0.49685248722330755  0.9190462098069575  0.21450893528476916  1.0000
  Na  Na4       1.0  0.9968307770157097  0.5809510110042596  0.2854891462623499  1.0000
  H   H1        1.0  0.9353692471720193  0.8764646336503078  0.7443465046025324  1.0000
  H   H2        1.0  0.4353506843803245  0.623540807679909  0.7556600333246594  1.0000
  H   H3        1.0  0.0646560231396194  0.12354208484285321  0.2556582718094234  1.0000
  H   H4        1.0  0.564657992414091  0.3764582008371207  0.24433810688325516  1.0000
  H   H5        1.0  0.0651880484176388  0.8209159785263155  0.839095455931414  1.0000
  H   H6        1.0  0.5651931537162865  0.6790975732905267  0.6609142593852084  1.0000
  H   H7        1.0  0.9348344563841665  0.17908050827847433  0.1609100483754062  1.0000
  H   H8        1.0  0.43483211678818623  0.3209069993848459  0.33908696386436094  1.0000
  C   C1        1.0  0.46888117644439836  0.4122010580091313  0.9111720190218905  1.0000
  C   C2        1.0  0.9688653547916247  0.0877920264217167  0.5888252498899507  1.0000
  C   C3        1.0  0.5310943126717192  0.5877877659022914  0.08882548450621641  1.0000
  C   C4        1.0  0.031132259178797  0.912193026661967  0.4111829586168484  1.0000
  C   C5        1.0  0.6729926646428053  0.4241546281158578  0.0730411811478291  1.0000
  C   C6        1.0  0.17299398575223532  0.07582602404824001  0.4269438154217013  1.0000
  C   C7        1.0  0.32696069944906014  0.5758389808059121  0.9269490998110969  1.0000
  C   C8        1.0  0.8269925657338107  0.9241637435372568  0.5730592174779191  1.0000
  C   C9        1.0  0.6315605420196704  0.3464448320408948  0.9858163104591997  1.0000
  C   C10       1.0  0.1315924582099441  0.15357191543592558  0.5141869832202843  1.0000
  C   C11       1.0  0.3684011184776779  0.6535678737080631  0.014179267262441899  1.0000
  C   C12       1.0  0.8684383431477231  0.8464391886363674  0.4858221701751192  1.0000
  Cl  Cl1       1.0  0.7807218786461193  0.16105696339499792  0.9702903781403194  1.0000
  Cl  Cl2       1.0  0.2806989358801176  0.3389423523846774  0.5296952979407052  1.0000
  Cl  Cl3       1.0  0.21925914203889366  0.8389355137991005  0.029699831985745096  1.0000
  Cl  Cl4       1.0  0.7193097406103419  0.6610598631137775  0.4703085131764482  1.0000
  O   O1        1.0  0.023797056398869604  0.9127975765257687  0.8061823005760544  1.0000
  O   O2        1.0  0.5238052653308287  0.5872128337197395  0.6938281242360063  1.0000
  O   O3        1.0  0.9762226821998751  0.08722147252026961  0.19382666579008406  1.0000
  O   O4        1.0  0.476222771327599  0.41277603699698784  0.3061680144774499  1.0000
  O   O5        1.0  0.8251156408660519  0.36859911728036115  0.1407761761538424  1.0000
  O   O6        1.0  0.32513200108410706  0.13139621933977003  0.35921302492477747  1.0000
  O   O7        1.0  0.17485431706004562  0.6314013048874898  0.8592138469429572  1.0000
  O   O8        1.0  0.6748545500096127  0.8686070339058035  0.64079358633456  1.0000
  O   O9        1.0  0.4329156837888349  0.3461403031503992  0.8313909722938818  1.0000
  O   O10       1.0  0.9329486549894951  0.15388006345672525  0.6686116142494429  1.0000
  O   O11       1.0  0.5670155542688278  0.6538710831410128  0.1686099934135328  1.0000
  O   O12       1.0  0.06709874084318561  0.8461165172268751  0.3313911606600613  1.0000
