data_image0
_chemical_formula_structural       Cd3H32C38S6N10O10
_chemical_formula_sum              "Cd3 H32 C38 S6 N10 O10"
_cell_length_a       10.596507315565168
_cell_length_b       11.369886735305954
_cell_length_c       11.369878660830375
_cell_angle_alpha    98.78725873109819
_cell_angle_beta     107.99483825062288
_cell_angle_gamma    107.99477689745389

_space_group_name_H-M_alt    "P 1"
_space_group_IT_number       1

loop_
  _space_group_symop_operation_xyz
  'x, y, z'

loop_
  _atom_site_type_symbol
  _atom_site_label
  _atom_site_symmetry_multiplicity
  _atom_site_fract_x
  _atom_site_fract_y
  _atom_site_fract_z
  _atom_site_occupancy
  Cd  Cd1       1.0  6.633806747610449e-07  0.9999994349033443  2.1808831725280445e-07  1.0000
  Cd  Cd2       1.0  0.034870719086654775  0.3928233029632792  0.3928227353123858  1.0000
  Cd  Cd3       1.0  0.9651313951400341  0.6071782101485681  0.6071786740133901  1.0000
  H   H1        1.0  0.7522305957506461  0.8983144659113762  0.6222655403423119  1.0000
  H   H2        1.0  0.2477691822702042  0.3777343981415697  0.10168554205101542  1.0000
  H   H3        1.0  0.24776920722387533  0.10169091894980652  0.3777366606549677  1.0000
  H   H4        1.0  0.7522299056231746  0.6222623157144797  0.8983089797832874  1.0000
  H   H5        1.0  0.7553147488044232  0.10511293584323772  0.3527592315520138  1.0000
  H   H6        1.0  0.2446857400096007  0.6472406661240626  0.8948865476919606  1.0000
  H   H7        1.0  0.24468474736551132  0.8948847392293048  0.6472364345950297  1.0000
  H   H8        1.0  0.7553146396389038  0.3527637506939598  0.10511567492037707  1.0000
  H   H9        1.0  0.49221391445538404  0.7629328958341264  0.506920656872353  1.0000
  H   H10       1.0  0.5077880859814315  0.49308111503781077  0.23706804887080327  1.0000
  H   H11       1.0  0.5077858702941711  0.23707248733384748  0.49308505665183583  1.0000
  H   H12       1.0  0.4922135530432358  0.5069146175450431  0.7629279483024121  1.0000
  H   H13       1.0  0.4900590852847558  0.9802723495682245  0.22338919379282632  1.0000
  H   H14       1.0  0.509939679966344  0.7766106955228199  0.019728380997165257  1.0000
  H   H15       1.0  0.5099399980523813  0.0197243638645261  0.7766062061732057  1.0000
  H   H16       1.0  0.4900612626874122  0.22339275198213218  0.9802764976254109  1.0000
  H   H17       1.0  0.2703643513420105  0.8092525794812887  0.18851251953960002  1.0000
  H   H18       1.0  0.7296368895200092  0.8114892685594274  0.19074911639821585  1.0000
  H   H19       1.0  0.7296355439919894  0.1907460559611422  0.8114860471836282  1.0000
  H   H20       1.0  0.27036464347645517  0.18851321217227485  0.8092531494442312  1.0000
  H   H21       1.0  0.27243661424293464  0.6547556758643652  0.39019671209278783  1.0000
  H   H22       1.0  0.727565144189505  0.609804308420003  0.3452457710984547  1.0000
  H   H23       1.0  0.727564332967063  0.3452477720638925  0.6098072883980591  1.0000
  H   H24       1.0  0.27243689855547604  0.3901923849560447  0.6547522485192231  1.0000
  H   H25       1.0  0.8710318877292594  0.05437519212642882  0.5436211511034443  1.0000
  H   H26       1.0  0.12896988368974155  0.4563793315298598  0.9456249024089871  1.0000
  H   H27       1.0  0.12896727164581998  0.9456263414654205  0.45637676043895686  1.0000
  H   H28       1.0  0.8710312501426503  0.5436221888319537  0.05437446285727539  1.0000
  H   H29       1.0  0.019579394687106347  0.7868890232654452  0.12163991121236252  1.0000
  H   H30       1.0  0.9804212772654496  0.8783609684973827  0.2131109435069973  1.0000
  H   H31       1.0  0.9804218893177393  0.21311056614350576  0.8783618438831268  1.0000
  H   H32       1.0  0.019579021788864302  0.12163862773823549  0.7868896456606931  1.0000
  C   C1        1.0  0.6878238037461062  0.9098513788999089  0.5327853957805075  1.0000
  C   C2        1.0  0.3121769867249995  0.46721401084750636  0.09014828284347237  1.0000
  C   C3        1.0  0.3121741794998059  0.09015208866175332  0.4672168631904229  1.0000
  C   C4        1.0  0.6878244884584886  0.532783651418299  0.9098479588956961  1.0000
  C   C5        1.0  0.6894722985966198  0.02811929828232  0.37991770313254136  1.0000
  C   C6        1.0  0.3105277478931825  0.6200828675867597  0.9718819862428559  1.0000
  C   C7        1.0  0.3105266163430898  0.971879344410084  0.6200788195311729  1.0000
  C   C8        1.0  0.6894722143662834  0.37992058716816507  0.028120848320199315  1.0000
  C   C9        1.0  0.5437122385201079  0.8364140099494152  0.4671396582179241  1.0000
  C   C10       1.0  0.45628802279757263  0.5328609140624964  0.16358639837991973  1.0000
  C   C11       1.0  0.45628673423257743  0.16358945120887822  0.5328628885490687  1.0000
  C   C12       1.0  0.5437124583228936  0.4671367541833789  0.8364104336949153  1.0000
  C   C13       1.0  0.5444069406084113  0.9581003502768869  0.31054853821029144  1.0000
  C   C14       1.0  0.4555925730445907  0.6894517587020346  0.041899936559893505  1.0000
  C   C15       1.0  0.455590567435479  0.04189733675578821  0.6894483086080782  1.0000
  C   C16       1.0  0.5444079704450929  0.3105507284330287  0.9581020414864907  1.0000
  C   C17       1.0  0.4682836604938317  0.8592116212595117  0.35276088559906776  1.0000
  C   C18       1.0  0.5317165835682758  0.6472388387331023  0.1407876695089598  1.0000
  C   C19       1.0  0.5317162302839264  0.1407870137596205  0.6472385592558892  1.0000
  C   C20       1.0  0.4682833072094752  0.35275979628602283  0.8592117753460042  1.0000
  C   C21       1.0  0.3169010024273788  0.7835363825760312  0.2762001617594052  1.0000
  C   C22       1.0  0.6830999870316532  0.7238007995022074  0.2164635941511079  1.0000
  C   C23       1.0  0.6830998778571599  0.21646224603972541  0.7237995708916145  1.0000
  C   C24       1.0  0.3169007248554577  0.27619975837320965  0.7835372611975941  1.0000
  C   C25       1.0  0.23298905608122322  0.6848296609971599  0.30403759527590785  1.0000
  C   C26       1.0  0.7670112975355536  0.6959640388695975  0.3151714117681409  1.0000
  C   C27       1.0  0.7670106617428731  0.3151709028583199  0.6959638504084609  1.0000
  C   C28       1.0  0.23298941435155743  0.3040365190058126  0.6848294435805612  1.0000
  C   C29       1.0  0.0810951770268461  0.6079369714383704  0.2176628128303051  1.0000
  C   C30       1.0  0.9189048577415306  0.7823376751515384  0.39206331517563336  1.0000
  C   C31       1.0  0.9189055394165069  0.3920635868603456  0.7823371643866679  1.0000
  C   C32       1.0  0.08109544131278307  0.21766192108407978  0.6079372739920571  1.0000
  C   C33       1.0  0.2885811743989351  0.6372417269324375  0.6372401696178258  1.0000
  C   C34       1.0  0.7114143546314012  0.3627559729069675  0.3627561016084186  1.0000
  C   C35       1.0  0.8178256931325835  0.13276256336454403  0.1327648375006519  1.0000
  C   C36       1.0  0.1821793850581912  0.8672389301138921  0.8672383133450408  1.0000
  C   C37       1.0  0.20586790801922217  0.26557640082751993  0.2655758678105116  1.0000
  C   C38       1.0  0.7941299855200086  0.7344222453051261  0.7344265139792227  1.0000
  S   S1        1.0  0.4531495838261109  0.7246465844113886  0.7246478493503474  1.0000
  S   S2        1.0  0.5468393281141813  0.275347299192454  0.27534943069844786  1.0000
  S   S3        1.0  0.2873927338100799  0.3909289934985338  0.3909282609893765  1.0000
  S   S4        1.0  0.712606580293702  0.6090706095637515  0.6090711622505296  1.0000
  S   S5        1.0  0.7434725049213499  0.007718404694152501  0.007723532005577709  1.0000
  S   S6        1.0  0.2565311572611223  0.99228213227795  0.9922816992582284  1.0000
  N   N1        1.0  0.16555146137372387  0.5721786049267195  0.5721807642344243  1.0000
  N   N2        1.0  0.8344428154894887  0.42781620872339243  0.4278173428439729  1.0000
  N   N3        1.0  0.14848674367208764  0.17485227965421055  0.1748525098469145  1.0000
  N   N4        1.0  0.8515141274999607  0.8251463481149416  0.8251489790675635  1.0000
  N   N5        1.0  0.8704641747547726  0.22330748671014086  0.22330745015450754  1.0000
  N   N6        1.0  0.12954074870729929  0.776695937297859  0.7766941889936874  1.0000
  N   N7        1.0  0.7569496758756529  0.0020287708395443005  0.4880003921349568  1.0000
  N   N8        1.0  0.2430518463832741  0.5120005677906151  0.9979721319908847  1.0000
  N   N9        1.0  0.24304807204736537  0.9979718066692698  0.5119987216938284  1.0000
  N   N10       1.0  0.7569502723996493  0.4880009457445312  0.0020283992031623027  1.0000
  O   O1        1.0  0.02760584262963318  0.640194836142591  0.11561254091576961  1.0000
  O   O2        1.0  0.9723935197466319  0.8843867523608823  0.3598047518808086  1.0000
  O   O3        1.0  0.9723994267397773  0.3598047301927069  0.8843850965736095  1.0000
  O   O4        1.0  0.027605381524345805  0.1156118890616114  0.640194405178093  1.0000
  O   O5        1.0  0.008670270504808291  0.5122477419570473  0.24508621140238057  1.0000
  O   O6        1.0  0.9913300006423287  0.7549135788980692  0.4877516816256532  1.0000
  O   O7        1.0  0.9913263195140091  0.4877547712147888  0.7549137373280176  1.0000
  O   O8        1.0  0.008673857275020725  0.24508503135420065  0.5122471581501031  1.0000
  O   O9        1.0  1.0386719823125765e-06  0.8670626293269809  0.13293869657722018  1.0000
  O   O10       1.0  0.9999998325000662  0.13293599844217147  0.8670627923372578  1.0000
