data_image0
_chemical_formula_structural       Tm2MnH28C16O18
_chemical_formula_sum              "Tm2 Mn1 H28 C16 O18"
_cell_length_a       8.842689930071796
_cell_length_b       9.119244633731865
_cell_length_c       10.69368937654342
_cell_angle_alpha    80.39751735817799
_cell_angle_beta     73.5138052176127
_cell_angle_gamma    76.91929410317084

_space_group_name_H-M_alt    "P 1"
_space_group_IT_number       1

loop_
  _space_group_symop_operation_xyz
  'x, y, z'

loop_
  _atom_site_type_symbol
  _atom_site_label
  _atom_site_symmetry_multiplicity
  _atom_site_fract_x
  _atom_site_fract_y
  _atom_site_fract_z
  _atom_site_occupancy
  Tm  Tm1       1.0  0.09827009352350305  0.9310002230688355  0.8096014267290741  1.0000
  Tm  Tm2       1.0  0.90172845733062  0.0690020128694613  0.190394673816698  1.0000
  Mn  Mn1       1.0  0.9999958274239162  0.9999918946341925  0.49999650808673823  1.0000
  H   H1        1.0  0.5252100979613132  0.12008861247331029  0.9216363382640295  1.0000
  H   H2        1.0  0.4747940687454178  0.8799147321784629  0.07836486825039658  1.0000
  H   H3        1.0  0.4818963538785113  0.07354653575747251  0.7798002732151091  1.0000
  H   H4        1.0  0.518102780067139  0.9264523148204662  0.22020365661603583  1.0000
  H   H5        1.0  0.532011940287589  0.2508768364027034  0.7763944937474675  1.0000
  H   H6        1.0  0.4679876850995869  0.74912540976662  0.22361164670969907  1.0000
  H   H7        1.0  0.2616034477680813  0.27152586405613016  0.4201353054082944  1.0000
  H   H8        1.0  0.7384106760305331  0.7284638097491012  0.5798431262416698  1.0000
  H   H9        1.0  0.43648116116093416  0.12390868219631562  0.415171551418389  1.0000
  H   H10       1.0  0.563522440585402  0.8760799404946906  0.5848206546409642  1.0000
  H   H11       1.0  0.40287394619714695  0.2708770372496829  0.5127925092008354  1.0000
  H   H12       1.0  0.5971317022262571  0.7291138164156975  0.48718675524185057  1.0000
  H   H13       1.0  0.8005305930562161  0.6656029513813236  0.23845696448695014  1.0000
  H   H14       1.0  0.19946408941456892  0.3344004552976116  0.7615501399136803  1.0000
  H   H15       1.0  0.9164675274392453  0.5226393470316565  0.13239315933720525  1.0000
  H   H16       1.0  0.08354270199833995  0.4773571708640033  0.8676057625131435  1.0000
  H   H17       1.0  0.7307359393183434  0.6248302385443621  0.10918507542601924  1.0000
  H   H18       1.0  0.2692545474092753  0.37517091669815983  0.8908148907685103  1.0000
  H   H19       1.0  0.3599575725396705  0.5182700261902229  0.5510516459090979  1.0000
  H   H20       1.0  0.6400524494255394  0.48173329142353793  0.44895290300068774  1.0000
  H   H21       1.0  0.2688914725600854  0.6588268226949765  0.441413838636393  1.0000
  H   H22       1.0  0.7311290665887499  0.3411707807198781  0.5585919259556675  1.0000
  H   H23       1.0  0.1531794808101027  0.5351869243491761  0.5530353203811558  1.0000
  H   H24       1.0  0.8468311598761817  0.46480733299056004  0.4469666343252283  1.0000
  H   H25       1.0  0.3169211739082414  0.7381861516979457  0.9485224629780118  1.0000
  H   H26       1.0  0.6830744354251479  0.261825152201851  0.05147302052655798  1.0000
  H   H27       1.0  0.24156511220199683  0.8837234641075823  0.030947798373112748  1.0000
  H   H28       1.0  0.7584276279569266  0.1162901299296948  0.969054561036053  1.0000
  C   C1        1.0  0.7318340239600903  0.06768695262285009  0.7565837775582763  1.0000
  C   C2        1.0  0.2681666295915549  0.9323164082517224  0.2434154235189396  1.0000
  C   C3        1.0  0.9191953288284866  0.750813449655027  0.04308675492838887  1.0000
  C   C4        1.0  0.08079366057477702  0.24918886082133443  0.9569227406494392  1.0000
  C   C5        1.0  0.25138309249270924  0.1091102722343038  0.5917840254839605  1.0000
  C   C6        1.0  0.748612825614913  0.8908874494317872  0.4082105124772824  1.0000
  C   C7        1.0  0.556973728538587  0.1303821731523698  0.8142473041085552  1.0000
  C   C8        1.0  0.44302839816503353  0.8696132703029633  0.18575923196347333  1.0000
  C   C9        1.0  0.20003996933556323  0.709543026112307  0.6393002707998221  1.0000
  C   C10       1.0  0.7999640496152837  0.2904546733391912  0.3607083179472355  1.0000
  C   C11       1.0  0.3415485616976924  0.20062217717904224  0.4772906359810207  1.0000
  C   C12       1.0  0.6584489966215161  0.7993732691403467  0.5227019804559417  1.0000
  C   C13       1.0  0.8373048638248691  0.6345096965655516  0.1382766298987477  1.0000
  C   C14       1.0  0.16268893525941766  0.3654925719501919  0.8617233567333569  1.0000
  C   C15       1.0  0.25016345559362213  0.5975217052989805  0.5403690991568411  1.0000
  C   C16       1.0  0.7498520700978589  0.4024714009143154  0.45963751446547  1.0000
  O   O1        1.0  0.09794388583983962  0.1173623859978861  0.6125901593270555  1.0000
  O   O2        1.0  0.9020536338719157  0.8826330665769504  0.3874062056828364  1.0000
  O   O3        1.0  0.0722385798933445  0.8134911233200414  0.6381191769312125  1.0000
  O   O4        1.0  0.9277586925659738  0.18649303103494927  0.36188726682779293  1.0000
  O   O5        1.0  0.2764742475644086  0.8466070219007521  0.941137975081375  1.0000
  O   O6        1.0  0.7235046021651144  0.15340551378717035  0.05886209615148634  1.0000
  O   O7        1.0  0.9280583678895129  0.8736499327426513  0.08179033176644887  1.0000
  O   O8        1.0  0.07191224884859085  0.12636831571213492  0.9182154836016707  1.0000
  O   O9        1.0  0.32353177184604937  0.021232597222777407  0.6711502289879334  1.0000
  O   O10       1.0  0.676464589443775  0.9787685278540083  0.3288512053154874  1.0000
  O   O11       1.0  0.8282945020766804  0.03826052914739361  0.8319987494844623  1.0000
  O   O12       1.0  0.17171164374406095  0.961745057425773  0.16799607541590683  1.0000
  O   O13       1.0  0.9801367112572164  0.7261772927919382  0.9241004448009207  1.0000
  O   O14       1.0  0.0198695611249349  0.2738328454543151  0.07591053716078018  1.0000
  O   O15       1.0  0.7749800573055978  0.0497311523701072  0.6360292565199258  1.0000
  O   O16       1.0  0.22501861415412355  0.9502642979248609  0.363969651255502  1.0000
  O   O17       1.0  0.27662965369095377  0.7059037449724597  0.7233547898296564  1.0000
  O   O18       1.0  0.7233772036734578  0.29410410456834774  0.2766423564099156  1.0000
