data_image0
_chemical_formula_structural       Cu4H48C52S8Br4
_chemical_formula_sum              "Cu4 H48 C52 S8 Br4"
_cell_length_a       6.442024921
_cell_length_b       12.518452132384589
_cell_length_c       16.7746
_cell_angle_alpha    93.11857740314348
_cell_angle_beta     90.0
_cell_angle_gamma    90.0

_space_group_name_H-M_alt    "P 1"
_space_group_IT_number       1

loop_
  _space_group_symop_operation_xyz
  'x, y, z'

loop_
  _atom_site_type_symbol
  _atom_site_label
  _atom_site_symmetry_multiplicity
  _atom_site_fract_x
  _atom_site_fract_y
  _atom_site_fract_z
  _atom_site_occupancy
  Cu  Cu1       1.0  0.5582095760414703  0.5142075644868385  0.4455786643429889  1.0000
  Cu  Cu2       1.0  0.4417787939196955  0.014204898468356899  0.9455762907749374  1.0000
  Cu  Cu3       1.0  0.5725202937320333  0.2905652141980681  0.434464927403134  1.0000
  Cu  Cu4       1.0  0.4274929131401919  0.7905606801666352  0.9344664125152277  1.0000
  H   H1        1.0  0.0097438306696702  0.548006198778971  0.2977741316986169  1.0000
  H   H2        1.0  0.9902445392914956  0.048004332766034  0.7977711944707836  1.0000
  H   H3        1.0  0.9877235928190516  0.6106690331577411  0.1615357502215033  1.0000
  H   H4        1.0  0.0122632248351735  0.1106759672058075  0.6615349586876604  1.0000
  H   H5        1.0  0.207984293204504  0.7624804855147289  0.12061012840443654  1.0000
  H   H6        1.0  0.7920071813705434  0.2624922195960693  0.6206154931423029  1.0000
  H   H7        1.0  0.4558100963608496  0.8485650822531525  0.2169663282198897  1.0000
  H   H8        1.0  0.5441953489766718  0.3485792163511263  0.7169753672330117  1.0000
  H   H9        1.0  0.4874709487327706  0.7842166361897256  0.3535428422164557  1.0000
  H   H10       1.0  0.5125453627533432  0.284228370271066  0.8535523799301288  1.0000
  H   H11       1.0  0.0717848821870462  0.8093216102174027  0.5324882353162508  1.0000
  H   H12       1.0  0.9282128016157642  0.3093197442044655  0.0324745675792002  1.0000
  H   H13       1.0  0.0707789872891738  0.902195854021663  0.6668402141117796  1.0000
  H   H14       1.0  0.9292186965136366  0.4022019880641778  0.1668238904738857  1.0000
  H   H15       1.0  0.8210089319522496  0.8474010741842477  0.7703140842677669  1.0000
  H   H16       1.0  0.1789794380089162  0.3474136082711325  0.2703010011638156  1.0000
  H   H17       1.0  0.5892277733397506  0.6908295888307094  0.7420302016059352  1.0000
  H   H18       1.0  0.41076525354223753  0.1908437229286903  0.2420231448552244  1.0000
  H   H19       1.0  0.598063504448838  0.5933249129282956  0.6086890671253613  1.0000
  H   H20       1.0  0.4019264178192685  0.09332624693754349  0.10868625981598971  1.0000
  H   H21       1.0  0.32407667241310634  0.2030078072501169  0.5854134003206255  1.0000
  H   H22       1.0  0.6759179067758226  0.7030064732408761  0.08541918832700192  1.0000
  H   H23       1.0  0.4159934233200744  0.0705236888702103  0.6848955665693026  1.0000
  H   H24       1.0  0.58399805125498  0.5705191548387845  0.18490003237840108  1.0000
  H   H25       1.0  0.4924134940334213  0.882373316611833  0.6403549410449187  1.0000
  H   H26       1.0  0.5075935036110337  0.3823706505933515  0.1403549520344711  1.0000
  H   H27       1.0  0.4671481462590918  0.8244745152573429  0.49658870112985204  1.0000
  H   H28       1.0  0.5328588513853703  0.3244734492499504  0.9965887770786422  1.0000
  H   H29       1.0  0.36502187260011  0.9558986262892759  0.3966760087783641  1.0000
  H   H30       1.0  0.6350053050345821  0.4559015603096128  0.896679823961648  1.0000
  H   H31       1.0  0.889561911087803  0.9484801748645708  0.4481888774915106  1.0000
  H   H32       1.0  0.1104466388635998  0.4484823088793632  0.9481962370315813  1.0000
  H   H33       1.0  0.8974274503586628  0.8145360463638767  0.3324036561748969  1.0000
  H   H34       1.0  0.1025655765233253  0.3145333803453951  0.8324132053948787  1.0000
  H   H35       1.0  0.8536229007860427  0.8746028627470466  0.19430067096883621  1.0000
  H   H36       1.0  0.1463608122543008  0.374598596717469  0.6943095590901791  1.0000
  H   H37       1.0  0.8030953098512583  0.0676572690001862  0.1717398349797179  1.0000
  H   H38       1.0  0.1968961647237961  0.5676503349521198  0.6717436072105727  1.0000
  H   H39       1.0  0.7946461031705141  0.2010037933582964  0.2871550331700022  1.0000
  H   H40       1.0  0.2053593421670001  0.701000059332408  0.7871559546223139  1.0000
  H   H41       1.0  0.0823933478229364  0.51620997836757  0.5130100019569781  1.0000
  H   H42       1.0  0.9175996790590517  0.0162041123269034  0.0130074984704649  1.0000
  H   H43       1.0  0.019607188973800805  0.49092100306439335  0.410064912203147  1.0000
  H   H44       1.0  0.9803749717595949  0.9909132690107825  0.9100614982815713  1.0000
  H   H45       1.0  0.041372084595821  0.3063093233362295  0.3907924884246157  1.0000
  H   H46       1.0  0.9586473315041673  0.8063055893103482  0.8907892369011208  1.0000
  H   H47       1.0  0.1025624719094438  0.3028428993069809  0.49480446131487094  1.0000
  H   H48       1.0  0.8974569441905446  0.8028487653476404  0.9948033879649786  1.0000
  C   C1        1.0  0.24979412835773473  0.6627805943950804  0.3352579164262934  1.0000
  C   C2        1.0  0.7502128692867274  0.16278592843205789  0.8352588483514154  1.0000
  C   C3        1.0  0.10943919165878671  0.6135746532994943  0.2811474746094973  1.0000
  C   C4        1.0  0.8905553875301422  0.1135767873142868  0.7811446997797519  1.0000
  C   C5        1.0  0.0954234122870474  0.6496877036351592  0.2039238321589139  1.0000
  C   C6        1.0  0.9045665099810593  0.1496946376832256  0.7039248290432667  1.0000
  C   C7        1.0  0.21852756194886785  0.7342106895484974  0.1807550648699419  1.0000
  C   C8        1.0  0.7814685695470021  0.2342216236242933  0.6807580125705854  1.0000
  C   C9        1.0  0.3592752323039364  0.7825078243442363  0.2348357635150791  1.0000
  C   C10       1.0  0.6407317653405258  0.2825187584200322  0.7348434803309374  1.0000
  C   C11       1.0  0.3761270764571734  0.7468531771862245  0.311718544727043  1.0000
  C   C12       1.0  0.6238768165734001  0.246858511223202  0.8117230534885707  1.0000
  C   C13       1.0  0.8336012458589508  0.6959272241675194  0.5625136511772624  1.0000
  C   C14       1.0  0.1663948856369259  0.1959277581712229  0.0625036577154674  1.0000
  C   C15       1.0  0.9677748963181971  0.7826390252537223  0.578618587102092  1.0000
  C   C16       1.0  0.0322088167221466  0.2826363592352408  0.0786060791642171  1.0000
  C   C17       1.0  0.9659990571775057  0.8351105889866021  0.6541980360235726  1.0000
  C   C18       1.0  0.0339939697044827  0.3351143230124904  0.1541863840620437  1.0000
  C   C19       1.0  0.8284149883685288  0.8030743669115097  0.7126138658772163  1.0000
  C   C20       1.0  0.1715842477412224  0.3030877010039461  0.21260141139227784  1.0000
  C   C21       1.0  0.6962313954078568  0.7162369649546392  0.6964895233069583  1.0000
  C   C22       1.0  0.3037554222463683  0.2162454990138016  0.1964828353383297  1.0000
  C   C23       1.0  0.6992692600917039  0.6618997882893325  0.6216373316930018  1.0000
  C   C24       1.0  0.3007175575625212  0.1618995222874915  0.1216326710061963  1.0000
  C   C25       1.0  0.3380194933586155  0.08675020135239461  0.48520620522267416  1.0000
  C   C26       1.0  0.6619875042858467  0.5867536673764207  0.9852115919673423  1.0000
  C   C27       1.0  0.3500545290734394  0.1194800282355573  0.566292501788979  1.0000
  C   C28       1.0  0.649950916264082  0.6194802942373983  0.0662977586151854  1.0000
  C   C29       1.0  0.4041695013492514  0.0453771145541566  0.6217837354445095  1.0000
  C   C30       1.0  0.5958343916813291  0.5453757805449087  0.121788331172084  1.0000
  C   C31       1.0  0.44824104771574724  0.9394729124262255  0.5967066203895824  1.0000
  C   C32       1.0  0.5517643976217741  0.4394718464188401  0.09670669633837291  1.0000
  C   C33       1.0  0.4348632664968264  0.9073206895470207  0.5159114406976215  1.0000
  C   C34       1.0  0.565148388068458  0.4073204235451726  0.0159133375442337  1.0000
  C   C35       1.0  0.3778253002508052  0.9803643958859922  0.459847832241401  1.0000
  C   C36       1.0  0.622194115849183  0.4803657298952402  0.9598497940472441  1.0000
  C   C37       1.0  0.8416546142696931  0.0821869697200768  0.374198030660061  1.0000
  C   C38       1.0  0.1583570402955914  0.5821856357108288  0.8742026263876284  1.0000
  C   C39       1.0  0.8698227760240016  0.9737027497074634  0.3874719293366057  1.0000
  C   C40       1.0  0.1301780123926974  0.4737016837000709  0.8874779666794055  1.0000
  C   C41       1.0  0.8735762542077269  0.8990446321773932  0.3224733680755136  1.0000
  C   C42       1.0  0.1264276388228538  0.399042766164456  0.8224817574963055  1.0000
  C   C43       1.0  0.8497312672845538  0.9328120662532413  0.24497803812626273  1.0000
  C   C44       1.0  0.150263311904375  0.4328078002236708  0.744982753271799  1.0000
  C   C45       1.0  0.8217198885313053  0.0412538859719405  0.23220198284828092  1.0000
  C   C46       1.0  0.17826227220209742  0.541250151946052  0.7322070772763994  1.0000
  C   C47       1.0  0.8167431924779436  0.1162848060862771  0.2966904807982189  1.0000
  C   C48       1.0  0.1832653574734593  0.6162810720603886  0.7966943829475355  1.0000
  C   C49       1.0  0.0524477946210027  0.5537486385855601  0.45653921749715215  1.0000
  C   C50       1.0  0.9475390230332223  0.0537411725338046  0.956538437469611  1.0000
  C   C51       1.0  0.0712865916589323  0.2536577583555797  0.4398447691819456  1.0000
  C   C52       1.0  0.9287235105994114  0.7536588243629723  0.9398452893725563  1.0000
  S   S1        1.0  0.2847412145240895  0.6262619412477761  0.4349371625803045  1.0000
  S   S2        1.0  0.7152533646648394  0.1262592752292946  0.9349377697092649  1.0000
  S   S3        1.0  0.8192113605143874  0.6356684064533908  0.4637101968963435  1.0000
  S   S4        1.0  0.18077856175371923  0.1356577403794574  0.963703325556324  1.0000
  S   S5        1.0  0.8397080213654746  0.1753364154320352  0.4585856241591557  1.0000
  S   S6        1.0  0.160302080892869  0.6753398814560612  0.9585892224856208  1.0000
  S   S7        1.0  0.2989510322634814  0.1775524307934475  0.408659496933332  1.0000
  S   S8        1.0  0.7010637269156845  0.6775502967786551  0.9086634640418794  1.0000
  Br  Br1       1.0  0.6579996277540019  0.40822282980065694  0.3243257331391547  1.0000
  Br  Br2       1.0  0.3420027129696379  0.9082190957747683  0.8243284430096764  1.0000
  Br  Br3       1.0  0.4654933870598087  0.4026395910976461  0.5553844536717847  1.0000
  Br  Br4       1.0  0.5345275813471204  0.9026382570883981  0.055378915029535805  1.0000
