data_image0
_chemical_formula_structural       Zn5H38C46S2N12O20
_chemical_formula_sum              "Zn5 H38 C46 S2 N12 O20"
_cell_length_a       10.558513705670187
_cell_length_b       12.501277310301154
_cell_length_c       14.568574162288629
_cell_angle_alpha    82.60156619029992
_cell_angle_beta     68.95349627097974
_cell_angle_gamma    64.77601948343833

_space_group_name_H-M_alt    "P 1"
_space_group_IT_number       1

loop_
  _space_group_symop_operation_xyz
  'x, y, z'

loop_
  _atom_site_type_symbol
  _atom_site_label
  _atom_site_symmetry_multiplicity
  _atom_site_fract_x
  _atom_site_fract_y
  _atom_site_fract_z
  _atom_site_occupancy
  Zn  Zn1       1.0  0.7544232583465489  0.5589452521141637  0.04411340758924341  1.0000
  Zn  Zn2       1.0  0.245573312899495  0.4410545255176642  0.9558869856871083  1.0000
  Zn  Zn3       1.0  0.7842810189882385  0.7970230366379738  0.9075584433041186  1.0000
  Zn  Zn4       1.0  0.21571701756334968  0.20297584663223484  0.09244166169887075  1.0000
  Zn  Zn5       1.0  0.5000002478932117  0.5000003756368796  0.9999989977693176  1.0000
  H   H1        1.0  0.4652475135816943  0.3024010196980526  0.9934664449963718  1.0000
  H   H2        1.0  0.5347522410480468  0.6976004931791876  0.006532244459314885  1.0000
  H   H3        1.0  0.948585004664814  0.6422878834343492  0.995254296655034  1.0000
  H   H4        1.0  0.05141463093359997  0.3577118591402879  0.004745985033593963  1.0000
  H   H5        1.0  0.5024053479220429  0.8846153124051097  0.9273745180400038  1.0000
  H   H6        1.0  0.4975908723495622  0.11538714778129126  0.07262087685074183  1.0000
  H   H7        1.0  0.5241356166488988  0.8876619859710001  0.03570680642215505  1.0000
  H   H8        1.0  0.4758581185008027  0.11234137841424999  0.9642891425147295  1.0000
  H   H9        1.0  0.5344093246017821  0.7365128162705473  0.674320929633012  1.0000
  H   H10       1.0  0.46559261811187724  0.26349041396174744  0.32567975042802993  1.0000
  H   H11       1.0  0.4948383837934071  0.7031761867233541  0.8534300798372385  1.0000
  H   H12       1.0  0.5051583113872838  0.2968253556655539  0.14656940693681253  1.0000
  H   H13       1.0  0.6721867542630875  0.33939090778439146  0.8132039230964239  1.0000
  H   H14       1.0  0.32781593097774936  0.66060881636961  0.18679418981254503  1.0000
  H   H15       1.0  0.6022211693240751  0.7032750689690913  0.3956362729295505  1.0000
  H   H16       1.0  0.39776994682690514  0.2967335415618563  0.6043673540478522  1.0000
  H   H17       1.0  0.14405478954009962  0.24452979535710986  0.8869061131481928  1.0000
  H   H18       1.0  0.855943356236196  0.755470869306734  0.11309102816056088  1.0000
  H   H19       1.0  0.7784274578979054  0.1462887903936121  0.9434529357251333  1.0000
  H   H20       1.0  0.22157366261931344  0.8537100356373486  0.05654980061272134  1.0000
  H   H21       1.0  0.8001050308490107  0.35469068657421576  0.17926141746087154  1.0000
  H   H22       1.0  0.19989137710032182  0.6453134662775708  0.8207419854259752  1.0000
  H   H23       1.0  0.7203474605952422  0.35711620196463656  0.6300395923103536  1.0000
  H   H24       1.0  0.27965752685753403  0.6428870153925317  0.36995823324038907  1.0000
  H   H25       1.0  0.848058833854673  0.7817483876080756  0.5381127239516059  1.0000
  H   H26       1.0  0.15195768224521092  0.2182379887283758  0.46188456250062154  1.0000
  H   H27       1.0  0.006094813473581027  0.4450905035425734  0.6739543988515917  1.0000
  H   H28       1.0  0.9939102023183963  0.5548985859207035  0.32605041294473125  1.0000
  H   H29       1.0  0.22807383664488154  0.893864070706293  0.808608246792751  1.0000
  H   H30       1.0  0.7719261352180239  0.10613300595032629  0.19139497608954054  1.0000
  H   H31       1.0  0.7551993627646709  0.8803901628415928  0.7036372072432894  1.0000
  H   H32       1.0  0.2448079062060913  0.11960247528001133  0.29636045988834775  1.0000
  H   H33       1.0  0.6448133222598219  0.7197226066276412  0.21501474505463136  1.0000
  H   H34       1.0  0.3551820462598982  0.28028157824343225  0.7849861806824164  1.0000
  H   H35       1.0  0.75438123215757  0.32531220543172157  0.35875636566185404  1.0000
  H   H36       1.0  0.24561880956797208  0.6746927925955645  0.6412459966344031  1.0000
  H   H37       1.0  0.9132821276953893  0.5574433997629242  0.8333091322695763  1.0000
  H   H38       1.0  0.0867168292544848  0.44255368118539445  0.1666950421161529  1.0000
  C   C1        1.0  0.8402671866156413  0.32638146303197146  0.9682756610805539  1.0000
  C   C2        1.0  0.1597295379849299  0.6736200460838475  0.0317279400773671  1.0000
  C   C3        1.0  0.5657110370352073  0.6473222466585111  0.7025100557101424  1.0000
  C   C4        1.0  0.43428816288063377  0.35267836934949764  0.2974916199403452  1.0000
  C   C5        1.0  0.5447765805094279  0.6285100158619129  0.8021242101858588  1.0000
  C   C6        1.0  0.45521968389200407  0.3714923944148509  0.1978773562806992  1.0000
  C   C7        1.0  0.9491365728852444  0.20912052596082728  0.9184815645125111  1.0000
  C   C8        1.0  0.050862255226668804  0.7908747957759273  0.08152283064486447  1.0000
  C   C9        1.0  0.6450068033788343  0.42505664060661974  0.7784093395529652  1.0000
  C   C10       1.0  0.35499587695868945  0.5749430890928906  0.22158808762536353  1.0000
  C   C11       1.0  0.6460456661575692  0.624534616320531  0.3499531857554317  1.0000
  C   C12       1.0  0.3539508510164636  0.37547131792488386  0.6500472534371793  1.0000
  C   C13       1.0  0.10219580696740141  0.1805514468330429  0.8816519723195597  1.0000
  C   C14       1.0  0.8978087743582395  0.8194465150714902  0.11834377262355386  1.0000
  C   C15       1.0  0.8971665210862768  0.12487574131972677  0.9131816750462888  1.0000
  C   C16       1.0  0.10283166391652561  0.8751248789799887  0.08682095210763653  1.0000
  C   C17       1.0  0.9976308203730043  0.0123414927145475  0.8719256173538313  1.0000
  C   C18       1.0  0.0023640977542031946  0.9876635822264388  0.12807464515314135  1.0000
  C   C19       1.0  0.7549921846980823  0.4300555772283658  0.2290465515160846  1.0000
  C   C20       1.0  0.24500172832271963  0.5699494909132881  0.7709560339556063  1.0000
  C   C21       1.0  0.2022238211411036  0.0675167757921287  0.8424639810553742  1.0000
  C   C22       1.0  0.797770938728263  0.9324865732103829  0.15753238783937457  1.0000
  C   C23       1.0  0.933607580945463  0.606203772022539  0.5944565596974698  1.0000
  C   C24       1.0  0.06640576157735018  0.39378085797747525  0.40554380203671053  1.0000
  C   C25       1.0  0.6694729798660647  0.4349017493855953  0.6781190287609106  1.0000
  C   C26       1.0  0.3305295175614874  0.565102377715931  0.3218786651053306  1.0000
  C   C27       1.0  0.8641021845702358  0.729899795353816  0.6022685245071668  1.0000
  C   C28       1.0  0.13590981167835994  0.2700874993104136  0.39773053326742047  1.0000
  C   C29       1.0  0.9448491743426287  0.9192144714217745  0.8697344043154444  1.0000
  C   C30       1.0  0.05515438716665953  0.08078350031997417  0.13026160640045248  1.0000
  C   C31       1.0  0.9513954422846425  0.5412147253727183  0.6782747319779288  1.0000
  C   C32       1.0  0.04860942995943422  0.4587726215155428  0.32172824339811257  1.0000
  C   C33       1.0  0.6775973569924859  0.5117023549903122  0.3903586256301138  1.0000
  C   C34       1.0  0.3224016551100775  0.4883026639652284  0.6096426309776388  1.0000
  C   C35       1.0  0.1509572552547881  0.9832391733183741  0.8371589161001791  1.0000
  C   C36       1.0  0.8490389650168099  0.016763286868034296  0.16283647879056662  1.0000
  C   C37       1.0  0.8132415796007137  0.784549255540533  0.6936919960176835  1.0000
  C   C38       1.0  0.186761159712141  0.21544431199988878  0.30630607097503315  1.0000
  C   C39       1.0  0.6709493365198115  0.6337434859076723  0.24972795228050865  1.0000
  C   C40       1.0  0.3290461706445029  0.3662624470839333  0.7502741241461732  1.0000
  C   C41       1.0  0.6266612960782041  0.548801370695898  0.6397546450245172  1.0000
  C   C42       1.0  0.3733405128941812  0.4512001058703489  0.36024557007753083  1.0000
  C   C43       1.0  0.7303014327042164  0.4135676467229104  0.3291320569597785  1.0000
  C   C44       1.0  0.2696926238644935  0.5864391639937664  0.6708723649322008  1.0000
  C   C45       1.0  0.8999359493980847  0.6026823616234437  0.7660128413853399  1.0000
  C   C46       1.0  0.10006782934437554  0.3973111738976911  0.23398770275716876  1.0000
  S   S1        1.0  0.3982472935352136  0.030423085996240194  0.8008246541632289  1.0000
  S   S2        1.0  0.6017479314366129  0.9695793562998105  0.19917443515353023  1.0000
  N   N1        1.0  0.5832616518372618  0.5198579281544369  0.8393973304198494  1.0000
  N   N2        1.0  0.41673753336863933  0.4801427044901202  0.16060228803870288  1.0000
  N   N3        1.0  0.7266575592674374  0.5379077651638724  0.19013769316431697  1.0000
  N   N4        1.0  0.2733378239622299  0.4620964030706458  0.8098652897646659  1.0000
  N   N5        1.0  0.8322318914999942  0.7220861580918195  0.7737584404759444  1.0000
  N   N6        1.0  0.16776951624857622  0.2779100574762694  0.22624037974912167  1.0000
  N   N7        1.0  0.6576193313119562  0.48866641429192714  0.49126514042415437  1.0000
  N   N8        1.0  0.3423782105817423  0.511339504570749  0.5087357187263137  1.0000
  N   N9        1.0  0.6455023272930093  0.5719148353034597  0.5391799217301027  1.0000
  N   N10       1.0  0.35450471450240423  0.42808834574270793  0.46081942946700144  1.0000
  N   N11       1.0  0.9848583800607857  0.5546791369616384  0.4997088818749303  1.0000
  N   N12       1.0  0.015154962462027369  0.4453054930383755  0.5002914798592428  1.0000
  O   O1        1.0  0.417058862878001  0.10914100128228196  0.8573974535043618  1.0000
  O   O2        1.0  0.5829373966201176  0.8908614145399979  0.14260342723154898  1.0000
  O   O3        1.0  0.44442708148881854  0.0474967448637926  0.6950635233396765  1.0000
  O   O4        1.0  0.5555701782123919  0.9525056833033219  0.30493434870086106  1.0000
  O   O5        1.0  0.4649474688305945  0.9047783661712359  0.8274290273528775  1.0000
  O   O6        1.0  0.5350562117100209  0.0952213758731162  0.17256539113007818  1.0000
  O   O7        1.0  0.8939023859195316  0.40031779519400584  0.9745524669410482  1.0000
  O   O8        1.0  0.10609853697777548  0.5996854448755187  0.025448478892776856  1.0000
  O   O9        1.0  0.7043909547606904  0.3471846708650331  0.002269564105304739  1.0000
  O   O10       1.0  0.29560664120501917  0.6528150913840561  0.9977312491288968  1.0000
  O   O11       1.0  0.43649815867367897  0.3831558180806525  0.9696449899463316  1.0000
  O   O12       1.0  0.5635030563583003  0.6168448059804846  0.030352725505352333  1.0000
  O   O13       1.0  0.8590002575248193  0.6573166030408543  0.9796262255708255  1.0000
  O   O14       1.0  0.14099924923563384  0.34268138032221873  0.020374276889455655  1.0000
  O   O15       1.0  0.5592507050083385  0.8430827603388732  0.9738370856867461  1.0000
  O   O16       1.0  0.4407456637144805  0.15692143687703458  0.026160831354935934  1.0000
  O   O17       1.0  0.8022401187106994  0.9478597776328641  0.9070455127314998  1.0000
  O   O18       1.0  0.197758007452336  0.052140909213036886  0.09294888565467826  1.0000
  O   O19       1.0  0.03701900221953748  0.8175957058386131  0.8347179441169243  1.0000
  O   O20       1.0  0.9629826287461969  0.18241016258412657  0.16528322340368343  1.0000
