data_image0
_chemical_formula_structural       Zn8H48C96N4O34
_chemical_formula_sum              "Zn8 H48 C96 N4 O34"
_cell_length_a       18.483608534823816
_cell_length_b       18.483556018765547
_cell_length_c       28.896565356244654
_cell_angle_alpha    108.62559261291051
_cell_angle_beta     108.62544245607175
_cell_angle_gamma    90.06689582041803

_space_group_name_H-M_alt    "P 1"
_space_group_IT_number       1

loop_
  _space_group_symop_operation_xyz
  'x, y, z'

loop_
  _atom_site_type_symbol
  _atom_site_label
  _atom_site_symmetry_multiplicity
  _atom_site_fract_x
  _atom_site_fract_y
  _atom_site_fract_z
  _atom_site_occupancy
  Zn  Zn1       1.0  0.4360516309972055  0.0221467342330399  0.0440856307192803  1.0000
  Zn  Zn2       1.0  0.022147344532221794  0.4360510572915857  0.04408559290132533  1.0000
  Zn  Zn3       1.0  0.6079290417440645  0.021893779067887906  0.0440576183830999  1.0000
  Zn  Zn4       1.0  0.02189445344860994  0.607929749344663  0.04405744988316234  1.0000
  Zn  Zn5       1.0  0.4779168087247284  0.8909115491581827  0.9556126847237536  1.0000
  Zn  Zn6       1.0  0.06465149196596093  0.4776978302386323  0.9556109312156451  1.0000
  Zn  Zn7       1.0  0.47769905723046685  0.0646516189753681  0.9556109054142253  1.0000
  Zn  Zn8       1.0  0.8909118215055399  0.4779165863411948  0.9556133603447988  1.0000
  H   H1        1.0  0.2114732687019867  0.30807239871398895  0.8918853480364176  1.0000
  H   H2        1.0  0.5838772797682238  0.21133348138921776  0.8919024416706874  1.0000
  H   H3        1.0  0.6804559070166575  0.5838680488857475  0.8919200186561865  1.0000
  H   H4        1.0  0.30803285022140153  0.6805748524717216  0.8919093328039978  1.0000
  H   H5        1.0  0.2113358622797463  0.5838752044073984  0.891902208152267  1.0000
  H   H6        1.0  0.5838676924897114  0.6804574116899785  0.8919210900779788  1.0000
  H   H7        1.0  0.6805761759204003  0.30803076561272735  0.891908925396585  1.0000
  H   H8        1.0  0.30807115525023215  0.21147309616855361  0.8918841019063493  1.0000
  H   H9        1.0  0.283192458011527  0.37975956325635707  0.9425362604112593  1.0000
  H   H10       1.0  0.562854891257018  0.28297881755248255  0.9425587804692697  1.0000
  H   H11       1.0  0.6593842746882783  0.5628311952810844  0.9425713872422675  1.0000
  H   H12       1.0  0.37970129918244316  0.6595268497837664  0.942554600343243  1.0000
  H   H13       1.0  0.2829821949344122  0.5628516255499388  0.9425581220883429  1.0000
  H   H14       1.0  0.5628313723679098  0.6593858397157887  0.9425722045540468  1.0000
  H   H15       1.0  0.6595289459561043  0.3796984519399869  0.94255486459285  1.0000
  H   H16       1.0  0.37975884918245123  0.2831919808348077  0.94253571656661  1.0000
  H   H17       1.0  0.84752347735224  0.44108421627227284  0.5486326321807268  1.0000
  H   H18       1.0  0.10750236123814717  0.7011044698283938  0.5485895561268066  1.0000
  H   H19       1.0  0.7010370942387283  0.10752568815170344  0.5485872686794409  1.0000
  H   H20       1.0  0.4411169567767885  0.8474591146618237  0.5486326071403766  1.0000
  H   H21       1.0  0.7670947705890255  0.15008431249916035  0.3013128961750056  1.0000
  H   H22       1.0  0.1512662951834685  0.5342749180792623  0.3013292849500147  1.0000
  H   H23       1.0  0.5342770887754539  0.15129176362391664  0.30132976899304253  1.0000
  H   H24       1.0  0.1501112169177644  0.767093596037661  0.30131419860088465  1.0000
  H   H25       1.0  0.7182237968485196  0.1014566552211846  0.2040981285142962  1.0000
  H   H26       1.0  0.10264494020557893  0.4859218252974528  0.20411765539022753  1.0000
  H   H27       1.0  0.4859212020451409  0.1026720111011059  0.2041180083710756  1.0000
  H   H28       1.0  0.101478864202555  0.7182249591320725  0.20409970683210324  1.0000
  H   H29       1.0  0.9653693596183217  0.3483677237546488  0.6979730549803449  1.0000
  H   H30       1.0  0.34953400983722815  0.732603723011408  0.6979842617267733  1.0000
  H   H31       1.0  0.7326027055680412  0.3495632012923549  0.6979848196642209  1.0000
  H   H32       1.0  0.3483971755517601  0.9653711842342289  0.6979731252829566  1.0000
  H   H33       1.0  0.01371661597699611  0.3969310514068951  0.7951283109365761  1.0000
  H   H34       1.0  0.3981539828218033  0.7814144948882386  0.7951426007507365  1.0000
  H   H35       1.0  0.7814135101660965  0.3981814257521135  0.7951430408597061  1.0000
  H   H36       1.0  0.3969612368882522  0.013718648152987742  0.7951287346470436  1.0000
  H   H37       1.0  0.2653829474150839  0.1703203175943813  0.056822938515580325  1.0000
  H   H38       1.0  0.8864859984388145  0.2654960280075612  0.05683683679098551  1.0000
  H   H39       1.0  0.7914618908927266  0.8865218631588901  0.05686981958280776  1.0000
  H   H40       1.0  0.17029434872057436  0.791268180504069  0.05683372982852573  1.0000
  H   H41       1.0  0.26549661410140857  0.8864846483474692  0.056836226143161625  1.0000
  H   H42       1.0  0.8865213290499838  0.7914612257009991  0.056869532972733366  1.0000
  H   H43       1.0  0.7912696083549661  0.17029420846381532  0.05683520333226262  1.0000
  H   H44       1.0  0.17032337926884364  0.2653832262357696  0.05682434726977449  1.0000
  H   H45       1.0  0.7984503762262561  0.39201498644241883  0.4504490336407798  1.0000
  H   H46       1.0  0.05846449097103347  0.6520737963124148  0.45040770996699553  1.0000
  H   H47       1.0  0.6520113600708938  0.05848797717811033  0.4504046999725162  1.0000
  H   H48       1.0  0.39204750731432364  0.7983779198962395  0.4504491113052326  1.0000
  C   C1        1.0  0.42944654801768667  0.9294338041060681  0.8588939461509212  1.0000
  C   C2        1.0  0.9294324418778074  0.4294439334287785  0.8588935696328406  1.0000
  C   C3        1.0  0.7636172488957624  0.26359055495689887  0.5271906125557138  1.0000
  C   C4        1.0  0.2635920309347028  0.7636212031374114  0.5271921322191488  1.0000
  C   C5        1.0  0.8163421401308284  0.3838711293736805  0.5267900188726385  1.0000
  C   C6        1.0  0.1428907300336633  0.7105062961759143  0.5267756369835794  1.0000
  C   C7        1.0  0.7104561662631284  0.1429089325567077  0.5267740150581943  1.0000
  C   C8        1.0  0.38389277802539823  0.816296395223219  0.5267901068308944  1.0000
  C   C9        1.0  0.7891019149037958  0.3566447299967308  0.4722936366892014  1.0000
  C   C10       1.0  0.11566267219322413  0.6832667118456185  0.4722827316636895  1.0000
  C   C11       1.0  0.6832201493018671  0.11567894735323132  0.4722809427152797  1.0000
  C   C12       1.0  0.35666897665856107  0.7890503208017136  0.4722930064983331  1.0000
  C   C13       1.0  0.7493732862165386  0.283594982186358  0.444953192546329  1.0000
  C   C14       1.0  0.16138507401953464  0.695655667963976  0.4449451777853072  1.0000
  C   C15       1.0  0.6956330569300487  0.16139201824984176  0.4449434402345744  1.0000
  C   C16       1.0  0.283609421118875  0.7493427675865973  0.4449528889466592  1.0000
  C   C17       1.0  0.7359899223099616  0.2359653434098447  0.4719143187980421  1.0000
  C   C18       1.0  0.23596941758007253  0.7359891618753166  0.4719153280635097  1.0000
  C   C19       1.0  0.7208667426997265  0.2561450958247276  0.38740870234757097  1.0000
  C   C20       1.0  0.13133208352667214  0.6666110503502408  0.3874075387159763  1.0000
  C   C21       1.0  0.6665928626670947  0.13133568825608663  0.38740505613688464  1.0000
  C   C22       1.0  0.2561586199419921  0.7208414916457285  0.3874093339766205  1.0000
  C   C23       1.0  0.705623784198053  0.13938401071398934  0.27976053860189853  1.0000
  C   C24       1.0  0.14043623150068638  0.5741843032959295  0.2797704748340308  1.0000
  C   C25       1.0  0.5741845699496224  0.14044939035547088  0.2797698350503738  1.0000
  C   C26       1.0  0.13939870250113268  0.7056242786284769  0.2797618402081596  1.0000
  C   C27       1.0  0.6785496941794732  0.11253257154853452  0.22580415727490785  1.0000
  C   C28       1.0  0.11331536102557747  0.5472976968053018  0.2258145881283724  1.0000
  C   C29       1.0  0.5472987991518466  0.11333288153826254  0.2258143834093715  1.0000
  C   C30       1.0  0.11254522649122828  0.6785485666492549  0.22580463449315855  1.0000
  C   C31       1.0  0.599313051660843  0.09932685938105827  0.19858910712812158  1.0000
  C   C32       1.0  0.09932462832004059  0.5993132339305163  0.19858886253002342  1.0000
  C   C33       1.0  0.6532098600639955  0.15323572506871835  0.3063694312421105  1.0000
  C   C34       1.0  0.15323740496881297  0.6532076066182456  0.3063696279559878  1.0000
  C   C35       1.0  0.5703180914222584  0.07035311662460222  0.14064856868316158  1.0000
  C   C36       1.0  0.07035206262202108  0.5703185196191143  0.14064860527859932  1.0000
  C   C37       1.0  0.9254193939878801  0.3591999209564917  0.7195107603271182  1.0000
  C   C38       1.0  0.3602457279937639  0.7940877569555197  0.7195191451797172  1.0000
  C   C39       1.0  0.7940874111853019  0.360260216634316  0.7195189330634264  1.0000
  C   C40       1.0  0.35921923606728257  0.9254216757822745  0.7195119262268362  1.0000
  C   C41       1.0  0.9523082018737553  0.3863269676197375  0.7734934250749035  1.0000
  C   C42       1.0  0.3871101378828996  0.8211777403070071  0.7734963702194264  1.0000
  C   C43       1.0  0.8211761217601036  0.387124508335482  0.7734962120238363  1.0000
  C   C44       1.0  0.3863433538493835  0.9523106101598272  0.7734937125013771  1.0000
  C   C45       1.0  0.900408635464913  0.40039119853390276  0.8008263083784825  1.0000
  C   C46       1.0  0.4003932195141288  0.9004096357897139  0.8008265311895144  1.0000
  C   C47       1.0  0.846403391604447  0.3463678823045199  0.6928165687421313  1.0000
  C   C48       1.0  0.34637040966931204  0.8464054146110057  0.6928169301771874  1.0000
  C   C49       1.0  0.3614568177373698  0.8625631291876417  0.0002297729753095875  1.0000
  C   C50       1.0  0.13770641283926469  0.3613598304278369  0.00017880338059232683  1.0000
  C   C51       1.0  0.6387103493877289  0.13761932045544262  0.00019056219579027006  1.0000
  C   C52       1.0  0.8624867302954726  0.6388408598640966  0.0002269915865227038  1.0000
  C   C53       1.0  0.3613578310493466  0.13770302245853128  0.00017641318481052912  1.0000
  C   C54       1.0  0.13762041799402167  0.6387087979390317  0.00018996994909061636  1.0000
  C   C55       1.0  0.6388419985215774  0.8624873386857956  0.00022766938645446647  1.0000
  C   C56       1.0  0.8625654569946447  0.36145409898565367  0.00022976810683417702  1.0000
  C   C57       1.0  0.29335393346562466  0.23995279531872138  0.9685999740928324  1.0000
  C   C58       1.0  0.7287045323611067  0.29335528368496  0.9686253404150023  1.0000
  C   C59       1.0  0.6752833040021144  0.7286786093863283  0.9686485712194681  1.0000
  C   C60       1.0  0.23990263289052646  0.6752525839205247  0.9686215252596924  1.0000
  C   C61       1.0  0.29335846032349616  0.7287024276480378  0.9686258224642827  1.0000
  C   C62       1.0  0.7286783262341316  0.6752831644780455  0.9686483559058842  1.0000
  C   C63       1.0  0.6752545602018286  0.23989884434908487  0.9686207663321297  1.0000
  C   C64       1.0  0.2399543282363368  0.2933538364201452  0.9686006156765004  1.0000
  C   C65       1.0  0.3043579049760011  0.19436828465656905  0.9999292637805937  1.0000
  C   C66       1.0  0.8055993487628966  0.30440402097521957  0.9999647552345508  1.0000
  C   C67       1.0  0.6956035740303504  0.80558984031002  0.9999839050897918  1.0000
  C   C68       1.0  0.19432415214099308  0.6955272878217752  0.9999537957798877  1.0000
  C   C69       1.0  0.3044069067953359  0.8055980100002387  0.9999652798714962  1.0000
  C   C70       1.0  0.8055892552984287  0.6956032617180267  0.9999838256439587  1.0000
  C   C71       1.0  0.6955293816223004  0.19432113139126236  0.9999531659726981  1.0000
  C   C72       1.0  0.1943707563663963  0.30435892355181665  0.9999305310453863  1.0000
  C   C73       1.0  0.2583141292401337  0.20502062803280552  0.031798336376240924  1.0000
  C   C74       1.0  0.8267603293791195  0.25836929760848903  0.03182666443831291  1.0000
  C   C75       1.0  0.7734999077239946  0.8267944771155982  0.0318580871015612  1.0000
  C   C76       1.0  0.2050160957878191  0.773411644889748  0.0318214792434759  1.0000
  C   C77       1.0  0.25837122567244103  0.8267584440566581  0.031826820682447035  1.0000
  C   C78       1.0  0.8267938867236919  0.7734994834454909  0.031857800852662904  1.0000
  C   C79       1.0  0.7734130936208315  0.2050140349065046  0.03182205109442285  1.0000
  C   C80       1.0  0.20502212377201795  0.2583135058191388  0.031798804648914804  1.0000
  C   C81       1.0  0.2588971626047964  0.31937002003737547  0.9286947808652499  1.0000
  C   C82       1.0  0.6093850067083223  0.2587677182261172  0.9287135725003067  1.0000
  C   C83       1.0  0.6698488741970506  0.609370988295815  0.9287309608490232  1.0000
  C   C84       1.0  0.3193378227847674  0.6699345032896102  0.9287205282552762  1.0000
  C   C85       1.0  0.2587708713635378  0.60938279512591  0.9287137992642656  1.0000
  C   C86       1.0  0.6093714895352986  0.6698501961111415  0.928731264652363  1.0000
  C   C87       1.0  0.669935924726161  0.3193343632070974  0.9287197292405691  1.0000
  C   C88       1.0  0.31936932792696376  0.258896043404796  0.928693963622564  1.0000
  C   C89       1.0  0.7786653858278852  0.24342089439971185  0.6116891197676749  1.0000
  C   C90       1.0  0.3682440163123529  0.8330047271629653  0.6117036025224535  1.0000
  C   C91       1.0  0.8330248824841674  0.3682307420133738  0.6117029302475601  1.0000
  C   C92       1.0  0.24341260025025238  0.778694782255826  0.6116901229357906  1.0000
  C   C93       1.0  0.8039623884112286  0.3381815286302866  0.5541613291920839  1.0000
  C   C94       1.0  0.21594831452047455  0.7502255591071145  0.5541452927297499  1.0000
  C   C95       1.0  0.750196949008746  0.21595747121950376  0.554144864566716  1.0000
  C   C96       1.0  0.3381946917387282  0.8039391907832325  0.5541622837712126  1.0000
  N   N1        1.0  0.8184042743474008  0.3183769094147024  0.6368175643239056  1.0000
  N   N2        1.0  0.3183789259074956  0.8184077534555028  0.6368181300989731  1.0000
  N   N3        1.0  0.6811970473290856  0.18120901388073207  0.3623312043429792  1.0000
  N   N4        1.0  0.18121244098082195  0.6811930819589449  0.3623320999311305  1.0000
  O   O1        1.0  0.49969190698638505  0.9997070709797167  0.9994586228699801  1.0000
  O   O2        1.0  0.9997076335722497  0.4996915637082396  0.999459031079951  1.0000
  O   O3        1.0  0.44051705720592327  0.0022759495861633177  0.8812922748918695  1.0000
  O   O4        1.0  0.8789640965267936  0.44077834077290856  0.8812899424670776  1.0000
  O   O5        1.0  0.4407774489221906  0.8789640949307581  0.8812897066981691  1.0000
  O   O6        1.0  0.0022748067013083346  0.44051439015002086  0.8812924559407449  1.0000
  O   O7        1.0  0.4975017597158595  0.059278327762747586  0.11824871767971959  1.0000
  O   O8        1.0  0.0592747108806364  0.49750314383818056  0.11824848445900932  1.0000
  O   O9        1.0  0.6207200700037275  0.05901544869142576  0.11822769990949669  1.0000
  O   O10       1.0  0.059017280084063393  0.6207220047485151  0.1182279964162518  1.0000
  O   O11       1.0  0.3985845489968725  0.8376497414714946  0.9688485004725678  1.0000
  O   O12       1.0  0.13119668817349608  0.39839946843192536  0.9687266400887324  1.0000
  O   O13       1.0  0.5702040916010346  0.13121532343266262  0.9688251534890779  1.0000
  O   O14       1.0  0.8375394744736012  0.5703480717454423  0.9687949828595066  1.0000
  O   O15       1.0  0.39839857933266387  0.13119465133991762  0.9687254392809449  1.0000
  O   O16       1.0  0.1312150033339137  0.5702024512540758  0.9688238346198614  1.0000
  O   O17       1.0  0.5703491635462613  0.8375405852554251  0.9687953680331775  1.0000
  O   O18       1.0  0.8376505076525617  0.398582880736974  0.9688487818598688  1.0000
  O   O19       1.0  0.6627957536022391  0.10043850246362503  0.031480295991059414  1.0000
  O   O20       1.0  0.9309181039605929  0.6629356648076764  0.03159992781439773  1.0000
  O   O21       1.0  0.36865236601167345  0.9310077256926235  0.03154228802818443  1.0000
  O   O22       1.0  0.10064223204453528  0.3686122704791401  0.03155192997082422  1.0000
  O   O23       1.0  0.662936557626125  0.9309182211042285  0.031601112348028045  1.0000
  O   O24       1.0  0.9310095800400616  0.3686504408397014  0.03154149678100986  1.0000
  O   O25       1.0  0.36860839598185885  0.10063779161598772  0.03154906053624979  1.0000
  O   O26       1.0  0.1004398115236995  0.6627934043525272  0.0314798526083848  1.0000
  O   O27       1.0  0.7690311800514563  0.20397654880947855  0.6367636704569292  1.0000
  O   O28       1.0  0.43277091735657075  0.8676661978751881  0.6367905336219977  1.0000
  O   O29       1.0  0.8677066398633  0.4327494801396198  0.6367890802578485  1.0000
  O   O30       1.0  0.20396081517476722  0.769078871411402  0.636766655935233  1.0000
  O   O31       1.0  0.7304184214166723  0.29561653254029346  0.362323353818006  1.0000
  O   O32       1.0  0.06681242552088663  0.6319476295996153  0.36232210235630186  1.0000
  O   O33       1.0  0.6319122324216051  0.0668233709691818  0.3623201539896712  1.0000
  O   O34       1.0  0.29563676580252707  0.7303729489117146  0.3623247709338315  1.0000
