data_image0
_chemical_formula_structural       Cd2H28C38N16O12
_chemical_formula_sum              "Cd2 H28 C38 N16 O12"
_cell_length_a       9.683895151230454
_cell_length_b       9.75558354014326
_cell_length_c       11.167871565212405
_cell_angle_alpha    80.40410427324471
_cell_angle_beta     88.59023140302386
_cell_angle_gamma    89.27479907310358

_space_group_name_H-M_alt    "P 1"
_space_group_IT_number       1

loop_
  _space_group_symop_operation_xyz
  'x, y, z'

loop_
  _atom_site_type_symbol
  _atom_site_label
  _atom_site_symmetry_multiplicity
  _atom_site_fract_x
  _atom_site_fract_y
  _atom_site_fract_z
  _atom_site_occupancy
  Cd  Cd1       1.0  0.7031160370079163  0.8697940113751345  0.25787752292347926  1.0000
  Cd  Cd2       1.0  0.2968842184750216  0.13020608776435696  0.7421215700592115  1.0000
  H   H1        1.0  0.37322183051845303  0.8676881022623634  0.2663502116235604  1.0000
  H   H2        1.0  0.6267763473307612  0.13231303084731394  0.7336487757015674  1.0000
  H   H3        1.0  0.0557570536349985  0.42585962655731197  0.24308867652326427  1.0000
  H   H4        1.0  0.9442432371912873  0.5741373536857283  0.7569108631401703  1.0000
  H   H5        1.0  0.16625092877298903  0.2800554614301021  0.22808861158714677  1.0000
  H   H6        1.0  0.8337493384910603  0.7199435980772364  0.7719106302891274  1.0000
  H   H7        1.0  0.80924111203273  0.42372909251520263  0.37142150008711633  1.0000
  H   H8        1.0  0.1907591171037879  0.5762730780655334  0.6285799825746989  1.0000
  H   H9        1.0  0.4499934047280548  0.27666511977037084  0.4603824069125863  1.0000
  H   H10       1.0  0.5500068625360015  0.723333939736975  0.539616834963688  1.0000
  H   H11       1.0  0.16804090661519666  0.9846914031402534  0.34619771725263593  1.0000
  H   H12       1.0  0.8319583032322556  0.015309730192719006  0.6538021442765823  1.0000
  H   H13       1.0  0.6415344304793038  0.1520096243376443  0.3709410249680404  1.0000
  H   H14       1.0  0.35846378456938055  0.8479883950909511  0.629056617393644  1.0000
  H   H15       1.0  0.6719981766466533  0.45516640113092416  0.5581481487585052  1.0000
  H   H16       1.0  0.3280020543459798  0.544835774665181  0.4418515422591155  1.0000
  H   H17       1.0  0.7588367708537902  0.37048571978935746  0.7618148398285384  1.0000
  H   H18       1.0  0.2411645048462674  0.6295154192055821  0.23818497846465894  1.0000
  H   H19       1.0  0.9880949004348167  0.24897202968571014  0.7917490667279949  1.0000
  H   H20       1.0  0.011906399755538599  0.7510270326526084  0.2082501535302654  1.0000
  H   H21       1.0  0.5908312624357279  0.1291347631364133  0.03560148280759279  1.0000
  H   H22       1.0  0.409167934702545  0.8708674072210274  0.9643991256501393  1.0000
  H   H23       1.0  0.9048244771905587  0.5284329583935449  0.07988239707056974  1.0000
  H   H24       1.0  0.09517267208897813  0.47156711139151514  0.9201239273429349  1.0000
  H   H25       1.0  0.7042306828701896  0.5616254265104673  0.9440482523798578  1.0000
  H   H26       1.0  0.2957705791926273  0.4383767469012483  0.0559532086639507  1.0000
  H   H27       1.0  0.550147966793773  0.36754202780904427  0.9234869129449662  1.0000
  H   H28       1.0  0.4498543300514656  0.6324601536490208  0.0765127348366335  1.0000
  C   C1        1.0  0.8612441441209242  0.30650094598506444  0.1333955702899416  1.0000
  C   C2        1.0  0.1387519632353786  0.6935001684242227  0.8666079393817012  1.0000
  C   C3        1.0  0.8403035493069739  0.44097667523802647  0.06932212592869998  1.0000
  C   C4        1.0  0.15969462204581217  0.5590244396178508  0.9306831321511166  1.0000
  C   C5        1.0  0.7272887140832438  0.45833504697883853  0.9939528378338309  1.0000
  C   C6        1.0  0.27271047034584944  0.5416681604030559  0.006048517552415008  1.0000
  C   C7        1.0  0.638777227802315  0.3471235511377986  0.9821755457870791  1.0000
  C   C8        1.0  0.36122404604162023  0.6528775826417645  0.017826064150313008  1.0000
  C   C9        1.0  0.6602045116411759  0.2136442864488117  0.0443868313780058  1.0000
  C   C10       1.0  0.33979572927646023  0.7863568444997712  0.9556148001774004  1.0000
  C   C11       1.0  0.7739881957572122  0.19485511654380622  0.12096621524158019  1.0000
  C   C12       1.0  0.22600895630651513  0.8051449610643148  0.8790374217056396  1.0000
  C   C13       1.0  0.0692022127527423  0.31285287105315973  0.2682633517507966  1.0000
  C   C14       1.0  0.9307980662924322  0.6871451488220331  0.7317360390190616  1.0000
  C   C15       1.0  0.9736160128381927  0.3151402155335604  0.48025147000845436  1.0000
  C   C16       1.0  0.026382213063555992  0.6848567616552045  0.519747217068911  1.0000
  C   C17       1.0  0.8477609127902284  0.3854920482026857  0.4618081340161807  1.0000
  C   C18       1.0  0.1522383079102809  0.6145080428904495  0.5381927722287115  1.0000
  C   C19       1.0  0.7730118699364681  0.40452699204164594  0.5661057658348624  1.0000
  C   C20       1.0  0.22698837190922916  0.5954741415146217  0.43389496989843923  1.0000
  C   C21       1.0  0.8228919469761065  0.35560807039609443  0.6832699621165615  1.0000
  C   C22       1.0  0.17710934050506918  0.644392028966692  0.3167300050702195  1.0000
  C   C23       1.0  0.9496779134670276  0.2867340960608189  0.7011168478765697  1.0000
  C   C24       1.0  0.050322342015910196  0.7132660030786654  0.29888224510612094  1.0000
  C   C25       1.0  0.025493840267621706  0.2668424912743462  0.5969488210224794  1.0000
  C   C26       1.0  0.9745064269964345  0.7331565682329926  0.4030504208537947  1.0000
  C   C27       1.0  0.17579695349716218  0.2060670376463564  0.4657240230322016  1.0000
  C   C28       1.0  0.8242043339840137  0.7939330617164304  0.5342759441545722  1.0000
  C   C29       1.0  0.2934384697747205  0.13922300962206444  0.4114230767232455  1.0000
  C   C30       1.0  0.7065607645630294  0.8607760470542947  0.5885761867710427  1.0000
  C   C31       1.0  0.428203524025811  0.18691150350076677  0.41794669733952355  1.0000
  C   C32       1.0  0.5717946566075867  0.8130896374319648  0.582049602519312  1.0000
  C   C33       1.0  0.5354041627459765  0.11694180332662543  0.3682036567080615  1.0000
  C   C34       1.0  0.4645940386654672  0.8830572505187535  0.6317956284042338  1.0000
  C   C35       1.0  0.38527646922268843  0.9595047935463941  0.3086791477733398  1.0000
  C   C36       1.0  0.6147248173304263  0.04049530320870791  0.6913217152355385  1.0000
  C   C37       1.0  0.27157709576306394  0.024034530938138208  0.35452115445005455  1.0000
  C   C38       1.0  0.7284242025711691  0.9759645261848181  0.6454798574524075  1.0000
  N   N1        1.0  0.7304546749213259  0.8292441955348127  0.0018611404494067025  1.0000
  N   N2        1.0  0.2695455678524254  0.17075694062913982  0.9981386994617978  1.0000
  N   N3        1.0  0.6004511409540143  0.5855615525634192  0.2943298666139142  1.0000
  N   N4        1.0  0.3995511930907086  0.41443751521357103  0.7056684362042346  1.0000
  N   N5        1.0  0.820605146842624  0.07958103342456722  0.1984128739996436  1.0000
  N   N6        1.0  0.17939302915046804  0.9204200944697408  0.8015879049696792  1.0000
  N   N7        1.0  0.9284591770562187  0.11189581669605532  0.25602348300538574  1.0000
  N   N8        1.0  0.07154006999071777  0.8881022029558358  0.7439750335603819  1.0000
  N   N9        1.0  0.9540007133272753  0.2479402038379277  0.21854488495051774  1.0000
  N   N10       1.0  0.04599955208065859  0.7520588504540415  0.7814561485699514  1.0000
  N   N11       1.0  0.0714792468299237  0.2756476784871823  0.3989021009325809  1.0000
  N   N12       1.0  0.9285209968718962  0.724353460284462  0.6010968431565259  1.0000
  N   N13       1.0  0.152239561467745  0.20090598266193646  0.5841777065285427  1.0000
  N   N14       1.0  0.8477596846511233  0.7990920343822696  0.41582170585932227  1.0000
  N   N15       1.0  0.515145057584121  0.004252176421530901  0.31616564228929883  1.0000
  N   N16       1.0  0.48485521060798936  0.9957468856934925  0.683832703764878  1.0000
  O   O1        1.0  0.550949601908556  0.46644768103526263  0.30744490007020886  1.0000
  O   O2        1.0  0.4490475529393477  0.5335524043959126  0.6925560494107116  1.0000
  O   O3        1.0  0.7214217214975847  0.6115237170400791  0.24889262359054234  1.0000
  O   O4        1.0  0.2785816879575976  0.38847118200087055  0.751110732294421  1.0000
  O   O5        1.0  0.5305938273077045  0.6869362017296156  0.3268765583496815  1.0000
  O   O6        1.0  0.46940949717915  0.3130670404453753  0.6731166481656385  1.0000
  O   O7        1.0  0.84860079939115  0.8163714528688645  0.04741043942353681  1.0000
  O   O8        1.0  0.15139944338260142  0.18362968329508794  0.9525894004876676  1.0000
  O   O9        1.0  0.6274793687253464  0.8686698898371438  0.06513799282940615  1.0000
  O   O10       1.0  0.37252089761064167  0.1313291670625176  0.9348621448689657  1.0000
  O   O11       1.0  0.7073131736336721  0.8052607625775468  0.8975174926906957  1.0000
  O   O12       1.0  0.2926891349926919  0.19474037924836554  0.10248230398448749  1.0000
