data_image0
_chemical_formula_structural       Cu2Si2H48C80N8F12
_chemical_formula_sum              "Cu2 Si2 H48 C80 N8 F12"
_cell_length_a       8.04983580615306
_cell_length_b       20.596328517396284
_cell_length_c       20.59638534317846
_cell_angle_alpha    93.68217592357769
_cell_angle_beta     89.99955943137424
_cell_angle_gamma    90.00057166341018

_space_group_name_H-M_alt    "P 1"
_space_group_IT_number       1

loop_
  _space_group_symop_operation_xyz
  'x, y, z'

loop_
  _atom_site_type_symbol
  _atom_site_label
  _atom_site_symmetry_multiplicity
  _atom_site_fract_x
  _atom_site_fract_y
  _atom_site_fract_z
  _atom_site_occupancy
  Cu  Cu1       1.0  0.7499973690990273  0.6750384522307868  0.675041492387777  1.0000
  Cu  Cu2       1.0  0.24999982548828112  0.3249615565673736  0.3249599389715385  1.0000
  Si  Si1       1.0  0.24999710912452144  0.6752052827798067  0.6752035669323178  1.0000
  Si  Si2       1.0  0.7500025699749243  0.3247942392302221  0.3247983184183667  1.0000
  H   H1        1.0  0.0084419194897905  0.7790303066669965  0.6775172336068067  1.0000
  H   H2        1.0  0.5084336199270115  0.22098874054693596  0.3224890761616379  1.0000
  H   H3        1.0  0.991565002596907  0.322480439892196  0.2209857184970971  1.0000
  H   H4        1.0  0.4915538472451502  0.6775209556417321  0.7790286650496583  1.0000
  H   H5        1.0  0.9915676978515151  0.22098769943887925  0.3224931316910968  1.0000
  H   H6        1.0  0.49155860581100097  0.779028782444591  0.6775149460854593  1.0000
  H   H7        1.0  0.0084384031224474  0.6775156695387138  0.7790285694070249  1.0000
  H   H8        1.0  0.5084321669414891  0.3224848848410673  0.220985282071986  1.0000
  H   H9        1.0  0.0190387068380957  0.8996626800073031  0.6759832345737777  1.0000
  H   H10       1.0  0.519049687740825  0.10036030378689283  0.3240150441207987  1.0000
  H   H11       1.0  0.9809535603554239  0.324017106446604  0.10035823042374399  1.0000
  H   H12       1.0  0.48094249642711884  0.6759925183322081  0.8996601169149017  1.0000
  H   H13       1.0  0.9809572457405693  0.10035679095766883  0.3240175151738427  1.0000
  H   H14       1.0  0.4809562030042757  0.899661116223505  0.6759804910987127  1.0000
  H   H15       1.0  0.0190349382714672  0.6759858122237431  0.8996603826833721  1.0000
  H   H16       1.0  0.5190472445852875  0.3240191588997661  0.1003571213534542  1.0000
  H   H17       1.0  0.018028830403757502  0.1145149940102073  0.6687108722416042  1.0000
  H   H18       1.0  0.5180309511059492  0.8854817163918509  0.33128036717710063  1.0000
  H   H19       1.0  0.9819646449199696  0.33128558329116936  0.8854774520818012  1.0000
  H   H20       1.0  0.48197368951468894  0.6687114024957734  0.11452745001592747  1.0000
  H   H21       1.0  0.9819671219217413  0.8854806389520177  0.3312849349730769  1.0000
  H   H22       1.0  0.4819749394984569  0.11452365111965428  0.6687087876521218  1.0000
  H   H23       1.0  0.018028822828114195  0.6687110190107075  0.11452521522654278  1.0000
  H   H24       1.0  0.5180309585695609  0.3312822817211084  0.8854730861958869  1.0000
  H   H25       1.0  0.018186921478893205  0.23500342507837485  0.6643301750523634  1.0000
  H   H26       1.0  0.5181660337807373  0.7649962068963416  0.3356578544836992  1.0000
  H   H27       1.0  0.9818279849527158  0.33565777561110366  0.764992322713951  1.0000
  H   H28       1.0  0.481833325079684  0.6643309376238307  0.2350139861171314  1.0000
  H   H29       1.0  0.9818276648403809  0.7649931844203336  0.3356593835917749  1.0000
  H   H30       1.0  0.4818510372536693  0.2350120821882058  0.6643271198459928  1.0000
  H   H31       1.0  0.018166724932584106  0.6643300681338146  0.2350117194296857  1.0000
  H   H32       1.0  0.5181663538864568  0.3356578805112703  0.7649876915149463  1.0000
  H   H33       1.0  0.019213244302129298  0.4499161367342594  0.6661527825190418  1.0000
  H   H34       1.0  0.5192204987223475  0.5500859291373884  0.3338402567171741  1.0000
  H   H35       1.0  0.9807853173099871  0.33383622914190164  0.5500846886021549  1.0000
  H   H36       1.0  0.48078650917918253  0.6661558874520849  0.4499189306828271  1.0000
  H   H37       1.0  0.9807914039985662  0.550087283603709  0.3338381882912245  1.0000
  H   H38       1.0  0.4807866340827758  0.44991360057395713  0.6661475489783726  1.0000
  H   H39       1.0  0.0192118771520597  0.6661545348343267  0.4499176005790346  1.0000
  H   H40       1.0  0.5192119275884508  0.3338397410084467  0.5500851301132386  1.0000
  H   H41       1.0  0.008484073993791698  0.5710781684900822  0.6711294994309185  1.0000
  H   H42       1.0  0.5084784236324111  0.42892385704399766  0.328863569735816  1.0000
  H   H43       1.0  0.9915233017090089  0.3288588776540137  0.42892264403441516  1.0000
  H   H44       1.0  0.49150983199402276  0.6711254948153423  0.571080441171297  1.0000
  H   H45       1.0  0.9915243010804107  0.42892476506208493  0.3288619253689831  1.0000
  H   H46       1.0  0.4915075906916115  0.571075670507035  0.6711281200291025  1.0000
  H   H47       1.0  0.008488799830956902  0.671127021073019  0.571079330024368  1.0000
  H   H48       1.0  0.5084799088447127  0.32886186265760387  0.4289230839641149  1.0000
  C   C1        1.0  0.8946479365419079  0.8076355728665162  0.6773113645916594  1.0000
  C   C2        1.0  0.39464956894570236  0.192381032993147  0.3226941018588079  1.0000
  C   C3        1.0  0.10535217745844959  0.3226890127997351  0.1923785531884405  1.0000
  C   C4        1.0  0.6053471908895461  0.6773177443197724  0.8076349207138378  1.0000
  C   C5        1.0  0.10535422723154401  0.19238048843988048  0.32269644715102425  1.0000
  C   C6        1.0  0.6053488680710046  0.8076345436340799  0.6773102798439722  1.0000
  C   C7        1.0  0.8946400479999356  0.6773139085284113  0.8076352048635657  1.0000
  C   C8        1.0  0.3946487614372813  0.32269101614325996  0.19237775893995487  1.0000
  C   C9        1.0  0.8995693929251799  0.8749232674983244  0.6764533071469856  1.0000
  C   C10       1.0  0.399570549414122  0.1250919023054777  0.323542826457988  1.0000
  C   C11       1.0  0.10042976314403523  0.3235445978857711  0.1250891363415647  1.0000
  C   C12       1.0  0.6004184726284691  0.6764621425821814  0.8749209527580747  1.0000
  C   C13       1.0  0.10043152862914441  0.12508842035785514  0.3235445109061387  1.0000
  C   C14       1.0  0.6004266453867614  0.8749207596594599  0.6764531126006901  1.0000
  C   C15       1.0  0.8995574932572127  0.6764573503775962  0.8749245586970459  1.0000
  C   C16       1.0  0.3995662993781721  0.3235461334527655  0.1250878113612117  1.0000
  C   C17       1.0  0.7500003376153898  0.9103890773707304  0.6757727838618379  1.0000
  C   C18       1.0  0.2500005839852335  0.0896221268735999  0.324219662126211  1.0000
  C   C19       1.0  0.24999962824831096  0.3242254593248433  0.0896194875724134  1.0000
  C   C20       1.0  0.7499876282759885  0.6757847612351779  0.9103923156140112  1.0000
  C   C21       1.0  0.7499974941283438  0.9789082027424953  0.6740331541119318  1.0000
  C   C22       1.0  0.2500021852408025  0.021101544567144997  0.3259543422974502  1.0000
  C   C23       1.0  0.25000031879982026  0.3259579922812036  0.021100710945063394  1.0000
  C   C24       1.0  0.7499894221383842  0.6740439567820788  0.9789115275751071  1.0000
  C   C25       1.0  0.7499943152305519  0.0380249278481273  0.6718485363251361  1.0000
  C   C26       1.0  0.250000395047941  0.961985789326661  0.3281448491714016  1.0000
  C   C27       1.0  0.2500011027788247  0.32813585001515116  0.9619797860721276  1.0000
  C   C28       1.0  0.7499960915898355  0.6718534501366377  0.03803017665843098  1.0000
  C   C29       1.0  0.7500001752784442  0.10641320977826037  0.6691497800461903  1.0000
  C   C30       1.0  0.24999701951108474  0.893596534345754  0.3308435424265568  1.0000
  C   C31       1.0  0.24999683525997812  0.3308365365449219  0.8935907143653381  1.0000
  C   C32       1.0  0.7499991168323205  0.669150331761173  0.10641763430116667  1.0000
  C   C33       1.0  0.9012235887921348  0.14119637247907943  0.6677667064195347  1.0000
  C   C34       1.0  0.401208346035645  0.8588061553790565  0.3322256903022662  1.0000
  C   C35       1.0  0.09879038143709101  0.3322234107101777  0.8588027951734246  1.0000
  C   C36       1.0  0.5987795264292899  0.6677672695094826  0.1412038311357975  1.0000
  C   C37       1.0  0.0987885130293265  0.858807045222086  0.3322291194302522  1.0000
  C   C38       1.0  0.5987851219478486  0.14120018410422827  0.667765469584559  1.0000
  C   C39       1.0  0.9012217201211782  0.6677663786481388  0.14120234399660345  1.0000
  C   C40       1.0  0.40120897215139445  0.33222154674905363  0.8588012450468128  1.0000
  C   C41       1.0  0.9014580052812349  0.2082489345200287  0.665350923722194  1.0000
  C   C42       1.0  0.40143356629496196  0.7917521380645025  0.33463506626350176  1.0000
  C   C43       1.0  0.0985662169475319  0.33463192820951077  0.7917474660909462  1.0000
  C   C44       1.0  0.5985577190266798  0.6653519408445374  0.2082567776776969  1.0000
  C   C45       1.0  0.0985627924094601  0.7917510820097962  0.3346364279594738  1.0000
  C   C46       1.0  0.5985698398341269  0.20825323209313498  0.6653492335192652  1.0000
  C   C47       1.0  0.9014434000357524  0.6653515376091689  0.20825483592546584  1.0000
  C   C48       1.0  0.4014332640299756  0.33463298319689727  0.7917480464201391  1.0000
  C   C49       1.0  0.750019339532834  0.24289315116207183  0.6643321909476754  1.0000
  C   C50       1.0  0.2499964891419637  0.7571073532115379  0.3356527647261274  1.0000
  C   C51       1.0  0.2499957434661013  0.3356465981836933  0.7571044294870788  1.0000
  C   C52       1.0  0.7500014509024454  0.6643363813490096  0.2428973555315039  1.0000
  C   C53       1.0  0.7500189738836623  0.3114454506566701  0.6633205653574663  1.0000
  C   C54       1.0  0.24999809714589113  0.6885565175437094  0.3366567167652406  1.0000
  C   C55       1.0  0.24999518279410896  0.33664641137793433  0.6885547057253163  1.0000
  C   C56       1.0  0.750002011455024  0.6633278098605615  0.3114479686252949  1.0000
  C   C57       1.0  0.7500060535885568  0.3707967937329854  0.6639177922730752  1.0000
  C   C58       1.0  0.25000480606339437  0.6292032256940415  0.3360642188675484  1.0000
  C   C59       1.0  0.24999699678816253  0.3360540948713009  0.6291996163897693  1.0000
  C   C60       1.0  0.7500014398270808  0.6639245080348954  0.3707980009956842  1.0000
  C   C61       1.0  0.749994481107926  0.4395338277342019  0.665858938822879  1.0000
  C   C62       1.0  0.25000644045278625  0.5604681364596472  0.3341256258972081  1.0000
  C   C63       1.0  0.25000012769255875  0.3341254958673261  0.5604636314852129  1.0000
  C   C64       1.0  0.7500020357389727  0.6658589432578735  0.43953824805692676  1.0000
  C   C65       1.0  0.8998824445012232  0.4748925513327293  0.66718448657317  1.0000
  C   C66       1.0  0.399889808766993  0.5251119173745238  0.3328085254018234  1.0000
  C   C67       1.0  0.1001141690205287  0.3328084640370362  0.525111201962261  1.0000
  C   C68       1.0  0.600115420432438  0.6671817354468245  0.47489393261427887  1.0000
  C   C69       1.0  0.10011847701174757  0.5251113549958007  0.3328074867624338  1.0000
  C   C70       1.0  0.6001160817530645  0.4748876110090875  0.6671817078204114  1.0000
  C   C71       1.0  0.8998817831589889  0.6671813263512547  0.4748919952103207  1.0000
  C   C72       1.0  0.3998830162895429  0.33281048705458  0.5251103931156322  1.0000
  C   C73       1.0  0.8947527315117371  0.5423670456677455  0.6699178118783138  1.0000
  C   C74       1.0  0.3947534738339229  0.45763545790710225  0.330074602861707  1.0000
  C   C75       1.0  0.10525154369204161  0.3300773604841821  0.4576356011429255  1.0000
  C   C76       1.0  0.6052478204314085  0.669911398710127  0.5423694245872497  1.0000
  C   C77       1.0  0.10525191677363921  0.4576358876123408  0.3300740984317656  1.0000
  C   C78       1.0  0.6052486899206715  0.542366016315313  0.6699162419113662  1.0000
  C   C79       1.0  0.8947493775011707  0.6699109695350456  0.5423689580072093  1.0000
  C   C80       1.0  0.394748131760899  0.33007985099625603  0.4576343526208078  1.0000
  N   N1        1.0  0.7499998443036873  0.774493674717398  0.6775539045054302  1.0000
  N   N2        1.0  0.2499985926425623  0.22551800836266975  0.3224526526409903  1.0000
  N   N3        1.0  0.24999952185270763  0.32244592149143597  0.22551598516825774  1.0000
  N   N4        1.0  0.749998914951533  0.6775574882316631  0.7744944058503194  1.0000
  N   N5        1.0  0.7499973888755989  0.5755103981343196  0.6713629942929771  1.0000
  N   N6        1.0  0.2500022903289291  0.4244915607555909  0.3286312805286684  1.0000
  N   N7        1.0  0.24999890067584823  0.32863706709963475  0.42449115063050863  1.0000
  N   N8        1.0  0.7500007783180819  0.671355642196907  0.5755127211028466  1.0000
  F   F1        1.0  0.46550833710878686  0.6751940157622796  0.6751937711799698  1.0000
  F   F2        1.0  0.9655175248505685  0.32480728826759275  0.3248090328636408  1.0000
  F   F3        1.0  0.534487615223  0.3248064795612676  0.3248076916912481  1.0000
  F   F4        1.0  0.034485881065492704  0.675196125175958  0.675194561078129  1.0000
  F   F5        1.0  0.24999196489361714  0.6144918362645625  0.6144935038432351  1.0000
  F   F6        1.0  0.7499990183036259  0.38550281965668626  0.3855095229329066  1.0000
  F   F7        1.0  0.24999334853046662  0.6182119570505691  0.7321254431853177  1.0000
  F   F8        1.0  0.7500075728139136  0.38178659164127277  0.2678768646482936  1.0000
  F   F9        1.0  0.7500012941086922  0.2678704517140387  0.38178927278508457  1.0000
  F   F10       1.0  0.2500008694907621  0.732123234618811  0.6182073793902703  1.0000
  F   F11       1.0  0.25000225334837006  0.7359114358856116  0.7359049037840961  1.0000
  F   F12       1.0  0.750002394845815  0.26409100609531316  0.2640957141056646  1.0000
