data_image0
_chemical_formula_structural       Cu12H16C16Br4N24
_chemical_formula_sum              "Cu12 H16 C16 Br4 N24"
_cell_length_a       7.256468612114865
_cell_length_b       8.637728071933655
_cell_length_c       14.198177841319206
_cell_angle_alpha    85.45029713519845
_cell_angle_beta     83.68831746853114
_cell_angle_gamma    81.34759519095583

_space_group_name_H-M_alt    "P 1"
_space_group_IT_number       1

loop_
  _space_group_symop_operation_xyz
  'x, y, z'

loop_
  _atom_site_type_symbol
  _atom_site_label
  _atom_site_symmetry_multiplicity
  _atom_site_fract_x
  _atom_site_fract_y
  _atom_site_fract_z
  _atom_site_occupancy
  Cu  Cu1       1.0  0.3568780266561403  0.906331589714661  0.8165544964419951  1.0000
  Cu  Cu2       1.0  0.6431256187286535  0.09366810754490021  0.1834439531814951  1.0000
  Cu  Cu3       1.0  0.20338942196060833  0.4888478649900208  0.022970061545976313  1.0000
  Cu  Cu4       1.0  0.7966114657681939  0.5111518233833224  0.9770299590460922  1.0000
  Cu  Cu5       1.0  0.5253071110399503  0.15296416581108474  0.690357467458746  1.0000
  Cu  Cu6       1.0  0.47469118587461867  0.8470343724068387  0.30964205056563543  1.0000
  Cu  Cu7       1.0  0.7096438146883415  0.40951800340867095  0.5691446628324782  1.0000
  Cu  Cu8       1.0  0.2903527175842483  0.5904828771091318  0.4308555619124661  1.0000
  Cu  Cu9       1.0  0.8195089629767978  0.9294398627458379  0.7880108847773714  1.0000
  Cu  Cu10      1.0  0.18049231925441228  0.07055746818375042  0.2119899188844627  1.0000
  Cu  Cu11      1.0  0.8876290576297237  0.8586993661012555  0.34259450309306777  1.0000
  Cu  Cu12      1.0  0.11236886215927906  0.14130150815888956  0.6574056404736268  1.0000
  H   H1        1.0  0.1918583859910257  0.11962143776243292  0.010416981603263804  1.0000
  H   H2        1.0  0.8081440821611848  0.8803770709817585  0.9895829971924144  1.0000
  H   H3        1.0  0.4258164672779187  0.4581252534230203  0.8244306620933982  1.0000
  H   H4        1.0  0.5741826384320703  0.5418767986517353  0.1755686566071475  1.0000
  H   H5        1.0  0.6547195141471603  0.8511269923402196  0.5473940119707237  1.0000
  H   H6        1.0  0.3452787914558256  0.1488715351769372  0.4526062103597043  1.0000
  H   H7        1.0  0.8929776432689209  0.21156848724633903  0.3845536840151524  1.0000
  H   H8        1.0  0.10701311996579929  0.7884336237758804  0.6154447131427859  1.0000
  H   H9        1.0  0.37164288136456486  0.6140439375688589  0.6822842648575006  1.0000
  H   H10       1.0  0.6283575771081686  0.3859581510512983  0.3177121554406312  1.0000
  H   H11       1.0  0.9520715870906427  0.6166822692224728  0.666320110227936  1.0000
  H   H12       1.0  0.04793146847097059  0.3833127087064697  0.3336806910193744  1.0000
  H   H13       1.0  0.9592501725290815  0.5576301585736232  0.21891377095751352  1.0000
  H   H14       1.0  0.0407508994183061  0.44236836712899225  0.7810855847103753  1.0000
  H   H15       1.0  0.3042905327529012  0.829203948813742  0.03935632675935352  1.0000
  H   H16       1.0  0.6957077902269192  0.17079455730188195  0.96064530418316  1.0000
  C   C1        1.0  0.2679084427712866  0.1739985331596898  0.9496703159416171  1.0000
  C   C2        1.0  0.7320922433621105  0.8260023392859142  0.0503289609625455  1.0000
  C   C3        1.0  0.38493838412946957  0.34781723337812315  0.8545604015343714  1.0000
  C   C4        1.0  0.6150666574601402  0.6521824469230212  0.14543867121691528  1.0000
  C   C5        1.0  0.699326089207126  0.9638213582402811  0.525416362042499  1.0000
  C   C6        1.0  0.30067062728404176  0.03617835960679371  0.4745831977782657  1.0000
  C   C7        1.0  0.8198760219673815  0.1475830605911312  0.4417197026896389  1.0000
  C   C8        1.0  0.18011791949097497  0.8524166697712589  0.5582800194876114  1.0000
  C   C9        1.0  0.5065501609239789  0.6478342946835626  0.6911124025113865  1.0000
  C   C10       1.0  0.4934517024419946  0.3521677662774111  0.3088853452205882  1.0000
  C   C11       1.0  0.8023581785824304  0.6498810951297925  0.6831501740717201  1.0000
  C   C12       1.0  0.19764447378835828  0.35011625094367116  0.3168491397997784  1.0000
  C   C13       1.0  0.03688602662450786  0.6511620316910156  0.1901301581894259  1.0000
  C   C14       1.0  0.9631162573091244  0.34883763972390375  0.8098704855304392  1.0000
  C   C15       1.0  0.21068998878066478  0.7907745955258749  0.09853078428274391  1.0000
  C   C16       1.0  0.7893115495902305  0.20922973727272884  0.9014718148278078  1.0000
  Br  Br1       1.0  0.10704189010381525  0.7372948783430717  0.8587862743646042  1.0000
  Br  Br2       1.0  0.892962227979126  0.2627023651658434  0.14121929708304037  1.0000
  Br  Br3       1.0  0.7634914365712431  0.5934512710772637  0.40941528995185195  1.0000
  Br  Br4       1.0  0.23650705325032817  0.4065460937691655  0.5905842674543891  1.0000
  N   N1        1.0  0.34030807517839895  0.10268348045529051  0.8712359820627711  1.0000
  N   N2        1.0  0.6596926109549912  0.8973173919903132  0.12876329484139157  1.0000
  N   N3        1.0  0.29319528094976016  0.32748572199232484  0.9422491068190268  1.0000
  N   N4        1.0  0.7068083644350335  0.6725139752672437  0.057749342804463324  1.0000
  N   N5        1.0  0.415568876894234  0.21507940454522873  0.810106537384705  1.0000
  N   N6        1.0  0.5844333896625642  0.7849202882712234  0.18989269772307438  1.0000
  N   N7        1.0  0.6609864602890241  0.09107420665334592  0.5755115710517487  1.0000
  N   N8        1.0  0.3390102475137267  0.9089255218944958  0.42448728446296974  1.0000
  N   N9        1.0  0.7985056459473937  0.994381646839102  0.4409935228647726  1.0000
  N   N10       1.0  0.2014894901203732  0.005619250637117504  0.5590060787523754  1.0000
  N   N11       1.0  0.7388876909031764  0.2096503790095596  0.5214621297992039  1.0000
  N   N12       1.0  0.2611090168995815  0.7903493495382748  0.4785367257155215  1.0000
  N   N13       1.0  0.6726142910340228  0.571047487818035  0.6545481434287835  1.0000
  N   N14       1.0  0.32738657931795245  0.4289522219568411  0.3454504685511992  1.0000
  N   N15       1.0  0.5308898627589754  0.7681979948391702  0.7394718710606226  1.0000
  N   N16       1.0  0.4691137826258113  0.23180170242039116  0.2605265785628674  1.0000
  N   N17       1.0  0.7217504010293609  0.7699578782470057  0.7341488258050788  1.0000
  N   N18       1.0  0.2782520584344326  0.23004064119795234  0.2658504486845601  1.0000
  N   N19       1.0  0.027538261604355747  0.7864845865254397  0.23048729891044673  1.0000
  N   N20       1.0  0.9724598684684692  0.21351509296168564  0.7695142926502001  1.0000
  N   N21       1.0  0.1497295723978667  0.6486064466337497  0.10751537544287258  1.0000
  N   N22       1.0  0.8502737306150151  0.3513955438649746  0.892486516947109  1.0000
  N   N23       1.0  0.14058719308094672  0.8762086946452216  0.1716770744574418  1.0000
  N   N24       1.0  0.8594088039127354  0.12379565248324549  0.8283265536721346  1.0000
