data_image0
_chemical_formula_structural       Zn2H50C68N10O10
_chemical_formula_sum              "Zn2 H50 C68 N10 O10"
_cell_length_a       11.17969578084422
_cell_length_b       11.369749746437977
_cell_length_c       13.52078846431827
_cell_angle_alpha    116.30567171937193
_cell_angle_beta     92.91619141486605
_cell_angle_gamma    97.34368239977043

_space_group_name_H-M_alt    "P 1"
_space_group_IT_number       1

loop_
  _space_group_symop_operation_xyz
  'x, y, z'

loop_
  _atom_site_type_symbol
  _atom_site_label
  _atom_site_symmetry_multiplicity
  _atom_site_fract_x
  _atom_site_fract_y
  _atom_site_fract_z
  _atom_site_occupancy
  Zn  Zn1       1.0  0.02344087256014404  0.4592742715220057  0.17127708518850684  1.0000
  Zn  Zn2       1.0  0.9765581445594052  0.5407275301543847  0.828722858115519  1.0000
  H   H1        1.0  0.19364770535983672  0.43207161922892834  0.9906759661525584  1.0000
  H   H2        1.0  0.8063453476421785  0.5679321891218693  0.009323013700772322  1.0000
  H   H3        1.0  0.02187985905160161  0.12996875475235473  0.060390353882709726  1.0000
  H   H4        1.0  0.9781303015010607  0.870029946251158  0.9396088564260126  1.0000
  H   H5        1.0  0.16435751384753422  0.017106558449391712  0.888870127541722  1.0000
  H   H6        1.0  0.8356547143224448  0.9828991896155801  0.11113462680540925  1.0000
  H   H7        1.0  0.4211652672138158  0.1447625199665552  0.9111303839456966  1.0000
  H   H8        1.0  0.5788425739072167  0.8552441307979282  0.08887010645502617  1.0000
  H   H9        1.0  0.5760776970211552  0.15165278594627551  0.7869038899308691  1.0000
  H   H10       1.0  0.4239243521054235  0.8483458812107187  0.2130913370657339  1.0000
  H   H11       1.0  0.1734076087249861  0.2971934711767048  0.7595595545646816  1.0000
  H   H12       1.0  0.8265928888142184  0.7028063455535476  0.24044046972877461  1.0000
  H   H13       1.0  0.6216127231284005  0.0008316242064197039  0.5463968090729594  1.0000
  H   H14       1.0  0.3783847329108029  0.9991661609084019  0.45360016854694857  1.0000
  H   H15       1.0  0.7591472639553345  0.06734913870307933  0.5159100878321752  1.0000
  H   H16       1.0  0.2408516470223176  0.9326466158672276  0.48408547397600904  1.0000
  H   H17       1.0  0.618623025453573  0.05407361984662632  0.44092900837949145  1.0000
  H   H18       1.0  0.38137572517216267  0.9459211397565145  0.55906619291099  1.0000
  H   H19       1.0  0.18430074486579437  0.39198336036243125  0.6040028825658581  1.0000
  H   H20       1.0  0.815697137049689  0.6080114537445669  0.39599378871361784  1.0000
  H   H21       1.0  0.17035503079668501  0.6105446465316504  0.5909361916875611  1.0000
  H   H22       1.0  0.8296430082230941  0.38945630587816293  0.4090678546900364  1.0000
  H   H23       1.0  0.037504908367409925  0.6595061663930651  0.436780410425385  1.0000
  H   H24       1.0  0.9624955222211682  0.3404986796769124  0.5632228864456295  1.0000
  H   H25       1.0  0.08074757405559302  0.9718599451899692  0.34125688862989995  1.0000
  H   H26       1.0  0.9192464368408937  0.02814396825125701  0.6587458600384225  1.0000
  H   H27       1.0  0.31332158581354014  0.9151940016824796  0.023120128832800946  1.0000
  H   H28       1.0  0.6866815103917149  0.0848049301592368  0.9768841057827871  1.0000
  H   H29       1.0  0.1860065984112254  0.17202190348491805  0.32803112282873315  1.0000
  H   H30       1.0  0.8139850793435742  0.8279789288698536  0.6719667486593153  1.0000
  H   H31       1.0  0.4052575326249084  0.35112599907559894  0.12260238769538032  1.0000
  H   H32       1.0  0.5947444166051313  0.6488769304457876  0.8774032353667778  1.0000
  H   H33       1.0  0.6291507995082456  0.4258011230148285  0.13525372356911447  1.0000
  H   H34       1.0  0.37084826857370967  0.5742007698583009  0.8647492133371985  1.0000
  H   H35       1.0  0.7031555664494107  0.12462612618490712  0.22799214977639082  1.0000
  H   H36       1.0  0.2968470401765515  0.8753756626687164  0.772008649176776  1.0000
  H   H37       1.0  0.43228419730499473  0.39576101574003536  0.36976773272424174  1.0000
  H   H38       1.0  0.5677118037957456  0.6042387999193012  0.6302306607073761  1.0000
  H   H39       1.0  0.5755866875158375  0.2935844388502034  0.43973621606474467  1.0000
  H   H40       1.0  0.4244102916846659  0.7064162260757102  0.5602580742933015  1.0000
  H   H41       1.0  0.6982962981475469  0.23748675192096175  0.6910497165115147  1.0000
  H   H42       1.0  0.301700225478399  0.7625109737017938  0.30894498909454177  1.0000
  H   H43       1.0  0.7001214104506631  0.2903290752305239  0.5870500827863481  1.0000
  H   H44       1.0  0.29987960961374693  0.7096686514631545  0.4129462536815468  1.0000
  H   H45       1.0  0.2092172637621275  0.7163419677705747  0.03818372883670659  1.0000
  H   H46       1.0  0.7907795985841587  0.2836570720079409  0.9618218148950392  1.0000
  H   H47       1.0  0.22330912543597486  0.3415651414868322  0.26352542710029075  1.0000
  H   H48       1.0  0.776688875361998  0.658435742525434  0.7364763740756006  1.0000
  H   H49       1.0  0.48132223565262683  0.052238407234853  0.21947053872264632  1.0000
  H   H50       1.0  0.5186813703372197  0.947758411771105  0.7805292596668142  1.0000
  C   C1        1.0  0.1668724173933214  0.3355911685616562  0.9881219574470634  1.0000
  C   C2        1.0  0.8331226130723625  0.6644085192080597  0.011871918768989142  1.0000
  C   C3        1.0  0.07948219405716368  0.17483421033221452  0.019927882756768205  1.0000
  C   C4        1.0  0.9205265625194485  0.825166612412538  0.9800757369659507  1.0000
  C   C5        1.0  0.1504130617817907  0.11906464654431663  0.9365413117364627  1.0000
  C   C6        1.0  0.8496051177651154  0.8809390720470633  0.06346365766080442  1.0000
  C   C7        1.0  0.2900388848860089  0.21969216516561837  0.8409078562694887  1.0000
  C   C8        1.0  0.7099640839132276  0.7803065386842577  0.15908889434040674  1.0000
  C   C9        1.0  0.40190740968745325  0.1779959725351361  0.8486553918723132  1.0000
  C   C10       1.0  0.5980974154147775  0.8220086922122861  0.1513435486559942  1.0000
  C   C11       1.0  0.48887613114078493  0.18201835620507012  0.7794069763339736  1.0000
  C   C12       1.0  0.5111253699793893  0.8179823553901288  0.2205904416870582  1.0000
  C   C13       1.0  0.4610926903249678  0.22905394594493336  0.7028080733238868  1.0000
  C   C14       1.0  0.5389087853140069  0.7709467200518958  0.29718784789600516  1.0000
  C   C15       1.0  0.34821924534454507  0.2726672139071767  0.6961498286283927  1.0000
  C   C16       1.0  0.6517786238303387  0.7273275774006366  0.30384609425051684  1.0000
  C   C17       1.0  0.2616073792886198  0.26761653248597383  0.7655166711633472  1.0000
  C   C18       1.0  0.7383899291392595  0.7323802804608591  0.23448069433941043  1.0000
  C   C19       1.0  0.6629875757219991  0.07624934252159933  0.5229981848191301  1.0000
  C   C20       1.0  0.3370127105028757  0.9237493880447403  0.47699848535433625  1.0000
  C   C21       1.0  0.26927648203751187  0.3707221362779052  0.5689596417581413  1.0000
  C   C22       1.0  0.7307196242356682  0.6292727184392534  0.43103772429763154  1.0000
  C   C23       1.0  0.1608958847561297  0.5628128344271133  0.5009040039170429  1.0000
  C   C24       1.0  0.839097324380738  0.4371861041782524  0.49909694216271566  1.0000
  C   C25       1.0  0.09464953485972673  0.5852338541576999  0.4244619081556422  1.0000
  C   C26       1.0  0.9053483183269292  0.4147660576865776  0.5755402809031056  1.0000
  C   C27       1.0  0.07879635198834481  0.7152141129579164  0.20429925171269056  1.0000
  C   C28       1.0  0.921199577944684  0.28478486732853275  0.7957040200052035  1.0000
  C   C29       1.0  0.13228710098989893  0.9610138765749666  0.27227372234055736  1.0000
  C   C30       1.0  0.8677080823630021  0.03898608478496611  0.7277291346823347  1.0000
  C   C31       1.0  0.2632490063947158  0.9269119019635353  0.0931228773932418  1.0000
  C   C32       1.0  0.7367529003964394  0.07308509444769132  0.9068821061759281  1.0000
  C   C33       1.0  0.25587078532758056  0.053987342539237225  0.17551409922658223  1.0000
  C   C34       1.0  0.7441276413466794  0.946010570465198  0.8244873956088838  1.0000
  C   C35       1.0  0.1902899847876895  0.07206123446018611  0.2647898714388646  1.0000
  C   C36       1.0  0.8097030512566548  0.9279366863788212  0.7352099657226104  1.0000
  C   C37       1.0  0.47160572067843987  0.3019823045270514  0.14516832000718694  1.0000
  C   C38       1.0  0.5283946674712467  0.6980166084327664  0.8548343373708392  1.0000
  C   C39       1.0  0.5957875991397259  0.3430501050062419  0.15220262941024035  1.0000
  C   C40       1.0  0.40421576680697063  0.6569507255730899  0.8477993326384947  1.0000
  C   C41       1.0  0.6372842148824064  0.17325862149528604  0.20419216248666322  1.0000
  C   C42       1.0  0.3627189779717597  0.8267411913176803  0.7958086906437885  1.0000
  C   C43       1.0  0.6801740232322614  0.2788070752568573  0.18126803086994417  1.0000
  C   C44       1.0  0.3198287819674236  0.7211957769614872  0.8187353738026459  1.0000
  C   C45       1.0  0.8143016574072846  0.3183457520846603  0.18596753000480257  1.0000
  C   C46       1.0  0.18569918631696689  0.6816561001783089  0.8140347121252206  1.0000
  C   C47       1.0  0.3013864796648917  0.3996550711102315  0.4828423994863158  1.0000
  C   C48       1.0  0.698612562935864  0.6003467761645355  0.5171590406188571  1.0000
  C   C49       1.0  0.4098334664793555  0.3701935456426001  0.43594683345155977  1.0000
  C   C50       1.0  0.5901673135418903  0.629808192624445  0.5640516666756171  1.0000
  C   C51       1.0  0.4913216120772502  0.3141403478720336  0.4760423082173092  1.0000
  C   C52       1.0  0.508677206468569  0.6858603904396291  0.5239550293673005  1.0000
  C   C53       1.0  0.4624301809252176  0.2896305578182421  0.5652149749120525  1.0000
  C   C54       1.0  0.5375686918306357  0.7103651283545176  0.4347783416944253  1.0000
  C   C55       1.0  0.6532358289377171  0.21630687701909326  0.6095161078495651  1.0000
  C   C56       1.0  0.34676339000318285  0.7836908446863832  0.3904794265934797  1.0000
  C   C57       1.0  0.3500140786734178  0.31410640032181203  0.6097946384997003  1.0000
  C   C58       1.0  0.6499850053967648  0.6858903720148535  0.3902020322267746  1.0000
  C   C59       1.0  0.20537493839827195  0.8163922980792364  0.10193417370610548  1.0000
  C   C60       1.0  0.794623885423441  0.18360774165465443  0.8980725325682074  1.0000
  C   C61       1.0  0.19125907388229993  0.4229748738805554  0.33029663329541137  1.0000
  C   C62       1.0  0.8087363919526426  0.5770270090161704  0.6697046995611943  1.0000
  C   C63       1.0  0.1399011286626006  0.8324961688478111  0.19167634354101892  1.0000
  C   C64       1.0  0.8600946663997107  0.16750186206983392  0.8083280644603053  1.0000
  C   C65       1.0  0.43075979085494254  0.1963670364981667  0.16872828258225073  1.0000
  C   C66       1.0  0.569243414739823  0.8036327991139843  0.8312733189487674  1.0000
  C   C67       1.0  0.5135081834266444  0.13180791291984661  0.19857290917085635  1.0000
  C   C68       1.0  0.48649487455680446  0.8681909505243155  0.8014290802430253  1.0000
  N   N1        1.0  0.09100050698557285  0.3094910388014257  0.051339658495869904  1.0000
  N   N2        1.0  0.9090017407147359  0.6905086917202895  0.9486581742201566  1.0000
  N   N3        1.0  0.20548286909242822  0.22258287649553676  0.9175942974677157  1.0000
  N   N4        1.0  0.7945212221702674  0.7774227921245471  0.08240497676615631  1.0000
  N   N5        1.0  0.5290640347695472  0.24128774219683183  0.6239502298613502  1.0000
  N   N6        1.0  0.4709360528816049  0.7587099250047874  0.3760438345927002  1.0000
  N   N7        1.0  0.22203055518436796  0.45960632288922204  0.4399905129390335  1.0000
  N   N8        1.0  0.7779674328730054  0.5403945383238594  0.5600105398362843  1.0000
  N   N9        1.0  0.11417992012660962  0.4973094297066538  0.31888589163771996  1.0000
  N   N10       1.0  0.8858167733442315  0.5026944570181088  0.6811169374670244  1.0000
  O   O1        1.0  0.30708939179440625  0.16748766066199045  0.16736594497082544  1.0000
  O   O2        1.0  0.69291398689289  0.8325131927165189  0.8326367654784761  1.0000
  O   O3        1.0  0.8864426053856178  0.2517694002345294  0.20321712845904474  1.0000
  O   O4        1.0  0.11355818737622773  0.7482323608317004  0.7967821200686985  1.0000
  O   O5        1.0  0.8466424159752108  0.4228053851010786  0.17059820219417085  1.0000
  O   O6        1.0  0.15335574517468595  0.5771964938783612  0.8294039594994304  1.0000
  O   O7        1.0  0.09176272557986212  0.5988868240574022  0.1284878306578037  1.0000
  O   O8        1.0  0.9082332755208783  0.40111299160192715  0.8715105627738142  1.0000
  O   O9        1.0  0.021259879154328597  0.7333616050345525  0.2858712578125662  1.0000
  O   O10       1.0  0.9787342751363968  0.2666374158620642  0.7141327086816177  1.0000
