data_image0
_chemical_formula_structural       Na4H40C16N20O16
_chemical_formula_sum              "Na4 H40 C16 N20 O16"
_cell_length_a       8.32581319900107
_cell_length_b       9.493346801403598
_cell_length_c       10.805924593205456
_cell_angle_alpha    90.94694169959459
_cell_angle_beta     89.99999814678577
_cell_angle_gamma    90.00005806198601

_space_group_name_H-M_alt    "P 1"
_space_group_IT_number       1

loop_
  _space_group_symop_operation_xyz
  'x, y, z'

loop_
  _atom_site_type_symbol
  _atom_site_label
  _atom_site_symmetry_multiplicity
  _atom_site_fract_x
  _atom_site_fract_y
  _atom_site_fract_z
  _atom_site_occupancy
  Na  Na1       1.0  0.5447665189534804  0.9135651715200123  0.6407847206931763  1.0000
  Na  Na2       1.0  0.04476682910323861  0.08643511636751812  0.8592158649786938  1.0000
  Na  Na3       1.0  0.4552336520801817  0.08643364103032519  0.35921501437572095  1.0000
  Na  Na4       1.0  0.9552345430154932  0.9135657961089406  0.140784838368468  1.0000
  H   H1        1.0  0.24214497865786197  0.8317628981215603  0.7553233044389814  1.0000
  H   H2        1.0  0.7421450041496557  0.16823757227746935  0.7446763538546721  1.0000
  H   H3        1.0  0.7578551923770149  0.16823802140789468  0.244676473613076  1.0000
  H   H4        1.0  0.25785516688461746  0.8317622937624235  0.2553234027057982  1.0000
  H   H5        1.0  0.3581384263609523  0.7896434423523997  0.8613004310542538  1.0000
  H   H6        1.0  0.858138505208821  0.21035713115815463  0.6386992260152199  1.0000
  H   H7        1.0  0.6418617446733209  0.21035642368750018  0.13869932550621664  1.0000
  H   H8        1.0  0.1418616658260845  0.789643795424837  0.3612996267417188  1.0000
  H   H9        1.0  0.23278979618828544  0.9268329441421699  0.5325180549003009  1.0000
  H   H10       1.0  0.7327897019756409  0.07316645739749107  0.9674825072956282  1.0000
  H   H11       1.0  0.7672103748459593  0.07316691484418669  0.467482626955288  1.0000
  H   H12       1.0  0.267210469058  0.9268323480993104  0.032518153068380705  1.0000
  H   H13       1.0  0.27325141241315276  0.0683320167567487  0.6077055408340969  1.0000
  H   H14       1.0  0.7732511119953714  0.9316695277299868  0.8922950639179633  1.0000
  H   H15       1.0  0.7267499597055791  0.931668895719703  0.3922951625130651  1.0000
  H   H16       1.0  0.22674905903948434  0.06833138474592458  0.1077056394292057  1.0000
  H   H17       1.0  0.97870704615913  0.4538434565084087  0.7525045415428481  1.0000
  H   H18       1.0  0.47870909331903283  0.5461572100745046  0.7474969648443874  1.0000
  H   H19       1.0  0.021294325959601706  0.5461574559680429  0.24749616180431397  1.0000
  H   H20       1.0  0.5212934798829708  0.45384264891291787  0.2525037170111943  1.0000
  H   H21       1.0  0.1455126962409778  0.3454402023312894  0.7237366889155156  1.0000
  H   H22       1.0  0.6455132820121251  0.654558068134797  0.7762638527099313  1.0000
  H   H23       1.0  0.8544886758771713  0.6545596637091434  0.2762630676449548  1.0000
  H   H24       1.0  0.354489291188635  0.3454396768199715  0.22373771145759494  1.0000
  H   H25       1.0  0.5498121056764234  0.6181372638829712  0.462666019502649  1.0000
  H   H26       1.0  0.04981277133803991  0.38186181991330403  0.03733291222518181  1.0000
  H   H27       1.0  0.45018205993846294  0.3818626021542569  0.5373337370578568  1.0000
  H   H28       1.0  0.9501825953601397  0.6181369996884384  0.9626658975486251  1.0000
  H   H29       1.0  0.45978975560981894  0.7681241309574672  0.4168626291543448  1.0000
  H   H30       1.0  0.9597886606969724  0.23187637077412399  0.08313631973823021  1.0000
  H   H31       1.0  0.5402128175941244  0.231878923766331  0.5831334907004051  1.0000
  H   H32       1.0  0.04021271141989051  0.768121367126568  0.9168661697244147  1.0000
  H   H33       1.0  0.8396360378847519  0.6076580688111689  0.6218544778499009  1.0000
  H   H34       1.0  0.339635499421867  0.392344581123595  0.8781470729882414  1.0000
  H   H35       1.0  0.16036293206622793  0.39234284366421684  0.3781462254972752  1.0000
  H   H36       1.0  0.6603634705296956  0.6076573777878094  0.12185457714562628  1.0000
  H   H37       1.0  0.8780263672229155  0.751732742543055  0.5245214123595119  1.0000
  H   H38       1.0  0.37802685911645995  0.24826784864691828  0.9754782445000673  1.0000
  H   H39       1.0  0.1219738038119687  0.24826817698640005  0.47547836569253843  1.0000
  H   H40       1.0  0.6219745130016889  0.7517320173935146  0.024521512060403004  1.0000
  C   C1        1.0  0.15477316412243883  0.534613557670383  0.636326324432723  1.0000
  C   C2        1.0  0.6547747286048351  0.46538471397462167  0.8636751423901005  1.0000
  C   C3        1.0  0.8452258058279511  0.4653863083689771  0.36367343212776154  1.0000
  C   C4        1.0  0.3452254424287774  0.5346140844686429  0.1363264432690201  1.0000
  C   C5        1.0  0.3258183883755379  0.652425465531401  0.5321496945446924  1.0000
  C   C6        1.0  0.8258174099929931  0.34757402575846885  0.9678499413743185  1.0000
  C   C7        1.0  0.674179380492248  0.34757652159362357  0.4678482544087288  1.0000
  C   C8        1.0  0.17417915778776924  0.6524226657040726  0.032151601301663404  1.0000
  C   C9        1.0  0.9196811243649564  0.6981295591173547  0.6080972271494076  1.0000
  C   C10       1.0  0.41968048079900205  0.3018721155368169  0.8919033760572578  1.0000
  C   C11       1.0  0.08031904666992061  0.30187136041210033  0.3919025509026497  1.0000
  C   C12       1.0  0.5803184891519991  0.6981288039921053  0.10809640199479993  1.0000
  C   C13       1.0  0.9035121909392317  0.8023147881332519  0.717568942663121  1.0000
  C   C14       1.0  0.4035114319081714  0.1976868650940773  0.7824325860092997  1.0000
  C   C15       1.0  0.09648798009562401  0.1976861243426669  0.2824317606840481  1.0000
  C   C16       1.0  0.5964875380434409  0.8023151079244071  0.2175672135343376  1.0000
  N   N1        1.0  0.08024717722323521  0.6480999391380916  0.5878746823089643  1.0000
  N   N2        1.0  0.5802474073972449  0.351900373236127  0.9121268282835615  1.0000
  N   N3        1.0  0.9197517927283557  0.351902026826849  0.41212604252979196  1.0000
  N   N4        1.0  0.4197515625525129  0.6480984322601414  0.08787383208044731  1.0000
  N   N5        1.0  0.19048030043033756  0.7270982921954072  0.5211685181058954  1.0000
  N   N6        1.0  0.6904816374831598  0.2729010717341821  0.9788320445365527  1.0000
  N   N7        1.0  0.8095150662702438  0.2729047343110338  0.4788313029293434  1.0000
  N   N8        1.0  0.3095149302976098  0.7270956197283523  0.021169498139428807  1.0000
  N   N9        1.0  0.3106558349689196  0.5329001100643111  0.6002871626075575  1.0000
  N   N10       1.0  0.8106549976616579  0.46709936069344576  0.8997133987665792  1.0000
  N   N11       1.0  0.6893443360666184  0.4671018770617791  0.3997107863458496  1.0000
  N   N12       1.0  0.1893439722874746  0.5328983842597168  0.10028816540096842  1.0000
  N   N13       1.0  0.08473190001613062  0.43725300555176017  0.7069287933768182  1.0000
  N   N14       1.0  0.5847311779173694  0.5627473319693052  0.7930699412830435  1.0000
  N   N15       1.0  0.9152718742710421  0.562748981575936  0.2930691555765677  1.0000
  N   N16       1.0  0.41527139528405144  0.4372514805820982  0.2069297937858394  1.0000
  N   N17       1.0  0.47060187036568385  0.6975645222203752  0.48716506948186833  1.0000
  N   N18       1.0  0.9706032622378945  0.3024349285805669  0.012834783100117904  1.0000
  N   N19       1.0  0.5293946974182191  0.30243746490411627  0.51283287947156  1.0000
  N   N20       1.0  0.029395707710627102  0.6975617628830405  0.9871667595758497  1.0000
  O   O1        1.0  0.7614864347677682  0.8215110031781165  0.7587890728129381  1.0000
  O   O2        1.0  0.2614868564802181  0.17848841681789904  0.7412124143752409  1.0000
  O   O3        1.0  0.23851373626648356  0.17848885580823995  0.24121160904265077  1.0000
  O   O4        1.0  0.7385133145534443  0.8215103957324386  0.2587873206936564  1.0000
  O   O5        1.0  0.028412119357021502  0.8608646297477803  0.7604479430633547  1.0000
  O   O6        1.0  0.5284121114655776  0.13913668298396686  0.7395545148629311  1.0000
  O   O7        1.0  0.9715892527604949  0.13913417574955383  0.2395527173006542  1.0000
  O   O8        1.0  0.47158805956986083  0.8608652759279708  0.2604471352709298  1.0000
  O   O9        1.0  0.3572460410233376  0.8209083869214524  0.7745129499129179  1.0000
  O   O10       1.0  0.8572448788200263  0.17909112525217807  0.7254876109695232  1.0000
  O   O11       1.0  0.642755331094179  0.1790904185758819  0.2254877104510911  1.0000
  O   O12       1.0  0.1427552922148578  0.8209097942772842  0.2745121670825341  1.0000
  O   O13       1.0  0.2980285419358993  0.013785626508649798  0.5305550031030748  1.0000
  O   O14       1.0  0.798028301087989  0.9862148935675348  0.9694446546007998  1.0000
  O   O15       1.0  0.7019728301822498  0.9862142395317828  0.46944475345739534  1.0000
  O   O16       1.0  0.20197307103076412  0.013786025962453196  0.030555123451250703  1.0000
