data_image0
_chemical_formula_structural       Cd2H32C46N16O10
_chemical_formula_sum              "Cd2 H32 C46 N16 O10"
_cell_length_a       9.073417019539276
_cell_length_b       9.603888292807795
_cell_length_c       14.6922
_cell_angle_alpha    88.29260674462735
_cell_angle_beta     86.15365907191911
_cell_angle_gamma    64.52047343644095

_space_group_name_H-M_alt    "P 1"
_space_group_IT_number       1

loop_
  _space_group_symop_operation_xyz
  'x, y, z'

loop_
  _atom_site_type_symbol
  _atom_site_label
  _atom_site_symmetry_multiplicity
  _atom_site_fract_x
  _atom_site_fract_y
  _atom_site_fract_z
  _atom_site_occupancy
  Cd  Cd1       1.0  0.95997289517954  0.0551961957636777  0.8755220610944929  1.0000
  Cd  Cd2       1.0  0.0400254123684506  0.9448049117589362  0.12447574135840257  1.0000
  H   H1        1.0  0.9645201507198778  0.3551142885262095  0.7726648128287223  1.0000
  H   H2        1.0  0.03548420499603111  0.6448856655673154  0.22733548406463908  1.0000
  H   H3        1.0  0.0874145707924328  0.4376917375024405  0.6375287137771861  1.0000
  H   H4        1.0  0.9125914690165118  0.5623093700201736  0.36247353278456973  1.0000
  H   H5        1.0  0.28833831489473744  0.9685551701902071  0.5399701853823442  1.0000
  H   H6        1.0  0.7116616223863304  0.0314447839033178  0.460029613920021  1.0000
  H   H7        1.0  0.16105128891689446  0.903154587250512  0.6822632393178124  1.0000
  H   H8        1.0  0.8389469642711305  0.0968442134139167  0.3177373328492051  1.0000
  H   H9        1.0  0.2021569050733731  0.687540626814787  0.45218189535218284  1.0000
  H   H10       1.0  0.7978425070833239  0.3124604807078271  0.5478192645064509  1.0000
  H   H11       1.0  0.27425378366184117  0.8985835477593227  0.3897465954466668  1.0000
  H   H12       1.0  0.725745628494856  0.1014175597632914  0.6102545644119671  1.0000
  H   H13       1.0  0.6656953111275287  0.5913215719686775  0.23096581070074504  1.0000
  H   H14       1.0  0.3343063102465891  0.4086795355539365  0.7690379801697984  1.0000
  H   H15       1.0  0.6183709836318556  0.3682333910174549  0.28706842139774114  1.0000
  H   H16       1.0  0.38163005825792595  0.63176656307607  0.7129326934105789  1.0000
  H   H17       1.0  0.5362991527251779  0.0919951975115794  0.268361816884365  1.0000
  H   H18       1.0  0.46369973430714845  0.9080070634401238  0.7316386616307538  1.0000
  H   H19       1.0  0.46443846951022755  0.2903354038670471  0.23646483551821254  1.0000
  H   H20       1.0  0.5355609426464697  0.7096657036555669  0.7635349630739015  1.0000
  H   H21       1.0  0.3848022539375293  0.9506066600911822  0.21570989082295705  1.0000
  H   H22       1.0  0.6151976833435455  0.0493932940023356  0.7842899084794084  1.0000
  H   H23       1.0  0.9383071106808315  0.3308507541490471  0.1656405180206519  1.0000
  H   H24       1.0  0.06169172199152942  0.6691491999444779  0.8343593270422787  1.0000
  H   H25       1.0  0.41786657108566777  0.9381403984659541  0.0392490833835595  1.0000
  H   H26       1.0  0.5821360461772329  0.06185609534029621  0.9607499916557385  1.0000
  H   H27       1.0  0.8841590824847926  0.5400066650992343  0.035945672857039285  1.0000
  H   H28       1.0  0.11584574399552136  0.459989828707009  0.9640519493946014  1.0000
  H   H29       1.0  0.5041981046931455  0.5429179201271879  0.8750848986632247  1.0000
  H   H30       1.0  0.4958013074635517  0.4570831873954262  0.12491353866236204  1.0000
  H   H31       1.0  0.8295053843600615  0.7758217826504534  0.0987161661417417  1.0000
  H   H32       1.0  0.1704934483122997  0.2241781714430644  0.9012809563881489  1.0000
  C   C1        1.0  0.0381939541090475  0.2718528560984765  0.7204048706440884  1.0000
  C   C2        1.0  0.9618114518556028  0.728144791136863  0.27959542766977546  1.0000
  C   C3        1.0  0.10595522948705136  0.3181964835818363  0.6446528163195493  1.0000
  C   C4        1.0  0.8940502308375644  0.6818034705116887  0.35535083797955014  1.0000
  C   C5        1.0  0.1990677808350014  0.2090740174846673  0.5779965061657321  1.0000
  C   C6        1.0  0.8009348907878644  0.7909247831797686  0.4220045635922744  1.0000
  C   C7        1.0  0.21695300547456503  0.0571235757762381  0.590176759855602  1.0000
  C   C8        1.0  0.7830464066821321  0.9428775317463759  0.4098250806362883  1.0000
  C   C9        1.0  0.14617254989493486  0.0206821370468191  0.6686557115661955  1.0000
  C   C10       1.0  0.8538301760878896  0.979318970475795  0.3313453110107361  1.0000
  C   C11       1.0  0.27362648245296844  0.2547705712474695  0.4985110345362216  1.0000
  C   C12       1.0  0.7263745594368134  0.7452293828460554  0.5014900802720985  1.0000
  C   C13       1.0  0.3588300181257722  0.3883711095328977  0.41071620587691626  1.0000
  C   C14       1.0  0.6411688145465888  0.6116288445606273  0.5892843198192779  1.0000
  C   C15       1.0  0.4021433345766284  0.5101293913318088  0.3740304874457436  1.0000
  C   C16       1.0  0.5978566027044466  0.48987056276171614  0.6259706731231416  1.0000
  C   C17       1.0  0.3066910403814092  0.6622528474040195  0.40375491253277557  1.0000
  C   C18       1.0  0.6933088968996657  0.3377471066895055  0.5962462480361097  1.0000
  C   C19       1.0  0.346893243287326  0.778550795881884  0.3689222905046136  1.0000
  C   C20       1.0  0.6531072734780778  0.22145031164073  0.631080184859975  1.0000
  C   C21       1.0  0.5644786998527209  0.6084926708597536  0.2808243944495742  1.0000
  C   C22       1.0  0.4355179779621849  0.3915095900919496  0.719176175586675  1.0000
  C   C23       1.0  0.5360830685880629  0.4830757119813427  0.3121431315304192  1.0000
  C   C24       1.0  0.4639163435686343  0.5169253955412714  0.6878580283282147  1.0000
  C   C25       1.0  0.43226788963421114  0.2059839809474724  0.27359800002874823  1.0000
  C   C26       1.0  0.5677304179137792  0.7940171265751417  0.7264025249571942  1.0000
  C   C27       1.0  0.28762780414206907  0.066416753969655  0.20739367283164256  1.0000
  C   C28       1.0  0.7123721331390059  0.9335832001238628  0.7926061264707157  1.0000
  C   C29       1.0  0.06229615018484939  0.2632355873529093  0.18550104123143285  1.0000
  C   C30       1.0  0.9377037870962185  0.7367643667406156  0.8144987580709255  1.0000
  C   C31       1.0  0.8140920269895561  0.3675471007077746  0.9186695554531779  1.0000
  C   C32       1.0  0.18590570107409826  0.6324528533857503  0.08132625157075069  1.0000
  C   C33       1.0  0.27816415008035034  0.8326546942955346  0.917752985583405  1.0000
  C   C34       1.0  0.7218330528589264  0.1673464132270794  0.08224622389658257  1.0000
  C   C35       1.0  0.4442915530483943  0.7497450577408316  0.9533426624392475  1.0000
  C   C36       1.0  0.5557083842326732  0.2502548963526934  0.0466578174963814  1.0000
  C   C37       1.0  0.4983394861170325  0.8220269986427908  0.015922132226265293  1.0000
  C   C38       1.0  0.501660396804077  0.1779706485925487  0.9840756723573918  1.0000
  C   C39       1.0  0.6571609981962538  0.7468983947420256  0.045697854052448895  1.0000
  C   C40       1.0  0.34284382828406024  0.2530980990642178  0.9543011294657188  1.0000
  C   C41       1.0  0.760090931269019  0.598313659123761  0.013644717663254407  1.0000
  C   C42       1.0  0.23990895165209028  0.4016839881115786  0.986353767553666  1.0000
  C   C43       1.0  0.7049270410493237  0.5263938949566551  0.95180683822997  1.0000
  C   C44       1.0  0.2950690029212879  0.4736049057077735  0.0481931448249213  1.0000
  C   C45       1.0  0.5469680684889439  0.6017266558066865  0.9215462736452621  1.0000
  C   C46       1.0  0.4530318144321654  0.3982709914286531  0.07845357283817828  1.0000
  N   N1        1.0  0.05935619997386252  0.1253016159692208  0.7334577267807204  1.0000
  N   N2        1.0  0.9406481013820809  0.8746960312661187  0.26654261729371587  1.0000
  N   N3        1.0  0.285799680988589  0.3918533119613343  0.4929546522338056  1.0000
  N   N4        1.0  0.7142018860255633  0.6081454887030944  0.5070464632847729  1.0000
  N   N5        1.0  0.3343198056424015  0.1663175544771036  0.4241314084427614  1.0000
  N   N6        1.0  0.6656796065143029  0.8336835530455105  0.5758690707826088  1.0000
  N   N7        1.0  0.38830318570442307  0.2519619714086971  0.3686390862493596  1.0000
  N   N8        1.0  0.6116962264522814  0.7480391361139169  0.6313613929760107  1.0000
  N   N9        1.0  0.47261517916578555  0.7540023645190246  0.3078656414116381  1.0000
  N   N10       1.0  0.5273853375996254  0.24599874300358948  0.6921368339529508  1.0000
  N   N11       1.0  0.29684748578095815  0.1956331082767804  0.23269302577582343  1.0000
  N   N12       1.0  0.7031513468914029  0.8043668458167446  0.7673068192871069  1.0000
  N   N13       1.0  0.15386022362393698  0.3228275013858024  0.21994836877996693  1.0000
  N   N14       1.0  0.8461386090484241  0.6771724527077154  0.7800507956496998  1.0000
  N   N15       1.0  0.13984669626124457  0.1058894043525811  0.1767816688940371  1.0000
  N   N16       1.0  0.860153241019823  0.8941105497409367  0.8232181304083283  1.0000
  O   O1        1.0  0.9626182266902106  0.3045675654319737  0.9406254692709053  1.0000
  O   O2        1.0  0.037379501373443765  0.6954323886615512  0.059367615219983294  1.0000
  O   O3        1.0  0.7525068495105174  0.2993690605147918  0.8704822961747423  1.0000
  O   O4        1.0  0.2474881442113457  0.7006320470078222  0.1295115597602816  1.0000
  O   O5        1.0  0.24998711008391433  0.7984532148625831  0.8404178549198346  1.0000
  O   O6        1.0  0.7500035195630801  0.2015501995182163  0.15958226257573924  1.0000
  O   O7        1.0  0.1686318816217565  0.9418832758691594  0.967516219488253  1.0000
  O   O8        1.0  0.83136700541057  0.05811898508254389  0.032483578393602414  1.0000
  O   O9        1.0  0.7080946563077574  0.8201953532448556  0.10584712723916571  1.0000
  O   O10       1.0  0.2919069107063947  0.1798034474195731  0.8941499044798389  1.0000
