data_image0
_chemical_formula_structural       Ag2H38C46S2N4O8
_chemical_formula_sum              "Ag2 H38 C46 S2 N4 O8"
_cell_length_a       7.255976577046441
_cell_length_b       10.877701829547876
_cell_length_c       13.190766702830901
_cell_angle_alpha    103.1325602431859
_cell_angle_beta     104.60616234898461
_cell_angle_gamma    93.70577448263678

_space_group_name_H-M_alt    "P 1"
_space_group_IT_number       1

loop_
  _space_group_symop_operation_xyz
  'x, y, z'

loop_
  _atom_site_type_symbol
  _atom_site_label
  _atom_site_symmetry_multiplicity
  _atom_site_fract_x
  _atom_site_fract_y
  _atom_site_fract_z
  _atom_site_occupancy
  Ag  Ag1       1.0  0.3229411474736636  0.0457273513284306  0.5197582451808883  1.0000
  Ag  Ag2       1.0  0.6770420199196251  0.9542771666784661  0.480234509527591  1.0000
  H   H1        1.0  0.9959880455647934  0.7789461529439594  0.13830677376653705  1.0000
  H   H2        1.0  0.004020145247245899  0.22105635338730414  0.8616975869165057  1.0000
  H   H3        1.0  0.8172241297378094  0.819942973733852  0.20355996857805536  1.0000
  H   H4        1.0  0.18278372150730596  0.1800576392241879  0.7964424657058088  1.0000
  H   H5        1.0  0.7208425142274705  0.838663308103932  0.01352778308065435  1.0000
  H   H6        1.0  0.27917192528471446  0.1613344457633232  0.9864735511573384  1.0000
  H   H7        1.0  0.5615741425413957  0.7196840858095469  0.03016531785861785  1.0000
  H   H8        1.0  0.4384367055062555  0.2803174630445752  0.9698392479981234  1.0000
  H   H9        1.0  0.6542296374374033  0.6473056642158923  0.8609603347128638  1.0000
  H   H10       1.0  0.34577168017061394  0.3526911306076456  0.13904345256155173  1.0000
  H   H11       1.0  0.8995959054862012  0.6761776382787446  0.9321852146172273  1.0000
  H   H12       1.0  0.10040617656726876  0.32381537234844865  0.06781417266515889  1.0000
  H   H13       1.0  0.08412200778645476  0.8396006460511813  0.32682094749499396  1.0000
  H   H14       1.0  0.9158634265473965  0.1604019095259304  0.6731793459766064  1.0000
  H   H15       1.0  0.1579406975993294  0.9022689815711189  0.6559733526344614  1.0000
  H   H16       1.0  0.842049996575767  0.09773833627701119  0.34402709823984867  1.0000
  H   H17       1.0  0.953796586305465  0.6978095828581203  0.6334799058050036  1.0000
  H   H18       1.0  0.046197579055117864  0.30219390822166753  0.3665218389718489  1.0000
  H   H19       1.0  0.8280780050069864  0.5513371151206384  0.44568271314226127  1.0000
  H   H20       1.0  0.17192207889821276  0.44866063443322446  0.5543210760183256  1.0000
  H   H21       1.0  0.8364428600343173  0.49709516547840576  0.2625367787219658  1.0000
  H   H22       1.0  0.16354855298366996  0.5029016644635218  0.7374632963727307  1.0000
  H   H23       1.0  0.5253798415485634  0.18801586072439844  0.7421505969588864  1.0000
  H   H24       1.0  0.47459847512131836  0.811986708586758  0.2578486612133729  1.0000
  H   H25       1.0  0.486214219305424  0.2786508449428524  0.44914146327494814  1.0000
  H   H26       1.0  0.5137798163647104  0.7213517100441462  0.550857809795225  1.0000
  H   H27       1.0  0.6681819099401377  0.49518240312156075  0.5439364257177813  1.0000
  H   H28       1.0  0.3318026703508322  0.5048230111529293  0.45606428753207234  1.0000
  H   H29       1.0  0.7745562580550711  0.5621067250706702  0.7444151356727529  1.0000
  H   H30       1.0  0.2254218286918217  0.4378948816631406  0.25558542206056245  1.0000
  H   H31       1.0  0.6972678568347133  0.31854469408627745  0.9088549123755028  1.0000
  H   H32       1.0  0.3027274872147314  0.6814502342420069  0.09114385749963105  1.0000
  H   H33       1.0  0.9810043140284889  0.13064508693895496  0.2041345012852034  1.0000
  H   H34       1.0  0.019002294102399633  0.8693555764381101  0.7958609376568829  1.0000
  H   H35       1.0  0.4786078651173041  0.9211854522253731  0.08739025721106225  1.0000
  H   H36       1.0  0.5213978394662958  0.078817154943934  0.9126001127884108  1.0000
  H   H37       1.0  0.34602939860148735  0.8341559459038873  0.887354562147223  1.0000
  H   H38       1.0  0.6539812958073624  0.16585045036526216  0.11263877332310557  1.0000
  C   C1        1.0  0.7843420220687917  0.5019406899288299  0.0710838269807752  1.0000
  C   C2        1.0  0.21567548892242167  0.4980513279061184  0.9289191375212197  1.0000
  C   C3        1.0  0.8371152029031631  0.6192883689277763  0.1629660917176777  1.0000
  C   C4        1.0  0.1628943017977349  0.3807132038608074  0.8370352500649999  1.0000
  C   C5        1.0  0.848313894940368  0.7476561503188676  0.13893355953438655  1.0000
  C   C6        1.0  0.151699725112401  0.2523377797235611  0.861069201680081  1.0000
  C   C7        1.0  0.7107076960459934  0.744225167379902  0.02950046676395596  1.0000
  C   C8        1.0  0.28930096914897513  0.2557725762869368  0.9705030562487521  1.0000
  C   C9        1.0  0.7548431576391651  0.6469690192340137  0.9385814761308777  1.0000
  C   C10       1.0  0.24516818483792946  0.35302777225259513  0.06142149780198026  1.0000
  C   C11       1.0  0.74674614401912  0.5159682233807884  0.9573509165767784  1.0000
  C   C12       1.0  0.25326086772007267  0.48402856045550635  0.04265369893711577  1.0000
  C   C13       1.0  0.9375171229096181  0.6840004887845552  0.36932358586528835  1.0000
  C   C14       1.0  0.06248191712273149  0.3159991674831629  0.6306804141275106  1.0000
  C   C15       1.0  0.04799442650371324  0.802695310501697  0.3904541661350293  1.0000
  C   C16       1.0  0.9519979156176246  0.19730627406093507  0.6095477079434202  1.0000
  C   C17       1.0  0.09079313772176077  0.8389798623956323  0.5764535957855585  1.0000
  C   C18       1.0  0.9091977207272635  0.16102170902306767  0.42355033399365977  1.0000
  C   C19       1.0  0.9811045089435736  0.723416632309437  0.5629527410373923  1.0000
  C   C20       1.0  0.018894246535801087  0.27658873860622885  0.43705230557178953  1.0000
  C   C21       1.0  0.9088506858968869  0.6445111969962196  0.4594175368287592  1.0000
  C   C22       1.0  0.09115059712766539  0.35549228034952307  0.5405852432474346  1.0000
  C   C23       1.0  0.8674324596297892  0.5970611325253258  0.2627477499134087  1.0000
  C   C24       1.0  0.132567284708486  0.4029347236553206  0.7372541128480065  1.0000
  C   C25       1.0  0.653146903780076  0.38208418075931405  0.7623766936509567  1.0000
  C   C26       1.0  0.34683319603603013  0.6179202844751686  0.23762394372679543  1.0000
  C   C27       1.0  0.5563973491845502  0.26095840848736873  0.7018265737740846  1.0000
  C   C28       1.0  0.4435807977018697  0.739043214137176  0.2981717211985923  1.0000
  C   C29       1.0  0.5360523076755114  0.3104028700823206  0.5374681282529321  1.0000
  C   C30       1.0  0.4639335464112974  0.6896016000556668  0.4625310746036602  1.0000
  C   C31       1.0  0.6362233703423144  0.430685007754519  0.5910370249416559  1.0000
  C   C32       1.0  0.3637550960645228  0.5693185029463378  0.40896395068373426  1.0000
  C   C33       1.0  0.6948716299399462  0.4682918105127384  0.7036095545087021  1.0000
  C   C34       1.0  0.30510805012320924  0.5317107401608749  0.29639217348406527  1.0000
  C   C35       1.0  0.7025612095956432  0.40454839171441387  0.8792384173626002  1.0000
  C   C36       1.0  0.2974318769246408  0.5954494033549692  0.12075981097736835  1.0000
  C   C37       1.0  0.9227707925784114  0.09392783825352777  0.11711142699915193  1.0000
  C   C38       1.0  0.07723171473756445  0.9060737800505761  0.8828843539629075  1.0000
  C   C39       1.0  0.0379186115962113  0.025178097739093595  0.05772977057379339  1.0000
  C   C40       1.0  0.9620893599279513  0.9748225470004285  0.9422681381887937  1.0000
  C   C41       1.0  0.2276999917365998  0.0029906325266608985  0.10757949412398918  1.0000
  C   C42       1.0  0.7723074503906701  0.9970071668561142  0.8924162792933855  1.0000
  C   C43       1.0  0.33403328108419555  0.9346731437481708  0.04686987824319289  1.0000
  C   C44       1.0  0.665974411012563  0.0653256235088691  0.9531238413595842  1.0000
  C   C45       1.0  0.25905779353344366  0.8865720479531377  0.9339808633617179  1.0000
  C   C46       1.0  0.7409474311576716  0.11342862876456648  0.06601286001340158  1.0000
  S   S1        1.0  0.33900985005103473  0.06547152932656529  0.25011263675772705  1.0000
  S   S2        1.0  0.661006587609414  0.9345214856140202  0.7498842956020721  1.0000
  N   N1        1.0  0.12587219486698584  0.8760236637006925  0.49141082294694616  1.0000
  N   N2        1.0  0.8741161466719732  0.12397890227354216  0.5085876218837553  1.0000
  N   N3        1.0  0.497030028492162  0.22664322975222  0.5931779158501768  1.0000
  N   N4        1.0  0.5029501515099852  0.7733612566699148  0.40681970451339555  1.0000
  O   O1        1.0  0.7759279041946101  0.3946919710069495  0.08907157945550642  1.0000
  O   O2        1.0  0.22410960190477874  0.605306717379456  0.9109295054186928  1.0000
  O   O3        1.0  0.21203443928870772  0.009725295171079998  0.3045782966720764  1.0000
  O   O4        1.0  0.7879764940705484  0.9902686827402575  0.695418016394292  1.0000
  O   O5        1.0  0.3487291360286093  0.2047810058233921  0.27217876920029477  1.0000
  O   O6        1.0  0.6513030901830134  0.7952129149950834  0.7278229125247363  1.0000
  O   O7        1.0  0.528523565237343  0.0203535945571645  0.26975312045275496  1.0000
  O   O8        1.0  0.4714878075374002  0.9796280179654957  0.7302386276741756  1.0000
