data_image0
_chemical_formula_structural       Co4H24C20O16
_chemical_formula_sum              "Co4 H24 C20 O16"
_cell_length_a       4.8157491660454035
_cell_length_b       9.360588261930403
_cell_length_c       13.64994449305647
_cell_angle_alpha    89.51255952498894
_cell_angle_beta     90.00025080348495
_cell_angle_gamma    89.99957136598087

_space_group_name_H-M_alt    "P 1"
_space_group_IT_number       1

loop_
  _space_group_symop_operation_xyz
  'x, y, z'

loop_
  _atom_site_type_symbol
  _atom_site_label
  _atom_site_symmetry_multiplicity
  _atom_site_fract_x
  _atom_site_fract_y
  _atom_site_fract_z
  _atom_site_occupancy
  Co  Co1       1.0  0.020965051403699402  0.9990608171195846  0.24710141125677143  1.0000
  Co  Co2       1.0  0.9790376907455496  0.49906474793962013  0.24710193123116395  1.0000
  Co  Co3       1.0  0.9790423929292661  0.0009391871290346987  0.7528999338596092  1.0000
  Co  Co4       1.0  0.0209676770517646  0.5009373929289822  0.7528994140348431  1.0000
  H   H1        1.0  0.25384769510822736  0.7599391877836792  0.11467042775441168  1.0000
  H   H2        1.0  0.7461610262969814  0.2599344410678626  0.11466765365921817  1.0000
  H   H3        1.0  0.7461514431520583  0.24005974817301726  0.8853309172798799  1.0000
  H   H4        1.0  0.2538443415391853  0.7400623582608289  0.8853336912286804  1.0000
  H   H5        1.0  0.2376264446867467  0.9020238202884058  0.03158401405852369  1.0000
  H   H6        1.0  0.7623791730598273  0.40201903845557746  0.0315790673458594  1.0000
  H   H7        1.0  0.762380999636818  0.09797936128697418  0.968419529175385  1.0000
  H   H8        1.0  0.23762619472670818  0.5979820709013027  0.968419347323646  1.0000
  H   H9        1.0  0.7050948629148764  0.8229330563071429  0.9593839806149017  1.0000
  H   H10       1.0  0.29489856364819633  0.3229364090420148  0.9593848996191238  1.0000
  H   H11       1.0  0.2949021988252909  0.17706587965357556  0.04061736441776278  1.0000
  H   H12       1.0  0.7051005745904106  0.6770636228198653  0.040614247600124984  1.0000
  H   H13       1.0  0.4343535634660896  0.10226721878557749  0.3792180492561029  1.0000
  H   H14       1.0  0.5656441402659595  0.6022740200233585  0.3792169136400004  1.0000
  H   H15       1.0  0.5656497278127403  0.8977328130682667  0.6207810979663788  1.0000
  H   H16       1.0  0.4343425388488312  0.3977270709715199  0.620782966275385  1.0000
  H   H17       1.0  0.14970058881605303  0.09461282207825407  0.4593209472097185  1.0000
  H   H18       1.0  0.8502982257573992  0.5946185134911985  0.4593209877649044  1.0000
  H   H19       1.0  0.850298549422547  0.9053872097836264  0.5406782000095305  1.0000
  H   H20       1.0  0.149692606392982  0.40538258669471355  0.5406781595234945  1.0000
  H   H21       1.0  0.6008141205715348  0.1726503418872056  0.5374670335686174  1.0000
  H   H22       1.0  0.39918245730221  0.6726588090671016  0.537469301803064  1.0000
  H   H23       1.0  0.39917255853548994  0.8273518174156606  0.46253284642239106  1.0000
  H   H24       1.0  0.6008208339812527  0.3273412135876796  0.46253057804963743  1.0000
  C   C1        1.0  0.5399807669658471  0.9243167385408524  0.14329445244506894  1.0000
  C   C2        1.0  0.46002592032009915  0.4243173438101877  0.14329343069498174  1.0000
  C   C3        1.0  0.4600266773702515  0.0756822065988487  0.8567061599654691  1.0000
  C   C4        1.0  0.5399794474803415  0.5756837379494967  0.8567071818651824  1.0000
  C   C5        1.0  0.38567684938232827  0.8328963235733511  0.07124387152373399  1.0000
  C   C6        1.0  0.614328192298494  0.3328995003504716  0.0712460209531827  1.0000
  C   C7        1.0  0.6143285184491986  0.16710048495440327  0.928756740733945  1.0000
  C   C8        1.0  0.385670945961671  0.6671025945348532  0.928758987459069  1.0000
  C   C9        1.0  0.567260394789713  0.7499962726267384  0.9999994289530816  1.0000
  C   C10       1.0  0.43274082914026485  0.24999910160238412  0.9999998301038883  1.0000
  C   C11       1.0  0.1310079647275089  0.2596578862781556  0.35255532921460986  1.0000
  C   C12       1.0  0.8689974993013152  0.7596688377432199  0.3525561319097505  1.0000
  C   C13       1.0  0.8689890969785664  0.7403432230947828  0.6474430854484222  1.0000
  C   C14       1.0  0.130991256297996  0.2403333767500158  0.6474393523015535  1.0000
  C   C15       1.0  0.29552967807470754  0.1692718849325772  0.4237109611284778  1.0000
  C   C16       1.0  0.7044696826002408  0.669279208507234  0.42371077453192624  1.0000
  C   C17       1.0  0.7044694601468464  0.8307292336354093  0.576286720905955  1.0000
  C   C18       1.0  0.2955232260407996  0.3307240558878278  0.5762861750186727  1.0000
  C   C19       1.0  0.46480540989198016  0.24999869765721164  0.49999979897796  1.0000
  C   C20       1.0  0.535189575292364  0.7500045207385143  0.5000008137253571  1.0000
  O   O1        1.0  0.9974920386121371  0.20070057508110753  0.28235846724165  1.0000
  O   O2        1.0  0.0024926420311359994  0.700707398730394  0.2823579192542239  1.0000
  O   O3        1.0  0.0025029466141859  0.7992962426657826  0.7176414123777162  1.0000
  O   O4        1.0  0.9974919605714377  0.2992894650318973  0.7176382972059512  1.0000
  O   O5        1.0  0.12651552091948304  0.39545043206124564  0.3616759354804485  1.0000
  O   O6        1.0  0.8734943111070095  0.8954581152283578  0.36168040810325397  1.0000
  O   O7        1.0  0.8734856938640403  0.6045474447825185  0.6383246768496132  1.0000
  O   O8        1.0  0.12650482711442382  0.10454616226825658  0.638320937309139  1.0000
  O   O9        1.0  0.8027040041022745  0.9387556498623296  0.13383814732352303  1.0000
  O   O10       1.0  0.1972919725689763  0.4387540476615826  0.13383818122891705  1.0000
  O   O11       1.0  0.1972972107634661  0.061234693631171  0.8661668602585093  1.0000
  O   O12       1.0  0.8027009361853601  0.5612374101512786  0.8661631632711672  1.0000
  O   O13       1.0  0.4114711568702347  0.9857562066828223  0.2133404105793345  1.0000
  O   O14       1.0  0.588550046190548  0.48576490749504586  0.21333592653536462  1.0000
  O   O15       1.0  0.5885404405308988  0.014240583434755597  0.7866616669436366  1.0000
  O   O16       1.0  0.41148023970386305  0.5142501542108918  0.786657360725094  1.0000
