data_image0
_chemical_formula_structural       ZnH50C28N4O4
_chemical_formula_sum              "Zn1 H50 C28 N4 O4"
_cell_length_a       8.860717911413904
_cell_length_b       10.111085459611328
_cell_length_c       10.30437107260628
_cell_angle_alpha    63.87295395030774
_cell_angle_beta     88.06872594940623
_cell_angle_gamma    66.62869253757354

_space_group_name_H-M_alt    "P 1"
_space_group_IT_number       1

loop_
  _space_group_symop_operation_xyz
  'x, y, z'

loop_
  _atom_site_type_symbol
  _atom_site_label
  _atom_site_symmetry_multiplicity
  _atom_site_fract_x
  _atom_site_fract_y
  _atom_site_fract_z
  _atom_site_occupancy
  Zn  Zn1       1.0  0.4999991670343108  0.5000005241957696  0.4999991174529157  1.0000
  H   H1        1.0  0.23035056011891436  0.4888993542951141  0.48149982963381177  1.0000
  H   H2        1.0  0.7696471717253814  0.5111004797616944  0.5184989505064121  1.0000
  H   H3        1.0  0.47628635856105456  0.5860607364193343  0.6986857486358601  1.0000
  H   H4        1.0  0.5237124344910812  0.4139366648688068  0.3013159943290943  1.0000
  H   H5        1.0  0.3229300801310445  0.4073112086483803  0.7866276189877013  1.0000
  H   H6        1.0  0.6770727019901628  0.5926873963027647  0.2133715372741348  1.0000
  H   H7        1.0  0.9821368509187709  0.5602107726833127  0.5961670815529558  1.0000
  H   H8        1.0  0.017862011425769684  0.43978905841931504  0.40383166476470916  1.0000
  H   H9        1.0  0.07262628758017094  0.3630608710807195  0.747814488188389  1.0000
  H   H10       1.0  0.9273743144729211  0.6369401741162052  0.2521865890738795  1.0000
  H   H11       1.0  0.8664787696288557  0.5561139678541738  0.8232336407470482  1.0000
  H   H12       1.0  0.13351790566358798  0.44388830078047203  0.1767641165694939  1.0000
  H   H13       1.0  0.06984597457797996  0.4806750183582836  0.9151959441559041  1.0000
  H   H14       1.0  0.9301512313183836  0.5193260338920286  0.08480329457299961  1.0000
  H   H15       1.0  0.9264842207186845  0.7813699873077625  0.8226248896101747  1.0000
  H   H16       1.0  0.07351803079860281  0.21862983402771624  0.17737278523929229  1.0000
  H   H17       1.0  0.8899096486734522  0.8106083359599979  0.6425072536456894  1.0000
  H   H18       1.0  0.11008928529149391  0.1893939258616939  0.3574894660252141  1.0000
  H   H19       1.0  0.23364586560725797  0.6591684626858199  0.8307130634189331  1.0000
  H   H20       1.0  0.7663518662370378  0.34083137137098873  0.16928571672129067  1.0000
  H   H21       1.0  0.1380325692538519  0.8554709901948742  0.6781649172305818  1.0000
  H   H22       1.0  0.8619674235909329  0.1445288379535654  0.3218337952645313  1.0000
  H   H23       1.0  0.14733163062817312  0.7338029194538435  0.5122611864513826  1.0000
  H   H24       1.0  0.8526673079927608  0.26619934417701063  0.48773747322056227  1.0000
  H   H25       1.0  0.3471577562194879  0.8879729037799964  0.5720601575005231  1.0000
  H   H26       1.0  0.6528450305577139  0.11202570298032555  0.4279409387623473  1.0000
  H   H27       1.0  0.3157443162620837  0.8766055292403507  0.4090171824098832  1.0000
  H   H28       1.0  0.6842579399111913  0.1233942939043047  0.5909824324406258  1.0000
  H   H29       1.0  0.6596714924210687  0.7100512603562522  0.6012520042892858  1.0000
  H   H30       1.0  0.3403290310276361  0.28994735140785377  0.3987481896181817  1.0000
  H   H31       1.0  0.5751172356509073  0.9159579480958585  0.4681937638965861  1.0000
  H   H32       1.0  0.4248844252820307  0.08404066342782102  0.5318093061898849  1.0000
  H   H33       1.0  0.7704583917881255  0.7683452761905586  0.37022381463452786  1.0000
  H   H34       1.0  0.22954439266108312  0.23165332966517133  0.6297763116278289  1.0000
  H   H35       1.0  0.5106688602501561  0.9969072839334818  0.2001516404337237  1.0000
  H   H36       1.0  0.4893362638039278  0.0030937494467054008  0.7998493015383019  1.0000
  H   H37       1.0  0.428238530299822  0.8549070830208196  0.2196710738727389  1.0000
  H   H38       1.0  0.5717638760982525  0.14509760427571194  0.7803273976857948  1.0000
  H   H39       1.0  0.6082140653450027  0.8518011466141078  0.13687795194570632  1.0000
  H   H40       1.0  0.39178819315627333  0.1481986774351256  0.8631226329053231  1.0000
  H   H41       1.0  0.039261993593008394  0.7748823651326762  0.04523238675943721  1.0000
  H   H42       1.0  0.9607352146313493  0.22511868802222074  0.9547678219699802  1.0000
  H   H43       1.0  0.23564784392952012  0.9777046343566695  0.9932974845851131  1.0000
  H   H44       1.0  0.7643526125547668  0.022291548497541697  0.006706675970157496  1.0000
  H   H45       1.0  0.2421745441763648  0.8609778425410824  0.9042477575175025  1.0000
  H   H46       1.0  0.7578265122042539  0.13901955374327463  0.09575488780284759  1.0000
  H   H47       1.0  0.9374377092269273  0.034398969210229814  0.7987928410099625  1.0000
  H   H48       1.0  0.0625650752222739  0.9655996366455  0.20120728525238735  1.0000
  H   H49       1.0  0.046432697718408626  0.1566102863030636  0.7480651048921413  1.0000
  H   H50       1.0  0.9535667738344384  0.843390761848042  0.2519360061926861  1.0000
  C   C1        1.0  0.23650342328783583  0.4846223064455445  0.6809586307634986  1.0000
  C   C2        1.0  0.7634955153330979  0.5153799571853169  0.31904002890843935  1.0000
  C   C3        1.0  0.06425277356499488  0.48682667346369624  0.7044589100413955  1.0000
  C   C4        1.0  0.9357460887795458  0.5131731576389313  0.2955398362762763  1.0000
  C   C5        1.0  0.9888596007197851  0.5585410207040482  0.8068443015155893  1.0000
  C   C6        1.0  0.011137074572658877  0.4414612479305974  0.19315345580095308  1.0000
  C   C7        1.0  0.9776746034217184  0.7302851155595463  0.7476463500732745  1.0000
  C   C8        1.0  0.02232485881914665  0.26971592897322694  0.25235088100946956  1.0000
  C   C9        1.0  0.1490369650508469  0.7304418529307243  0.7241235480931107  1.0000
  C   C10       1.0  0.8509630254659516  0.26955797431312334  0.2758741944014743  1.0000
  C   C11       1.0  0.22699138145380712  0.6578947936576186  0.6218126895801958  1.0000
  C   C12       1.0  0.7730069526148073  0.34210625473392053  0.3781855453256283  1.0000
  C   C13       1.0  0.39798205802964054  0.8125928872586458  0.5155948583395116  1.0000
  C   C14       1.0  0.6020207287475543  0.18740571950166907  0.4844062379233589  1.0000
  C   C15       1.0  0.5753742228535119  0.797886868144346  0.4951682064508417  1.0000
  C   C16       1.0  0.4246280356477642  0.20211295590488731  0.5048323784001879  1.0000
  C   C17       1.0  0.6521620854708987  0.7544675420482037  0.37511258094602334  1.0000
  C   C18       1.0  0.34784017070238343  0.24553228109644468  0.6248870339044854  1.0000
  C   C19       1.0  0.5431191633346871  0.870751013557815  0.22403744009953624  1.0000
  C   C20       1.0  0.4568842996152329  0.12925123916088674  0.7759620542826866  1.0000
  C   C21       1.0  0.2620356744272812  0.6767223282378725  0.19358204597969553  1.0000
  C   C22       1.0  0.7379583064890981  0.3232836033589735  0.8064229409285557  1.0000
  C   C23       1.0  0.10719234666918712  0.8232133460360631  0.08676967419827256  1.0000
  C   C24       1.0  0.8928065203313409  0.17678648687573434  0.9132310121204338  1.0000
  C   C25       1.0  0.16073803883568874  0.9333144421166751  0.9541869331646847  1.0000
  C   C26       1.0  0.8392613564407654  0.06668417350619651  0.04581426456586261  1.0000
  C   C27       1.0  0.008437895754624902  0.07773651680935961  0.8432591076967096  1.0000
  C   C28       1.0  0.9915621017461547  0.9222633131482497  0.15674154479943778  1.0000
  N   N1        1.0  0.3101610339623166  0.41773923329893853  0.5802120062645953  1.0000
  N   N2        1.0  0.6898384329345434  0.5822618130430044  0.4197871648191906  1.0000
  N   N3        1.0  0.39427496967229564  0.6529071513576171  0.5987340597343259  1.0000
  N   N4        1.0  0.6057255537764165  0.34709146040648864  0.4012661341731415  1.0000
  O   O1        1.0  0.3014329562437227  0.6818323159048633  0.3097140198901726  1.0000
  O   O2        1.0  0.698568762341651  0.31816872091037146  0.6902812035464122  1.0000
  O   O3        1.0  0.34080201900451357  0.5641964390090807  0.1603356647243429  1.0000
  O   O4        1.0  0.6591948078378709  0.43579245150464646  0.8396649772337026  1.0000
