data_image0
_chemical_formula_structural       MnH16C14N2O8
_chemical_formula_sum              "Mn1 H16 C14 N2 O8"
_cell_length_a       5.316370643066306
_cell_length_b       7.145551471898941
_cell_length_c       9.977909997677076
_cell_angle_alpha    86.39438931664702
_cell_angle_beta     85.30638600626222
_cell_angle_gamma    75.23872627588838

_space_group_name_H-M_alt    "P 1"
_space_group_IT_number       1

loop_
  _space_group_symop_operation_xyz
  'x, y, z'

loop_
  _atom_site_type_symbol
  _atom_site_label
  _atom_site_symmetry_multiplicity
  _atom_site_fract_x
  _atom_site_fract_y
  _atom_site_fract_z
  _atom_site_occupancy
  Mn  Mn1       1.0  1.5315524141668875e-07  0.9999984139045779  0.9999999744955733  1.0000
  H   H1        1.0  0.21500467977230647  0.5216246454745813  0.10161843543993854  1.0000
  H   H2        1.0  0.7849988259555689  0.47837382160586367  0.8983800435423251  1.0000
  H   H3        1.0  0.3362317533737098  0.38013069086213847  0.3290580254778775  1.0000
  H   H4        1.0  0.6637760157717025  0.6198663515529005  0.6709413423840405  1.0000
  H   H5        1.0  0.5666084362016054  0.6958733256051629  0.4834309036508772  1.0000
  H   H6        1.0  0.43339936243118876  0.30412373650924707  0.5165654554887029  1.0000
  H   H7        1.0  0.4803780533870423  0.8219478227941935  0.24747522928922908  1.0000
  H   H8        1.0  0.5196259615272182  0.17804919576520456  0.7525232882541533  1.0000
  H   H9        1.0  0.35684090633709803  0.7879810371578984  0.8475655867037734  1.0000
  H   H10       1.0  0.6431577874703579  0.21202027684318378  0.15243597646747994  1.0000
  H   H11       1.0  0.5212876921549849  0.7803913287086883  0.9810256798060667  1.0000
  H   H12       1.0  0.47871015765335306  0.2196070861721536  0.018974030967008608  1.0000
  H   H13       1.0  0.2553383959815534  0.0453478205618794  0.4390092641532777  1.0000
  H   H14       1.0  0.7446608266705397  0.9546520580510603  0.5609903317642095  1.0000
  H   H15       1.0  0.17330774821833478  0.8255474939324613  0.42743421828000566  1.0000
  H   H16       1.0  0.8266909652473728  0.17445383320153954  0.5725653390763557  1.0000
  C   C1        1.0  0.0834321018426536  0.5509340492373553  0.1912799512944049  1.0000
  C   C2        1.0  0.9165737656143661  0.449062964833722  0.8087214986768605  1.0000
  C   C3        1.0  0.1439758004631103  0.47757260944711527  0.3188929778718973  1.0000
  C   C4        1.0  0.8560138769811517  0.5224330155387449  0.6811047631640224  1.0000
  C   C5        1.0  0.9655875614293735  0.531120927354948  0.43100938901296376  1.0000
  C   C6        1.0  0.034422618590809965  0.46887469488299865  0.568987935300733  1.0000
  C   C7        1.0  0.7186247179497159  0.6508811680658937  0.40341854303039787  1.0000
  C   C8        1.0  0.2813683002799366  0.3491200806026597  0.5965862577465588  1.0000
  C   C9        1.0  0.6637328542666838  0.7226333540859996  0.2745804660834495  1.0000
  C   C10       1.0  0.3362682799029315  0.27736655943736815  0.7254160448172516  1.0000
  C   C11       1.0  0.9571653759022711  0.055998859639821284  0.3065890323653521  1.0000
  C   C12       1.0  0.0428362379663341  0.9439995856631214  0.6934105258188057  1.0000
  C   C13       1.0  0.0880273278669393  0.981411498451841  0.43622319463798953  1.0000
  C   C14       1.0  0.9119737768152875  0.018588395372148594  0.5637763249850425  1.0000
  N   N1        1.0  0.8489278144511587  0.6771981852162481  0.1711616061248834  1.0000
  N   N2        1.0  0.15107088918542647  0.3228031353512931  0.828838954138924  1.0000
  O   O1        1.0  0.8077642092555095  0.7654484729965602  0.05053227000040292  1.0000
  O   O2        1.0  0.19223928664323606  0.2345499875174326  0.9494672118892996  1.0000
  O   O3        1.0  0.10026213859459428  0.002281110694823999  0.19843023082854228  1.0000
  O   O4        1.0  0.8997351921982288  0.997718746140613  0.8015704442908532  1.0000
  O   O5        1.0  0.7258362627250393  0.16075651537039448  0.31013577926828634  1.0000
  O   O6        1.0  0.27416244091154607  0.839244805197147  0.689864780995521  1.0000
  O   O7        1.0  0.3522169045754496  0.7724882980687439  0.9488228685561001  1.0000
  O   O8        1.0  0.6477846994640329  0.2275101406677464  0.0511776925355036  1.0000
