data_image0
_chemical_formula_structural       Co4H68C68S2N4O18
_chemical_formula_sum              "Co4 H68 C68 S2 N4 O18"
_cell_length_a       9.525283447658495
_cell_length_b       12.093923404894928
_cell_length_c       19.085627524658772
_cell_angle_alpha    100.59519357337996
_cell_angle_beta     100.12930224791033
_cell_angle_gamma    105.10713353236872

_space_group_name_H-M_alt    "P 1"
_space_group_IT_number       1

loop_
  _space_group_symop_operation_xyz
  'x, y, z'

loop_
  _atom_site_type_symbol
  _atom_site_label
  _atom_site_symmetry_multiplicity
  _atom_site_fract_x
  _atom_site_fract_y
  _atom_site_fract_z
  _atom_site_occupancy
  Co  Co1       1.0  0.9887490185570726  0.41946478792780784  0.6458597502215752  1.0000
  Co  Co2       1.0  0.011247595209475481  0.5805354872407591  0.35413805998980047  1.0000
  Co  Co3       1.0  1.2047302462035076e-06  0.4999982038641876  0.49999934153698405  1.0000
  Co  Co4       1.0  0.5000044772277403  0.9999987682563254  0.9999984738280359  1.0000
  H   H1        1.0  0.143369299564263  0.2579604617078743  0.23729251669956844  1.0000
  H   H2        1.0  0.12498726305069847  0.3318623158689817  0.3232793040982926  1.0000
  H   H3        1.0  0.2950571337331098  0.3767703616343566  0.2963398947479234  1.0000
  H   H4        1.0  0.1735567842620895  0.0362955902805666  0.3500366571523869  1.0000
  H   H5        1.0  0.04363427504873129  0.1186762649726205  0.3499446859883619  1.0000
  H   H6        1.0  0.0800527082691858  0.05569517116521889  0.2663720274477086  1.0000
  H   H7        1.0  0.3192649299810029  0.1299310314407478  0.2343450419050298  1.0000
  H   H8        1.0  0.4654985439384021  0.25358910695706527  0.290914352678115  1.0000
  H   H9        1.0  0.42518233167213987  0.11691321121615769  0.31691842788872987  1.0000
  H   H10       1.0  0.4389649342557647  0.8331494524291686  0.06028139273968952  1.0000
  H   H11       1.0  0.29495142299080607  0.7954830584884078  0.9931233428294914  1.0000
  H   H12       1.0  0.5017205848928015  0.42176384177518855  0.622090546817219  1.0000
  H   H13       1.0  0.5608326724742552  0.29201178232011665  0.4077251233219242  1.0000
  H   H14       1.0  0.11991567838551015  0.2784588027239465  0.4393648745196684  1.0000
  H   H15       1.0  0.7050080476864693  0.2213183661528291  0.20237225710224746  1.0000
  H   H16       1.0  0.5819694014853455  0.9016683215340819  0.2751158582727129  1.0000
  H   H17       1.0  0.853701906306128  0.22776720323192012  0.4290054402914193  1.0000
  H   H18       1.0  0.7876581154308866  0.850674399096455  0.3628714926100614  1.0000
  H   H19       1.0  0.8354377325692681  0.8732072153008941  0.4597179701222556  1.0000
  H   H20       1.0  0.9389376094852436  0.9746114612693261  0.4168762623447221  1.0000
  H   H21       1.0  0.4798778997288123  0.9614151549341653  0.41844117407242715  1.0000
  H   H22       1.0  0.5610803380710223  0.8685070940593252  0.4633618640914604  1.0000
  H   H23       1.0  0.5201951625163233  0.8400931303535656  0.366768472836746  1.0000
  H   H24       1.0  0.888592994336932  0.13464435497981236  0.5088947181697347  1.0000
  H   H25       1.0  0.7668945027474692  0.0289136926770084  0.5413765995340326  1.0000
  H   H26       1.0  0.7018255538746841  0.1370475580510728  0.5057727731328325  1.0000
  H   H27       1.0  0.172880944184719  0.3047648062411241  0.7370462381494673  1.0000
  H   H28       1.0  0.1398848211187698  0.19475190797209052  0.8341893898757672  1.0000
  H   H29       1.0  0.6800514787150861  0.20259540108672516  0.7967244800765909  1.0000
  H   H30       1.0  0.7332424163288421  0.3084284512789068  0.6985117409909731  1.0000
  H   H31       1.0  0.13645338191969356  0.250936595546463  0.006874154829134198  1.0000
  H   H32       1.0  0.36561921117018414  0.19251932012756612  0.05013682284515399  1.0000
  H   H33       1.0  0.19621799759018901  0.8695449618091758  0.898611899788683  1.0000
  H   H34       1.0  0.9579212818620347  0.9108389568293802  0.8518395469798887  1.0000
  H   H35       1.0  0.8566340421777026  0.7420406651955316  0.7627070368159108  1.0000
  H   H36       1.0  0.8750153596303247  0.6681397016769282  0.6767197681871477  1.0000
  H   H37       1.0  0.7049458674849944  0.62322988698849  0.7036590000284517  1.0000
  H   H38       1.0  0.8264436974727685  0.9637064173521563  0.6499643208310456  1.0000
  H   H39       1.0  0.9563672771592165  0.8813257476166922  0.6500553391460712  1.0000
  H   H40       1.0  0.9199474302197502  0.9443059538573236  0.7336288150011538  1.0000
  H   H41       1.0  0.6807363006618272  0.8700674253569712  0.7656571506738812  1.0000
  H   H42       1.0  0.534502697592707  0.7464093671591882  0.7090857470826463  1.0000
  H   H43       1.0  0.5748188636795247  0.8830878971147981  0.6830840777338166  1.0000
  H   H44       1.0  0.5610345611986957  0.16684726882866124  0.9397172959827812  1.0000
  H   H45       1.0  0.705051583671441  0.2045171987937167  0.006874505537808797  1.0000
  H   H46       1.0  0.4982809645930714  0.5782381664844891  0.37791000152175497  1.0000
  H   H47       1.0  0.43916743616766496  0.7079920028949332  0.5922749857614987  1.0000
  H   H48       1.0  0.8800840788442695  0.7215440868920096  0.560636668642793  1.0000
  H   H49       1.0  0.29498683896216693  0.7786774786462586  0.7976269682544197  1.0000
  H   H50       1.0  0.41802475521406274  0.09832839658896826  0.7248849786720512  1.0000
  H   H51       1.0  0.1462940100802897  0.7722312893977235  0.5709941916689587  1.0000
  H   H52       1.0  0.21234627772966513  0.14932670245610064  0.637130770488177  1.0000
  H   H53       1.0  0.16456415199632346  0.1267956625800721  0.5402842833648902  1.0000
  H   H54       1.0  0.0610624855463229  0.0253923022975471  0.5831264627613846  1.0000
  H   H55       1.0  0.5201191142556282  0.03858067812993229  0.5815587616089317  1.0000
  H   H56       1.0  0.43892055477002145  0.1314904887874704  0.5366391465438054  1.0000
  H   H57       1.0  0.47980679535366016  0.1599044487905559  0.633232631358595  1.0000
  H   H58       1.0  0.11140360581926247  0.865355898540578  0.49110570806432435  1.0000
  H   H59       1.0  0.2331031624376648  0.9710865571407012  0.458623920260102  1.0000
  H   H60       1.0  0.29817070575765564  0.8629518171887651  0.4942269943621155  1.0000
  H   H61       1.0  0.8271146507323267  0.6952328384154142  0.2629490726400475  1.0000
  H   H62       1.0  0.8601157149617505  0.805247478434836  0.16580761263227115  1.0000
  H   H63       1.0  0.3199486977870833  0.7974030767322019  0.20327552612410216  1.0000
  H   H64       1.0  0.26675247304186195  0.6915673978498161  0.3014869611611529  1.0000
  H   H65       1.0  0.8635601908392729  0.7490689061271711  0.9931278712488945  1.0000
  H   H66       1.0  0.6343933725863025  0.8074808908415319  0.9498634371764535  1.0000
  H   H67       1.0  0.8037835546177589  0.1304570507801373  0.10138812534574976  1.0000
  H   H68       1.0  0.042078085942378586  0.08916568439109078  0.14816426650978795  1.0000
  C   C1        1.0  0.20211157420786205  0.29959769794348284  0.29498768528006275  1.0000
  C   C2        1.0  0.1319992738956799  0.09962526806724982  0.3244261260732059  1.0000
  C   C3        1.0  0.3748328424878551  0.1764613513937476  0.29171314210529425  1.0000
  C   C4        1.0  0.3007503029682184  0.35208965647678525  0.5347890704644981  1.0000
  C   C5        1.0  0.45508178470129906  0.3812806992060656  0.5638470430115345  1.0000
  C   C6        1.0  0.5469697186366247  0.36062067272469983  0.5168593271274631  1.0000
  C   C7        1.0  0.48446420006093405  0.30635828535807247  0.44215324549864476  1.0000
  C   C8        1.0  0.3304234954896259  0.2720396435494905  0.4127867179526418  1.0000
  C   C9        1.0  0.2400260124012448  0.298531574821979  0.460120361385897  1.0000
  C   C10       1.0  0.2025392754685669  0.3759731585820207  0.5845482372463165  1.0000
  C   C11       1.0  0.7133320806858804  0.39716027319523306  0.5423034913141435  1.0000
  C   C12       1.0  0.26099162467104253  0.21180061203200745  0.33149086246683607  1.0000
  C   C13       1.0  0.792174760866679  0.23488098077766034  0.31705829452346274  1.0000
  C   C14       1.0  0.7100532494888654  0.17492565558693943  0.246086029809291  1.0000
  C   C15       1.0  0.634112735998464  0.05449173183341569  0.2320118891940979  1.0000
  C   C16       1.0  0.6397284004957128  0.9960747090548594  0.2888553429738393  1.0000
  C   C17       1.0  0.7151894436867466  0.0565866155376327  0.3612695219069976  1.0000
  C   C18       1.0  0.7918584334811102  0.17643592502326302  0.37412266254371207  1.0000
  C   C19       1.0  0.8840707724835966  0.3597346782419563  0.3339620972155614  1.0000
  C   C20       1.0  0.5483167483583457  0.9881322614667098  0.15606901747883478  1.0000
  C   C21       1.0  0.7182453716369749  0.9921517442970182  0.42294355408956347  1.0000
  C   C22       1.0  0.8266920519665958  0.9182892983954359  0.41493395135885436  1.0000
  C   C23       1.0  0.5605071154757582  0.9109918519730584  0.417245201457284  1.0000
  C   C24       1.0  0.7723962568312928  0.07890212750208289  0.49881392578044614  1.0000
  C   C25       1.0  0.06562858029803209  0.2791577808829331  0.7519072814811378  1.0000
  C   C26       1.0  0.04608978361901707  0.21854762854428594  0.8064153712066255  1.0000
  C   C27       1.0  0.9064527017921903  0.1907248537587449  0.8243221724852956  1.0000
  C   C28       1.0  0.7907504692528704  0.22310465314207312  0.7849147267535128  1.0000
  C   C29       1.0  0.8195960179279355  0.28207843577803976  0.7308086997684382  1.0000
  C   C30       1.0  0.029577666322936087  0.08523461473182439  0.9252460159486304  1.0000
  C   C31       1.0  0.144974301770759  0.16497342264971593  0.9821574219890719  1.0000
  C   C32       1.0  0.2722755915618579  0.13328673002285293  0.006369710587591706  1.0000
  C   C33       1.0  0.17732594201144275  0.9520338966084622  0.9223931000853012  1.0000
  C   C34       1.0  0.04570075702900303  0.9758153230270422  0.8956524398294333  1.0000
  C   C35       1.0  0.7978910457510863  0.7004043152727844  0.7050119102099186  1.0000
  C   C36       1.0  0.868002272868118  0.9003767358627995  0.6755749454703021  1.0000
  C   C37       1.0  0.6251690773688947  0.8235388749539747  0.7082887983382232  1.0000
  C   C38       1.0  0.6992505301787872  0.6479132467550315  0.465210473439896  1.0000
  C   C39       1.0  0.5449190430015634  0.6187221953664802  0.4361535473019272  1.0000
  C   C40       1.0  0.4530289817304335  0.6393822335828431  0.4831405528613144  1.0000
  C   C41       1.0  0.5155355653350568  0.6936446172467824  0.5578467280502081  1.0000
  C   C42       1.0  0.6695766131522944  0.727964141665552  0.5872133911307811  1.0000
  C   C43       1.0  0.7599737502726782  0.7014713234532479  0.5398801353674968  1.0000
  C   C44       1.0  0.7974612089883665  0.624028853380338  0.41545221753258227  1.0000
  C   C45       1.0  0.2866656279566299  0.6028373380781388  0.4576951458227469  1.0000
  C   C46       1.0  0.739009927536898  0.7882014005573054  0.6685091626675967  1.0000
  C   C47       1.0  0.20781936598570633  0.7651183975378969  0.6829418090558688  1.0000
  C   C48       1.0  0.28994091265468575  0.8250710711953816  0.753913760726405  1.0000
  C   C49       1.0  0.36588142614508706  0.9455049949489052  0.7679879013415983  1.0000
  C   C50       1.0  0.3602650371427529  0.003922899710694598  0.7111450127408928  1.0000
  C   C51       1.0  0.28480540222658846  0.9434118721354282  0.63873106290238  1.0000
  C   C52       1.0  0.20813713965937813  0.8235616849962  0.6258768338820956  1.0000
  C   C53       1.0  0.11592548714874336  0.6402646969978746  0.6660376702793867  1.0000
  C   C54       1.0  0.45167954656515263  0.0118644622398847  0.8439304369724849  1.0000
  C   C55       1.0  0.28175126108830995  0.007845853360493  0.5770570823053943  1.0000
  C   C56       1.0  0.1733084270461944  0.0817127049076518  0.5850675498291125  1.0000
  C   C57       1.0  0.4394923690904164  0.0890048519662372  0.5827555800833295  1.0000
  C   C58       1.0  0.22760034332490162  0.9210981260183005  0.5011865004536132  1.0000
  C   C59       1.0  0.9343673877119656  0.7208380861912858  0.24808889820837976  1.0000
  C   C60       1.0  0.9539104092155738  0.7814508752524532  0.1935814957668427  1.0000
  C   C61       1.0  0.09354889115105179  0.809274515956595  0.17567649319643408  1.0000
  C   C62       1.0  0.2092493694475123  0.776892950725944  0.215084097503535  1.0000
  C   C63       1.0  0.18039853091891445  0.7179165350701312  0.2691893436445838  1.0000
  C   C64       1.0  0.9704295135403241  0.9147709048282452  0.0747559719734738  1.0000
  C   C65       1.0  0.855037140930335  0.8350320864292723  0.017844416968799147  1.0000
  C   C66       1.0  0.7277341050625806  0.8667170261977118  0.9936307173319887  1.0000
  C   C67       1.0  0.8226784294682971  0.04796987812549959  0.07760686003388877  1.0000
  C   C68       1.0  0.9543014680604429  0.0241884331344693  0.10435047239683119  1.0000
  S   S1        1.0  0.8619902298846116  0.11732903269976448  0.8927880489746014  1.0000
  S   S2        1.0  0.13801622547357076  0.882677368843538  0.10721450412653158  1.0000
  N   N1        1.0  0.9551667493820375  0.3114258250207769  0.7143555756405674  1.0000
  N   N2        1.0  0.2897375175801642  0.029193192494936702  0.976422409451558  1.0000
  N   N3        1.0  0.04482673715794047  0.6885691538597101  0.28564185100783845  1.0000
  N   N4        1.0  0.7102682947435355  0.9708088052836602  0.023577989923190032  1.0000
  O   O1        1.0  0.06376062497611906  0.3701330045755427  0.5551558635415643  1.0000
  O   O2        1.0  0.2467598246484997  0.39890398519898446  0.6528105671241844  1.0000
  O   O3        1.0  0.7716662108518973  0.3997569550919806  0.6088556531110924  1.0000
  O   O4        1.0  0.7847353604234115  0.421468946548778  0.49414195145047995  1.0000
  O   O5        1.0  0.8846326602525849  0.4209243099754331  0.28617075984460166  1.0000
  O   O6        1.0  0.9708760339032594  0.405517396991705  0.39826840931299756  1.0000
  O   O7        1.0  0.5259303137039737  0.049787263548644496  0.10958102291623818  1.0000
  O   O8        1.0  0.5039251878496812  0.8756432432867666  0.14118559941545772  1.0000
  O   O9        1.0  0.4037558562378932  0.8213422877167813  0.003577837667783984  1.0000
  O   O10       1.0  0.9362367376983939  0.6298637197580135  0.4448431612652896  1.0000
  O   O11       1.0  0.7532405919481774  0.6011033341594822  0.3471899905374442  1.0000
  O   O12       1.0  0.22833256281954553  0.6002406524787104  0.39114307758587324  1.0000
  O   O13       1.0  0.21526417032220724  0.5785251231758082  0.5058564242283551  1.0000
  O   O14       1.0  0.11535789025383271  0.5790768440415802  0.7138297637681033  1.0000
  O   O15       1.0  0.029126662082156002  0.594479321817353  0.6017295136806309  1.0000
  O   O16       1.0  0.4740652974497479  0.9502076992672102  0.8904176372613929  1.0000
  O   O17       1.0  0.49607502122157854  0.1243525786692956  0.8588146169461266  1.0000
  O   O18       1.0  0.5962467990122208  0.17865707396624936  0.9964214447785549  1.0000
