data_image0
_chemical_formula_structural       Ag6H24C14S2N6O12
_chemical_formula_sum              "Ag6 H24 C14 S2 N6 O12"
_cell_length_a       6.1647929637620775
_cell_length_b       8.333792411821463
_cell_length_c       12.831533158449115
_cell_angle_alpha    90.37310964134743
_cell_angle_beta     79.01527256798391
_cell_angle_gamma    83.91519931912231

_space_group_name_H-M_alt    "P 1"
_space_group_IT_number       1

loop_
  _space_group_symop_operation_xyz
  'x, y, z'

loop_
  _atom_site_type_symbol
  _atom_site_label
  _atom_site_symmetry_multiplicity
  _atom_site_fract_x
  _atom_site_fract_y
  _atom_site_fract_z
  _atom_site_occupancy
  Ag  Ag1       1.0  2.1639647229830366e-07  1.2760881205006234e-06  0.4999993242447331  1.0000
  Ag  Ag2       1.0  0.6639058703506749  0.884386012364665  0.3791873213992716  1.0000
  Ag  Ag3       1.0  0.336096769261502  0.1156138659422439  0.6208128200000474  1.0000
  Ag  Ag4       1.0  0.4999942241050094  1.6829694970052766e-07  2.1001276025056083e-06  1.0000
  Ag  Ag5       1.0  0.454426660807151  0.6720760313702454  0.029186149487188087  1.0000
  Ag  Ag6       1.0  0.5455755065914687  0.3279165653844344  0.9708109147360703  1.0000
  H   H1        1.0  0.2825370235015045  0.7870799422586996  0.5838730469167501  1.0000
  H   H2        1.0  0.7174621430175846  0.21292112811653402  0.41612661832673586  1.0000
  H   H3        1.0  0.21156590651661844  0.6904490340157209  0.4839788066131092  1.0000
  H   H4        1.0  0.7884317938715099  0.30955082611851736  0.516020986434377  1.0000
  H   H5        1.0  0.035563361458400784  0.7226888949965727  0.5973914150737656  1.0000
  H   H6        1.0  0.9644360071100024  0.27731095933779676  0.40260745301183937  1.0000
  H   H7        1.0  0.7341478785036486  0.5700869501467593  0.3462372102680291  1.0000
  H   H8        1.0  0.26584982188448697  0.42991290998747894  0.6537625827794571  1.0000
  H   H9        1.0  0.7994621439303913  0.6136358617237929  0.4619493712573615  1.0000
  H   H10       1.0  0.2005372083088162  0.3863640015036437  0.5380502776376161  1.0000
  H   H11       1.0  0.9774481407440732  0.6358171100731907  0.34745582041828277  1.0000
  H   H12       1.0  0.022548800434371682  0.36418758754528824  0.6525448188326379  1.0000
  H   H13       1.0  0.7448230406187262  0.5550110433018673  0.14294164860880446  1.0000
  H   H14       1.0  0.25517376712801365  0.4449839762549317  0.8570574423877702  1.0000
  H   H15       1.0  0.7370923938682665  0.7558897121696474  0.14308563585614562  1.0000
  H   H16       1.0  0.2629038730472928  0.24410891993746023  0.8569127233765955  1.0000
  H   H17       1.0  0.89452802087429  0.6519725512011049  0.04219941617974848  1.0000
  H   H18       1.0  0.10547171913436418  0.34802488883768495  0.9577994192088255  1.0000
  H   H19       1.0  0.327399294516077  0.862573827379471  0.2892592175911943  1.0000
  H   H20       1.0  0.6725995691803847  0.1374187631888049  0.7107381349370884  1.0000
  H   H21       1.0  0.04633391842859423  0.8791621930505966  0.17634087759734737  1.0000
  H   H22       1.0  0.953663273786745  0.12084126184781499  0.823656622067567  1.0000
  H   H23       1.0  0.06364854080158726  0.39357155229814816  0.1597146143286565  1.0000
  H   H24       1.0  0.9363577249654186  0.6064259445787881  0.8402875484967255  1.0000
  C   C1        1.0  0.2748441801499908  0.2699356605613942  0.2544438959978166  1.0000
  C   C2        1.0  0.7251582900712561  0.7300654160002366  0.745555480940645  1.0000
  C   C3        1.0  0.3559244503847054  0.11965348156140719  0.29422977603292116  1.0000
  C   C4        1.0  0.6440792512597966  0.8803500390682188  0.7057718318781737  1.0000
  C   C5        1.0  0.26657993652894857  0.9803720701404403  0.2626421978898676  1.0000
  C   C6        1.0  0.7334266973774605  0.019633870971169594  0.7373591544132267  1.0000
  C   C7        1.0  0.10940513011020414  0.989212288464692  0.19830346119075407  1.0000
  C   C8        1.0  0.8906070001806298  0.0107900493762116  0.8016981904186338  1.0000
  C   C9        1.0  0.03234885034595442  0.13819421271616503  0.1596891281487558  1.0000
  C   C10       1.0  0.9676549329445123  0.8618092634481158  0.8403085757154756  1.0000
  C   C11       1.0  0.12019420943206431  0.27676679840579504  0.18790651339938344  1.0000
  C   C12       1.0  0.8798152559629457  0.723231867339983  0.8120914734226262  1.0000
  C   C13       1.0  0.8589957740881147  0.14847296218961498  0.09403696758032251  1.0000
  C   C14       1.0  0.14100189364162938  0.8515269157307653  0.9059643870859091  1.0000
  S   S1        1.0  0.3656076746124697  0.45329034331219015  0.2912952717841081  1.0000
  S   S2        1.0  0.6343870608553602  0.5467071141261995  0.7087063384901171  1.0000
  N   N1        1.0  0.153315350786535  0.7741629016362878  0.5448446474790388  1.0000
  N   N2        1.0  0.8466840177818683  0.2258369526980814  0.4551542206065662  1.0000
  N   N3        1.0  0.8135693175960766  0.6487838702862732  0.3845064894137026  1.0000
  N   N4        1.0  0.18642838279205168  0.3512159898479652  0.6154933036337837  1.0000
  N   N5        1.0  0.7474359348640718  0.6545976568393784  0.096072948525439  1.0000
  N   N6        1.0  0.25256233901362896  0.3453985729584089  0.9039260146671283  1.0000
  O   O1        1.0  0.6100005828442078  0.4342108377140832  0.264387441473545  1.0000
  O   O2        1.0  0.38999511058178643  0.5657914247294683  0.7356117476141151  1.0000
  O   O3        1.0  0.281560370358136  0.4775759946314223  0.4068103344292737  1.0000
  O   O4        1.0  0.7184388124901488  0.5224250668507366  0.5931885500048396  1.0000
  O   O5        1.0  0.26199386662936064  0.5809410381971388  0.23158420907172678  1.0000
  O   O6        1.0  0.7380060427702233  0.4190552035869217  0.7684153907777046  1.0000
  O   O7        1.0  0.5005259828928317  0.1120919455209446  0.3572880016459621  1.0000
  O   O8        1.0  0.49947679345189755  0.8879067523173771  0.6427144658329594  1.0000
  O   O9        1.0  0.8296180410198275  0.2788939063418567  0.042727041019915625  1.0000
  O   O10       1.0  0.17038365366253322  0.7211120165970826  0.9572739629313461  1.0000
  O   O11       1.0  0.7496249537365712  0.026857209965569995  0.09304870152860191  1.0000
  O   O12       1.0  0.2503701988582422  0.9731486650282901  0.9069497557952246  1.0000
