data_image0
_chemical_formula_structural       Hg2H28C36I4N8O4
_chemical_formula_sum              "Hg2 H28 C36 I4 N8 O4"
_cell_length_a       4.976442347479225
_cell_length_b       8.384978203467245
_cell_length_c       24.892263068459105
_cell_angle_alpha    95.8165579509806
_cell_angle_beta     89.96076530694472
_cell_angle_gamma    107.30069280598693

_space_group_name_H-M_alt    "P 1"
_space_group_IT_number       1

loop_
  _space_group_symop_operation_xyz
  'x, y, z'

loop_
  _atom_site_type_symbol
  _atom_site_label
  _atom_site_symmetry_multiplicity
  _atom_site_fract_x
  _atom_site_fract_y
  _atom_site_fract_z
  _atom_site_occupancy
  Hg  Hg1       1.0  0.7675475768958717  2.4840535942898828e-05  0.24993888687171753  1.0000
  Hg  Hg2       1.0  0.23245241180993037  0.9999778150257228  0.7500606264327556  1.0000
  H   H1        1.0  0.2197710288332927  0.6645586146576576  0.20074353203814604  1.0000
  H   H2        1.0  0.5539292567191723  0.3353666821526957  0.2989846379198865  1.0000
  H   H3        1.0  0.7802329885813177  0.3354440659446638  0.7992575887516364  1.0000
  H   H4        1.0  0.4460694746177011  0.6646334610564396  0.7010147936722786  1.0000
  H   H5        1.0  0.8070450871313213  0.5878846954383407  0.13530061927434633  1.0000
  H   H6        1.0  0.21865310295969198  0.4117620854689577  0.36481875859458046  1.0000
  H   H7        1.0  0.19295641319815351  0.4121129543902882  0.8646999361574285  1.0000
  H   H8        1.0  0.7813502810758803  0.5882393268198313  0.6351815174722686  1.0000
  H   H9        1.0  0.7734196903341083  0.7979691361334601  0.07164947080776327  1.0000
  H   H10       1.0  0.9761919251462388  0.20162702993118134  0.4285725193939739  1.0000
  H   H11       1.0  0.22658117896361313  0.20202725145027497  0.9283506418344768  1.0000
  H   H12       1.0  0.023814849524526848  0.7983731269474887  0.5714277155684826  1.0000
  H   H13       1.0  0.5512581910279976  0.12944390857961707  0.14538759055015046  1.0000
  H   H14       1.0  0.41936868273222655  0.8699031598226199  0.3538728868390563  1.0000
  H   H15       1.0  0.4487391593335132  0.8705574904227119  0.8546118820222899  1.0000
  H   H16       1.0  0.5806346989560538  0.1300982463975444  0.6461269872944084  1.0000
  H   H17       1.0  0.7712418304825448  0.2981745118744996  0.9783663665208377  1.0000
  H   H18       1.0  0.4731041126525637  0.7024562366699668  0.5213993394834657  1.0000
  H   H19       1.0  0.22875954624048925  0.7018269060998533  0.02163431160352759  1.0000
  H   H20       1.0  0.5268873370304803  0.2975414051746911  0.47860081463552706  1.0000
  H   H21       1.0  0.13564526141496458  0.44668031901779415  0.06996824470992638  1.0000
  H   H22       1.0  0.6886271750584355  0.5521654650718091  0.4299607755681335  1.0000
  H   H23       1.0  0.8643561176553545  0.5533211050251976  0.9300328353478302  1.0000
  H   H24       1.0  0.31136490096178443  0.44783342688047867  0.5700390174736254  1.0000
  H   H25       1.0  0.5772363577825175  0.16890087617812813  0.05797922551571589  1.0000
  H   H26       1.0  0.4079490003093509  0.8307925687444211  0.44167037678644744  1.0000
  H   H27       1.0  0.42276501659322446  0.8311005357276002  0.9420210506752579  1.0000
  H   H28       1.0  0.5920491093849236  0.1692063364943408  0.5583302197497273  1.0000
  C   C1        1.0  0.1978796214154171  0.75023285673889  0.1719547616362646  1.0000
  C   C2        1.0  0.44638239931410334  0.24961140262116996  0.3277900126673074  1.0000
  C   C3        1.0  0.8021231339356945  0.2497672993736444  0.8280454735744411  1.0000
  C   C4        1.0  0.5536163367173541  0.7503887527252217  0.6722102227916338  1.0000
  C   C5        1.0  0.9693872839369532  0.7083755508204989  0.13524300202534076  1.0000
  C   C6        1.0  0.2603201926920987  0.291278800444573  0.36470206185293097  1.0000
  C   C7        1.0  0.03061546671958128  0.29162459315477207  0.8647564293185891  1.0000
  C   C8        1.0  0.7396825603117275  0.7087213495993295  0.6352977714243833  1.0000
  C   C9        1.0  0.9506773270194699  0.8243281503601381  0.10023910992455137  1.0000
  C   C10       1.0  0.12617709170175564  0.17525232639999186  0.3997456749725073  1.0000
  C   C11       1.0  0.04932215660831217  0.17566948087952736  0.8997602398311881  1.0000
  C   C12       1.0  0.8738242826739934  0.8247490855057366  0.6002546012184664  1.0000
  C   C13       1.0  0.16510226499352132  0.9771935918976169  0.10201828398292886  1.0000
  C   C14       1.0  0.1868947144551285  0.022184846237841793  0.39768900636754967  1.0000
  C   C15       1.0  0.8348978473187216  0.02280529551831729  0.897981106628961  1.0000
  C   C16       1.0  0.8131013808847454  0.9778140464805817  0.6023107864259669  1.0000
  C   C17       1.0  0.38483995923892417  0.009339617510058  0.14041708782097825  1.0000
  C   C18       1.0  0.3736323052896181  0.9900744437662539  0.35907050008624697  1.0000
  C   C19       1.0  0.6151581457607731  0.9906592755914402  0.8595827048484208  1.0000
  C   C20       1.0  0.6263690667388389  0.009926962070842597  0.6409293741713424  1.0000
  C   C21       1.0  0.14892159564426066  0.1092696242851687  0.06737772477271158  1.0000
  C   C22       1.0  0.03905855457974635  0.889976404135723  0.43237577255470666  1.0000
  C   C23       1.0  0.8510771380399049  0.8907305249925913  0.9326221087528449  1.0000
  C   C24       1.0  0.960940810136165  0.1100250073869375  0.5676245037603918  1.0000
  C   C25       1.0  0.6526496049162983  0.3871765609019774  0.9876183998356749  1.0000
  C   C26       1.0  0.2654692871165381  0.6131534629179924  0.5122500786610118  1.0000
  C   C27       1.0  0.3473544124983119  0.6128261197003438  0.012382720954114697  1.0000
  C   C28       1.0  0.734522160219214  0.3868441728580335  0.4877496735245898  1.0000
  C   C29       1.0  0.4465202549352083  0.3551749337903657  0.02684448178354869  1.0000
  C   C30       1.0  0.09124549955008374  0.6445321035233817  0.4729789912367364  1.0000
  C   C31       1.0  0.5534817528195786  0.6448277464288876  0.9731566391303584  1.0000
  C   C32       1.0  0.9087453191012071  0.35546427607638253  0.5270207200927144  1.0000
  C   C33       1.0  0.2939375603601987  0.46947541259076075  0.03919391277741369  1.0000
  C   C34       1.0  0.8243433630307349  0.5298827806810565  0.4607595272824837  1.0000
  C   C35       1.0  0.7060644473945813  0.5305272676284929  0.9608072081364936  1.0000
  C   C36       1.0  0.17564946293309444  0.47011359323314383  0.5392397819894582  1.0000
  I   I1        1.0  0.039604104184924306  0.2973125395679259  0.21375432905532674  1.0000
  I   I2        1.0  0.7394784281377437  0.7021360750449332  0.2857647201521302  1.0000
  I   I3        1.0  0.9604020112866322  0.7026862822422827  0.7862406399169402  1.0000
  I   I4        1.0  0.2605201842872659  0.29786784844719  0.7142356379993939  1.0000
  N   N1        1.0  0.39932719266644756  0.8987738589747993  0.17463564844933896  1.0000
  N   N2        1.0  0.49867052284996277  0.1009174993553614  0.3249008980328013  1.0000
  N   N3        1.0  0.6006748080464773  0.1012288030385591  0.825364266664401  1.0000
  N   N4        1.0  0.5013302204940329  0.8990826503054734  0.6750989353686305  1.0000
  N   N5        1.0  0.4039293857312882  0.21029344046338846  0.05390720353114628  1.0000
  N   N6        1.0  0.19324969904263867  0.7892072235146729  0.4457958382197729  1.0000
  N   N7        1.0  0.5960707312755317  0.7897054590898023  0.9460929909475194  1.0000
  N   N8        1.0  0.8067457699600593  0.2107904190961207  0.5542043156509775  1.0000
  O   O1        1.0  0.9187466401070237  0.1250425568407394  0.053176782801720876  1.0000
  O   O2        1.0  0.7931460097644203  0.873963809315697  0.44670918814250615  1.0000
  O   O3        1.0  0.08125473192143301  0.874958848996357  0.9468230914558685  1.0000
  O   O4        1.0  0.2068539812886669  0.12603885231459339  0.5532907270953586  1.0000
