data_image0
_chemical_formula_structural       Zn8H72C96O26
_chemical_formula_sum              "Zn8 H72 C96 O26"
_cell_length_a       23.744527156153378
_cell_length_b       23.745866137362484
_cell_length_c       23.745786428387948
_cell_angle_alpha    66.16588916587189
_cell_angle_beta     72.66557549976812
_cell_angle_gamma    107.32927431088247

_space_group_name_H-M_alt    "P 1"
_space_group_IT_number       1

loop_
  _space_group_symop_operation_xyz
  'x, y, z'

loop_
  _atom_site_type_symbol
  _atom_site_label
  _atom_site_symmetry_multiplicity
  _atom_site_fract_x
  _atom_site_fract_y
  _atom_site_fract_z
  _atom_site_occupancy
  Zn  Zn1       1.0  0.055810684332953976  0.9557552771623463  0.486310111520062  1.0000
  Zn  Zn2       1.0  0.055813705401092796  0.0999099034081325  0.45796303380133435  1.0000
  Zn  Zn3       1.0  0.9441264816269098  0.9860690274136348  0.45590079217078705  1.0000
  Zn  Zn4       1.0  0.9440710781167211  0.9580585054888289  0.5999145160345163  1.0000
  Zn  Zn5       1.0  0.9420387565035853  0.5419341185411071  0.013996654495798441  1.0000
  Zn  Zn6       1.0  0.058023046003285075  0.5138533658365746  0.041997718490449566  1.0000
  Zn  Zn7       1.0  0.9421144756657115  0.40008101920258815  0.0440841415732223  1.0000
  Zn  Zn8       1.0  0.05794997940883923  0.5442317272272135  0.8999808669249842  1.0000
  H   H1        1.0  0.9227015174175008  0.7978486452758347  0.778254505309299  1.0000
  H   H2        1.0  0.07554401423895715  0.7010679671668852  0.7224976880597467  1.0000
  H   H3        1.0  0.9238167652247072  0.7020067420341861  0.8751908810710698  1.0000
  H   H4        1.0  0.07634096310377447  0.798815289635037  0.6255595439215824  1.0000
  H   H5        1.0  0.9228618332778709  0.12517757826845602  0.29911655932840375  1.0000
  H   H6        1.0  0.07576399700089807  0.3746899791971217  0.2021991236898231  1.0000
  H   H7        1.0  0.9239076063853703  0.2222197699759007  0.20119426094502998  1.0000
  H   H8        1.0  0.07661660974709149  0.27766688568657116  0.29819949075785956  1.0000
  H   H9        1.0  0.9098913515989793  0.6948348765915  0.1940767083374552  1.0000
  H   H10       1.0  0.09005208202623304  0.6940290552071249  0.19507017418985817  1.0000
  H   H11       1.0  0.9040474436277396  0.7948369301934832  0.314640314450287  1.0000
  H   H12       1.0  0.0960797686153896  0.814660735818137  0.29458996768870793  1.0000
  H   H13       1.0  0.09049635072229728  0.3956740363499733  0.7151862324758297  1.0000
  H   H14       1.0  0.9095507161206695  0.2152288560292276  0.8957675745582278  1.0000
  H   H15       1.0  0.09597741357582378  0.28138653745332926  0.6092373014626984  1.0000
  H   H16       1.0  0.9040235356794993  0.10921008306520734  0.7813282340343545  1.0000
  H   H17       1.0  0.6094736115765045  0.39091359716398694  0.20501235615974173  1.0000
  H   H18       1.0  0.6093810034935175  0.21874995942112457  0.18517585850820237  1.0000
  H   H19       1.0  0.38901776298372687  0.2847983044202493  0.3057272457777173  1.0000
  H   H20       1.0  0.3891624714197448  0.10443069019385112  0.30502055438147113  1.0000
  H   H21       1.0  0.3905864677426009  0.7051835452208833  0.8907816242868305  1.0000
  H   H22       1.0  0.390698319290152  0.6853065730827197  0.7186392551954481  1.0000
  H   H23       1.0  0.6111076184959644  0.8048672285322314  0.7850366588527462  1.0000
  H   H24       1.0  0.6109382056893934  0.8059777660397173  0.6039521963941892  1.0000
  H   H25       1.0  0.8602326998796385  0.6529886877207999  0.1464029370081478  1.0000
  H   H26       1.0  0.8579579799759427  0.5735932861093572  0.1566484948109945  1.0000
  H   H27       1.0  0.9077679793009709  0.6515162331245749  0.07341568057568526  1.0000
  H   H28       1.0  0.13974604580775463  0.6462111579546459  0.15340267593722962  1.0000
  H   H29       1.0  0.1420931685040046  0.6563863518586218  0.07401071361016408  1.0000
  H   H30       1.0  0.09221309450728644  0.5731926961667071  0.15198412226473573  1.0000
  H   H31       1.0  0.8983843620361612  0.9148692774516578  0.3490567081806686  1.0000
  H   H32       1.0  0.8655704973060734  0.8459907661393086  0.4358529936106664  1.0000
  H   H33       1.0  0.8452590336698764  0.827400524142476  0.37672651338090873  1.0000
  H   H34       1.0  0.10202637210547041  0.8490942687725607  0.4145609057154897  1.0000
  H   H35       1.0  0.13480889122095618  0.9358748605950709  0.3457256408577222  1.0000
  H   H36       1.0  0.15506999145611639  0.8767498046692453  0.32707151018679076  1.0000
  H   H37       1.0  0.14064524799674422  0.492805306127309  0.7074664378978851  1.0000
  H   H38       1.0  0.142140854794583  0.4851282924192334  0.7847538382182291  1.0000
  H   H39       1.0  0.0929566934209021  0.5188512084087833  0.7555678681653644  1.0000
  H   H40       1.0  0.8594755856171691  0.207653809145363  0.9928032331362355  1.0000
  H   H41       1.0  0.8579294319539627  0.2849681129814742  0.9849926166046215  1.0000
  H   H42       1.0  0.9071333808367611  0.2558852202698033  0.018770352303136027  1.0000
  H   H43       1.0  0.10172980462689907  0.25284385712767227  0.4833913445438893  1.0000
  H   H44       1.0  0.1346606979016798  0.1989509341965174  0.5193719686931856  1.0000
  H   H45       1.0  0.15483737137821404  0.2783187305535151  0.5177647107209038  1.0000
  H   H46       1.0  0.8982625607483359  0.9834892962566217  0.7525869859441837  1.0000
  H   H47       1.0  0.8654071616611531  0.019555319872011888  0.698655342338398  1.0000
  H   H48       1.0  0.845154813597027  0.017841548381276977  0.7780920484989762  1.0000
  H   H49       1.0  0.7639604430698836  0.5166043270536632  0.08508432235424822  1.0000
  H   H50       1.0  0.7817644980784308  0.4804969189616061  0.15405497615924438  1.0000
  H   H51       1.0  0.7040635015713337  0.48225606040599445  0.17252453225553663  1.0000
  H   H52       1.0  0.7637492462166974  0.24722454973282015  0.15090991917938365  1.0000
  H   H53       1.0  0.7817239933040908  0.30117617523185203  0.06410838201804119  1.0000
  H   H54       1.0  0.7039305181367013  0.2218099229309515  0.12323192111276163  1.0000
  H   H55       1.0  0.2995562102873989  0.2922833316427216  0.3485104184433609  1.0000
  H   H56       1.0  0.23000627270653945  0.2149065899057234  0.42724645834451275  1.0000
  H   H57       1.0  0.22540573734919178  0.24420003168316376  0.34891101789936835  1.0000
  H   H58       1.0  0.299773808290702  0.0072820935850543955  0.35204827292115926  1.0000
  H   H59       1.0  0.23008792735416966  0.014903553823586367  0.3430159292573122  1.0000
  H   H60       1.0  0.22567697759255612  0.9811835730857723  0.42586215233576025  1.0000
  H   H61       1.0  0.23616652562512286  0.5852271771928913  0.01650064541833267  1.0000
  H   H62       1.0  0.21823341833561466  0.6541025691742419  0.9804292772693439  1.0000
  H   H63       1.0  0.2959693699965059  0.6727051407672705  0.9821169028865452  1.0000
  H   H64       1.0  0.2363016072929583  0.6509347691834934  0.7471560461276423  1.0000
  H   H65       1.0  0.2183524161058444  0.5641471352560147  0.8011400741173345  1.0000
  H   H66       1.0  0.2961147752310112  0.6232640564030945  0.7217560005981908  1.0000
  H   H67       1.0  0.7006238315095247  0.8465294198343116  0.792914807315469  1.0000
  H   H68       1.0  0.7696955480967703  0.9260444832581528  0.7158923038186057  1.0000
  H   H69       1.0  0.7751397609311327  0.8481924651931935  0.7437374675635835  1.0000
  H   H70       1.0  0.7004157576328751  0.8538701078816543  0.5064401276146594  1.0000
  H   H71       1.0  0.769611380545086  0.8435969760963004  0.5142657035345974  1.0000
  H   H72       1.0  0.774881589021625  0.9268110885733803  0.48102074416904345  1.0000
  C   C1        1.0  0.17993208799298094  0.08985658118371731  0.4101869530011867  1.0000
  C   C2        1.0  0.9997875361006976  0.13831471237069315  0.3616672373338614  1.0000
  C   C3        1.0  0.0002252324826200794  0.908974018113575  0.40882337579444794  1.0000
  C   C4        1.0  0.8201625836241462  0.9101294083233142  0.5897594936619154  1.0000
  C   C5        1.0  0.9995339368399812  0.8613841484814773  0.6387880034671907  1.0000
  C   C6        1.0  6.119329559340783e-05  0.09115928237243051  0.5909945603664182  1.0000
  C   C7        1.0  4.24736262871139e-05  0.5897449589704138  0.09010542284193687  1.0000
  C   C8        1.0  0.9999413420154969  0.361573011577704  0.1385554517376802  1.0000
  C   C9        1.0  0.8178490490609107  0.4088742989897013  0.09101033256145995  1.0000
  C   C10       1.0  2.837572795760535e-05  0.4101769938504987  0.909909697609997  1.0000
  C   C11       1.0  0.9998174522936831  0.6385471358682648  0.8618583048011741  1.0000
  C   C12       1.0  0.18221110268819984  0.5910610010884129  0.9088172341814765  1.0000
  C   C13       1.0  0.999518150246274  0.803753371822502  0.6964888059083805  1.0000
  C   C14       1.0  0.9996892092954964  0.6961230391300645  0.8042555042729231  1.0000
  C   C15       1.0  0.9561909097601032  0.776517268792837  0.7667265020286602  1.0000
  C   C16       1.0  0.042608621006657264  0.7229638999246931  0.7340136296067284  1.0000
  C   C17       1.0  0.9566648622941823  0.7233463757531877  0.8203601865658284  1.0000
  C   C18       1.0  0.04291669423462723  0.7768978654115204  0.6803973985603304  1.0000
  C   C19       1.0  0.9997397947510506  0.19599415604742612  0.3040709031347788  1.0000
  C   C20       1.0  0.9998382050989322  0.3038741542844645  0.19628146484287615  1.0000
  C   C21       1.0  0.9563505540559448  0.17997440435685516  0.2771887270499105  1.0000
  C   C22       1.0  0.042813196046274975  0.31988912683994636  0.22357550674145435  1.0000
  C   C23       1.0  0.9567933529118873  0.23365823771366223  0.22316334591643264  1.0000
  C   C24       1.0  0.04314452220515361  0.26620952616603694  0.2768186010985473  1.0000
  C   C25       1.0  1.6132471230985555e-05  0.6273374026021017  0.12763725513345028  1.0000
  C   C26       1.0  0.948164619276163  0.6456942601976718  0.1454533079063154  1.0000
  C   C27       1.0  0.9493614202456585  0.6807701006207979  0.18047159492169115  1.0000
  C   C28       1.0  0.9999588317870902  0.6986800699884412  0.19881904942675988  1.0000
  C   C29       1.0  0.05059584822150507  0.6803556403825298  0.1809876438158966  1.0000
  C   C30       1.0  0.05184358715473549  0.6452588386140975  0.14599343186085884  1.0000
  C   C31       1.0  0.9999411422505134  0.7342519786214368  0.23430918057229624  1.0000
  C   C32       1.0  8.933754600059848e-06  0.7650039120999209  0.264951186115013  1.0000
  C   C33       1.0  4.853472017876483e-05  0.8005585259054442  0.3004668370706511  1.0000
  C   C34       1.0  0.9461772589749132  0.8132387763890138  0.32392804904935674  1.0000
  C   C35       1.0  0.9454730135106428  0.8487544219970428  0.3584873010253845  1.0000
  C   C36       1.0  0.0001888455855834285  0.8714338319467528  0.3712608375242822  1.0000
  C   C37       1.0  0.05483314270296792  0.8585832519261559  0.34853475568411346  1.0000
  C   C38       1.0  0.053998515674379584  0.8239993820618068  0.3130527759738228  1.0000
  C   C39       1.0  3.718894448211664e-05  0.3725648508365182  0.8723922632798348  1.0000
  C   C40       1.0  0.05207044576534511  0.40633587354540884  0.8023527342491615  1.0000
  C   C41       1.0  0.05084662295270444  0.37000647001620013  0.7685857257592018  1.0000
  C   C42       1.0  1.3122467798572673e-05  0.30119470918378966  0.8012347879438123  1.0000
  C   C43       1.0  0.9492084521308611  0.2686292700508234  0.8700403574954761  1.0000
  C   C44       1.0  0.948007895233502  0.3024996049246339  0.9062700168522251  1.0000
  C   C45       1.0  0.9999982251715165  0.2656321981184887  0.7657372015861055  1.0000
  C   C46       1.0  0.9999883032489408  0.23495522995951743  0.7350335446277254  1.0000
  C   C47       1.0  0.9999968233826166  0.1994526557841993  0.6994671985983769  1.0000
  C   C48       1.0  0.05390195186641479  0.2299628725450305  0.6329052467252578  1.0000
  C   C49       1.0  0.054670886291887696  0.1962029775266885  0.5965912315685313  1.0000
  C   C50       1.0  2.6504854837101064e-05  0.128706027102595  0.6285505353751688  1.0000
  C   C51       1.0  0.9453532368449443  0.09668877857055949  0.6960535380286926  1.0000
  C   C52       1.0  0.946105328169189  0.13291516604809292  0.72990009760408  1.0000
  C   C53       1.0  0.7427488125783765  0.37138340688321125  0.12851882342977217  1.0000
  C   C54       1.0  0.7072666058267034  0.40341146044892195  0.15116631925618393  1.0000
  C   C55       1.0  0.6371990839240738  0.36720392714809674  0.18661545001641844  1.0000
  C   C56       1.0  0.6010927526055453  0.30067338649939745  0.1992394379084531  1.0000
  C   C57       1.0  0.6371434626090533  0.2701636285864736  0.17583418486164953  1.0000
  C   C58       1.0  0.7072077543233987  0.30389973574853  0.14133612126003917  1.0000
  C   C59       1.0  0.5300239260054838  0.26516080572398687  0.23478026113096456  1.0000
  C   C60       1.0  0.46864436273800436  0.23447881255533068  0.26548222320916887  1.0000
  C   C61       1.0  0.3975859890354699  0.19887929207287414  0.3010993057839143  1.0000
  C   C62       1.0  0.3613435668920815  0.23141031740129853  0.3194370183130529  1.0000
  C   C63       1.0  0.2912460125426506  0.19752183128169784  0.35456650571693854  1.0000
  C   C64       1.0  0.255064635019565  0.12747637529547975  0.3725540663186278  1.0000
  C   C65       1.0  0.2913358740284621  0.09372091142338228  0.354235639092323  1.0000
  C   C66       1.0  0.3614314360815811  0.13007356952581967  0.3190624586629766  1.0000
  C   C67       1.0  0.25731252949972133  0.6285982082124165  0.8713025047964533  1.0000
  C   C68       1.0  0.29280035842526075  0.6512860273016656  0.9033068800803077  1.0000
  C   C69       1.0  0.36287308001596585  0.6867660502072611  0.8670819823531983  1.0000
  C   C70       1.0  0.3989963814786107  0.6994190817577177  0.8005397637956475  1.0000
  C   C71       1.0  0.3629314390519627  0.6759922377941551  0.770046295931756  1.0000
  C   C72       1.0  0.29286294083637887  0.641433531651394  0.803810691823301  1.0000
  C   C73       1.0  0.47006608786703197  0.7349429130439802  0.7650215525639152  1.0000
  C   C74       1.0  0.5314532911200941  0.7656340569679115  0.7343317485519875  1.0000
  C   C75       1.0  0.6025188400138505  0.8011849984681805  0.6987487786769079  1.0000
  C   C76       1.0  0.638772330055126  0.8190034133635039  0.7314816532711885  1.0000
  C   C77       1.0  0.7088706585436881  0.8540780705259652  0.6976026959149734  1.0000
  C   C78       1.0  0.7450434908887614  0.8725121462346336  0.6273751182514572  1.0000
  C   C79       1.0  0.7087761045129781  0.854672397904622  0.5934340799779035  1.0000
  C   C80       1.0  0.6386820277730436  0.8195846969907947  0.6297654377815501  1.0000
  C   C81       1.0  0.8905010124771519  0.6302103722007428  0.12948593998103772  1.0000
  C   C82       1.0  0.10950066453963812  0.6292749173178649  0.13061559639093187  1.0000
  C   C83       1.0  0.885368641059152  0.8596956726104209  0.3814091117637587  1.0000
  C   C84       1.0  0.11499520269863005  0.8814465746416008  0.3594050619441302  1.0000
  C   C85       1.0  0.10999733249685299  0.47978961034966966  0.7602460881017875  1.0000
  C   C86       1.0  0.8900909716380881  0.2604667598630355  0.9797248526516921  1.0000
  C   C87       1.0  0.11477772116626289  0.23351955675745026  0.525529989758688  1.0000
  C   C88       1.0  0.8852365205691584  0.025646582409194697  0.733280965318478  1.0000
  C   C89       1.0  0.7410755288689829  0.4744310670229056  0.14026836310696192  1.0000
  C   C90       1.0  0.7409582520045959  0.2665821176126499  0.11852820711674637  1.0000
  C   C91       1.0  0.2598272974545352  0.2395132080288391  0.3705743745854448  1.0000
  C   C92       1.0  0.25999909316981723  0.020263518082039397  0.36975582561549186  1.0000
  C   C93       1.0  0.2589738754347267  0.6403919761169449  0.9743298462978129  1.0000
  C   C94       1.0  0.25909818342265817  0.618570014146428  0.7665257839795954  1.0000
  C   C95       1.0  0.740315252222068  0.8694439190458567  0.7398344078707806  1.0000
  C   C96       1.0  0.740139933196076  0.8707285124232553  0.5197724822380606  1.0000
  O   O1        1.0  0.9999964852550821  0.9999464245129704  0.49999188244402126  1.0000
  O   O2        1.0  0.1496433919551876  0.029072656485837494  0.4208294471496217  1.0000
  O   O3        1.0  0.04638324995475778  0.15608610037669016  0.3772731484148223  1.0000
  O   O4        1.0  0.9734385344792711  0.949089075529713  0.39852924315731986  1.0000
  O   O5        1.0  0.1495857144041324  0.12028477006671069  0.4299065009917341  1.0000
  O   O6        1.0  0.02703893122190233  0.8986301021492552  0.4489212449590595  1.0000
  O   O7        1.0  0.9532309743503832  0.07607685878715373  0.39047063054980674  1.0000
  O   O8        1.0  0.8504873909919863  0.9197243484860634  0.5294927235577374  1.0000
  O   O9        1.0  0.9530064179472436  0.8771189186684867  0.656478157393337  1.0000
  O   O10       1.0  0.8505044427681695  0.9309191472646318  0.6196705437465438  1.0000
  O   O11       1.0  0.04609731698044323  0.8901063595888277  0.5765972320599883  1.0000
  O   O12       1.0  0.026902864492001292  0.128269100476551  0.5240821621910925  1.0000
  O   O13       1.0  0.973259664007351  0.024264745441471027  0.6281029835732495  1.0000
  O   O14       1.0  7.003171471348237e-05  0.5000320649823209  0.9999765759674443  1.0000
  O   O15       1.0  0.9494222339732094  0.5690837603795913  0.08040617750893365  1.0000
  O   O16       1.0  0.03343754162287379  0.4238040687663299  0.12284389383492565  1.0000
  O   O17       1.0  0.8476212308395787  0.371734776866937  0.10131328619783625  1.0000
  O   O18       1.0  0.0506752583921752  0.5800479889169594  0.06949365984596761  1.0000
  O   O19       1.0  0.8476633702628504  0.47577934573730823  0.050938447897827636  1.0000
  O   O20       1.0  0.9665151333111767  0.3438173873388948  0.10975635533105071  1.0000
  O   O21       1.0  0.9498243842556348  0.37981157559611484  0.9706154651444405  1.0000
  O   O22       1.0  0.03329311077343535  0.6098277051468772  0.8440071598648157  1.0000
  O   O23       1.0  0.05023260300023939  0.4709056807960225  0.8794839584515655  1.0000
  O   O24       1.0  0.9664515610398611  0.6228618379452656  0.9241120503145552  1.0000
  O   O25       1.0  0.15240956991118532  0.5509352453325178  0.9757152478579979  1.0000
  O   O26       1.0  0.1524372295571226  0.6014092577988138  0.871688345397686  1.0000
