data_image0
_chemical_formula_structural       Al2H12C18O14
_chemical_formula_sum              "Al2 H12 C18 O14"
_cell_length_a       6.639127602959277
_cell_length_b       8.75502468381892
_cell_length_c       15.378706461319434
_cell_angle_alpha    77.2703358275469
_cell_angle_beta     78.03861956285803
_cell_angle_gamma    75.86943440743667

_space_group_name_H-M_alt    "P 1"
_space_group_IT_number       1

loop_
  _space_group_symop_operation_xyz
  'x, y, z'

loop_
  _atom_site_type_symbol
  _atom_site_label
  _atom_site_symmetry_multiplicity
  _atom_site_fract_x
  _atom_site_fract_y
  _atom_site_fract_z
  _atom_site_occupancy
  Al  Al1       1.0  0.49980093454211527  0.5002304077841303  0.4999675053796437  1.0000
  Al  Al2       1.0  0.9998596856280955  0.5001549839817374  0.49999273357463625  1.0000
  H   H1        1.0  0.2353651477906666  0.3874750034890795  0.6091987965302791  1.0000
  H   H2        1.0  0.7646729718224351  0.6120706775856279  0.39065980806745415  1.0000
  H   H3        1.0  0.1073043332574315  0.40434185517665366  0.2376067833965578  1.0000
  H   H4        1.0  0.8957133529017436  0.5917583751817974  0.7627478415798945  1.0000
  H   H5        1.0  0.34198247736897963  0.41112958622664325  0.7781695645495644  1.0000
  H   H6        1.0  0.2638726404625657  0.4077028741385789  0.9408305632862762  1.0000
  H   H7        1.0  0.6540445803546574  0.5941445178838337  0.22137433352192198  1.0000
  H   H8        1.0  0.7321571530337466  0.5976322316600574  0.05876732596367867  1.0000
  H   H9        1.0  0.1926621832082915  0.13526494008272746  0.522306648940649  1.0000
  H   H10       1.0  0.8069645754540318  0.8650959702761372  0.4775985237437934  1.0000
  H   H11       1.0  0.04407818217139689  0.3604034974424124  0.116227814004553  1.0000
  H   H12       1.0  0.9615518891423137  0.6325940194127072  0.8844615428021994  1.0000
  C   C1        1.0  0.6788499405833619  0.4982303616390454  0.660681813600462  1.0000
  C   C2        1.0  0.8322935788192468  0.2138141168473808  0.50204722761044  1.0000
  C   C3        1.0  0.3206676711338616  0.5022408262030141  0.3392856661207873  1.0000
  C   C4        1.0  0.16728362090236698  0.7865401122027652  0.4979029409700786  1.0000
  C   C5        1.0  0.10096159889271664  0.9576591728208045  0.5048648323840865  1.0000
  C   C6        1.0  0.8986399069518853  0.04274412219675838  0.49503328518962064  1.0000
  C   C7        1.0  0.37442673866441106  0.4992500295370732  0.2409035101994803  1.0000
  C   C8        1.0  0.6250640928448518  0.5014115158390384  0.7590498765195048  1.0000
  C   C9        1.0  0.24651150326278065  0.44610220575681586  0.19770170882214436  1.0000
  C   C10       1.0  0.2935077411730518  0.4425461697894805  0.10522579857422434  1.0000
  C   C11       1.0  0.7550539322323147  0.5519239673242068  0.8024848130960719  1.0000
  C   C12       1.0  0.7086446431282097  0.5549859640021921  0.8950351607067333  1.0000
  C   C13       1.0  0.4449317280924916  0.4521038326151229  0.8106414726404623  1.0000
  C   C14       1.0  0.4011784528576925  0.451461504013203  0.9028807843033276  1.0000
  C   C15       1.0  0.5527289068429936  0.551049690620552  0.18911093538923035  1.0000
  C   C16       1.0  0.5965785184454615  0.5516944888894885  0.09686564756574265  1.0000
  C   C17       1.0  0.472324822565291  0.4980765139190242  0.0496144977102091  1.0000
  C   C18       1.0  0.5277563724153893  0.5021356314243803  0.9504079611035505  1.0000
  O   O1        1.0  0.5397536532003642  0.4727851116567977  0.6226971731308523  1.0000
  O   O2        1.0  0.9711697778192487  0.2805627958580317  0.5186884276289305  1.0000
  O   O3        1.0  0.13811124217798457  0.48114011990738004  0.3790861846766092  1.0000
  O   O4        1.0  0.3541491860459231  0.7162959078133683  0.5074730960115302  1.0000
  O   O5        1.0  0.4597757192043658  0.5277081676293351  0.3772653960607569  1.0000
  O   O6        1.0  0.02835499422980801  0.719772769250767  0.4812910500569032  1.0000
  O   O7        1.0  0.8615159606259082  0.5190347134266207  0.6208932458093558  1.0000
  O   O8        1.0  0.6454321899557557  0.2840923297037534  0.4925044894220533  1.0000
  O   O9        1.0  0.25207274300187527  0.424513359084557  0.5444097168030735  1.0000
  O   O10       1.0  0.747634282536026  0.5758079270156388  0.45551799618540667  1.0000
  O   O11       1.0  0.25397943831168124  0.019824963002946557  0.5208988323629313  1.0000
  O   O12       1.0  0.745640244173792  0.9805298497121201  0.47902382210980216  1.0000
  O   O13       1.0  0.16149898771276835  0.38398279317887335  0.0692527649542711  1.0000
  O   O14       1.0  0.8434751443608589  0.6100804449682828  0.9313572461376649  1.0000
