data_image0
_chemical_formula_structural       Al2H10C28Cl6O10
_chemical_formula_sum              "Al2 H10 C28 Cl6 O10"
_cell_length_a       6.575951233448014
_cell_length_b       11.193626379222438
_cell_length_c       17.49328133532321
_cell_angle_alpha    87.69195203551823
_cell_angle_beta     82.95483841245824
_cell_angle_gamma    72.01733147327309

_space_group_name_H-M_alt    "P 1"
_space_group_IT_number       1

loop_
  _space_group_symop_operation_xyz
  'x, y, z'

loop_
  _atom_site_type_symbol
  _atom_site_label
  _atom_site_symmetry_multiplicity
  _atom_site_fract_x
  _atom_site_fract_y
  _atom_site_fract_z
  _atom_site_occupancy
  Al  Al1       1.0  0.5104849898736178  0.4829430138232169  0.5010680925798638  1.0000
  Al  Al2       1.0  0.01132723896701282  0.4832078424642391  0.5003972497383272  1.0000
  H   H1        1.0  0.3270545462739847  0.33252230397340554  0.5423802431724737  1.0000
  H   H2        1.0  0.7604028158683179  0.5435523347693234  0.40835156652639876  1.0000
  H   H3        1.0  0.5376697486810896  0.6094254245647548  0.2838650303443798  1.0000
  H   H4        1.0  0.5983691864884547  0.6490461659488744  0.1438311791954163  1.0000
  H   H5        1.0  0.1585203417239285  0.44570473328751353  0.10530585330731408  1.0000
  H   H6        1.0  0.7857170970447169  0.6387371060878594  0.8827105330749417  1.0000
  H   H7        1.0  0.41217125922364056  0.43810506725886716  0.7224553759373433  1.0000
  H   H8        1.0  0.2993189279047924  0.459390313043329  0.8636547500552395  1.0000
  H   H9        1.0  0.21931133652816476  0.20784201720111642  0.3996336774349415  1.0000
  H   H10       1.0  0.4689507191090883  0.7424519629659585  0.4198043832328651  1.0000
  C   C1        1.0  0.8706388576193833  0.25579752056476224  0.4938347245590009  1.0000
  C   C2        1.0  0.7166787624541016  0.5018112657314262  0.6377034375349594  1.0000
  C   C3        1.0  0.15085361007223236  0.7077137739455709  0.5068949935181023  1.0000
  C   C4        1.0  0.292771809163362  0.48818278115935254  0.36026108394860046  1.0000
  C   C5        1.0  0.31476086895357713  0.5067155803589857  0.2750652178325764  1.0000
  C   C6        1.0  0.4545984596289329  0.5743363249811679  0.244054350230968  1.0000
  C   C7        1.0  0.489169071266204  0.5964868789993504  0.16588460939640728  1.0000
  C   C8        1.0  0.38517089704696866  0.5482127038960203  0.11437117535547257  1.0000
  C   C9        1.0  0.24062730105692495  0.48305295554148847  0.1443161847210135  1.0000
  C   C10       1.0  0.20485845952038054  0.4629964393863091  0.2232903949796707  1.0000
  C   C11       1.0  0.4310473307162185  0.5584742668086021  0.03371697464282868  1.0000
  C   C12       1.0  0.4788381870166917  0.5581398874470197  0.9640224136083262  1.0000
  C   C13       1.0  0.5368210806090729  0.5490601403817977  0.8834191377092323  1.0000
  C   C14       1.0  0.704122667278078  0.5932880452349565  0.8481699741679519  1.0000
  C   C15       1.0  0.7681358876372786  0.5792829492977064  0.769152498016467  1.0000
  C   C16       1.0  0.6637668222266129  0.5217449512236243  0.7226017930601074  1.0000
  C   C17       1.0  0.494291877915657  0.4802120666505659  0.7588423299869547  1.0000
  C   C18       1.0  0.43086959662669944  0.4924495865661386  0.8372447299594583  1.0000
  C   C19       1.0  0.9422886961456741  0.11485416902331022  0.4952489380213335  1.0000
  C   C20       1.0  0.1411762586745695  0.0456540768725446  0.45279540394368206  1.0000
  C   C21       1.0  0.8164398738711539  0.05155385651482192  0.538650291360696  1.0000
  C   C22       1.0  0.27026432267219047  0.10615962812440219  0.40505026145463313  1.0000
  C   C23       1.0  0.4623587985837787  0.0383847275540035  0.36465411788306307  1.0000
  C   C24       1.0  0.07817209617563482  0.8485262627415581  0.5028449070989962  1.0000
  C   C25       1.0  0.8808345043260458  0.9176981544969963  0.5407616678424816  1.0000
  C   C26       1.0  0.21177319784320045  0.9112100530866486  0.45789057017256607  1.0000
  C   C27       1.0  0.4096793233361069  0.844034714163044  0.4155900137842465  1.0000
  C   C28       1.0  0.5327894820146  0.9051036096196371  0.3699853229136849  1.0000
  Cl  Cl1       1.0  0.028084022734006515  0.3783278503693878  0.2517708145641606  1.0000
  Cl  Cl2       1.0  0.9757858191720813  0.6374608492021637  0.7338782883135764  1.0000
  Cl  Cl3       1.0  0.7124356082822204  0.8460526934263439  0.5927670546494994  1.0000
  Cl  Cl4       1.0  0.5850908254313933  0.13141993613635353  0.5960877679209843  1.0000
  Cl  Cl5       1.0  0.6139735938943363  0.11662438161591379  0.3080356351363847  1.0000
  Cl  Cl6       1.0  0.7712029916295576  0.8177358665827301  0.3193349070969163  1.0000
  O   O1        1.0  0.680633353490478  0.31019738414468645  0.4781051105051262  1.0000
  O   O2        1.0  0.8898937297621502  0.516652556517073  0.604371643556149  1.0000
  O   O3        1.0  0.021221274842993312  0.6522203139366243  0.4900335699972445  1.0000
  O   O4        1.0  0.43902373243990683  0.5069177578521932  0.3956296808181463  1.0000
  O   O5        1.0  0.3397452213488562  0.6538694126116483  0.5244378419249074  1.0000
  O   O6        1.0  0.13032165897870832  0.45892178685483054  0.39259442996085875  1.0000
  O   O7        1.0  0.005702345009424854  0.30959354984036486  0.5090597113938671  1.0000
  O   O8        1.0  0.5824759560880325  0.4680941060794127  0.6036254798731233  1.0000
  O   O9        1.0  0.28257801574199  0.42231504498860767  0.5320539068346335  1.0000
  O   O10       1.0  0.744036344897161  0.5369827873410955  0.46416338539879826  1.0000
