data_image0
_chemical_formula_structural       Zn4H48C56N8O22
_chemical_formula_sum              "Zn4 H48 C56 N8 O22"
_cell_length_a       9.499321791837556
_cell_length_b       11.856049077695475
_cell_length_c       15.120774608368649
_cell_angle_alpha    98.09577043893455
_cell_angle_beta     106.73461049709881
_cell_angle_gamma    109.57545517847593

_space_group_name_H-M_alt    "P 1"
_space_group_IT_number       1

loop_
  _space_group_symop_operation_xyz
  'x, y, z'

loop_
  _atom_site_type_symbol
  _atom_site_label
  _atom_site_symmetry_multiplicity
  _atom_site_fract_x
  _atom_site_fract_y
  _atom_site_fract_z
  _atom_site_occupancy
  Zn  Zn1       1.0  0.4543447872919728  0.5056108884400957  0.3649110076923917  1.0000
  Zn  Zn2       1.0  0.5456543216072306  0.4943882159393879  0.6350862202030427  1.0000
  Zn  Zn3       1.0  0.4888443373179852  0.9345530034218044  0.8635211041330848  1.0000
  Zn  Zn4       1.0  0.5111558473220158  0.06544607813364682  0.1364796239221562  1.0000
  H   H1        1.0  0.9715427895209245  0.29282337405114595  0.33411592127291806  1.0000
  H   H2        1.0  0.02845712441072837  0.7071794430841649  0.6658818730335054  1.0000
  H   H3        1.0  0.9634787702419273  0.5479341953878175  0.7582381590827294  1.0000
  H   H4        1.0  0.0365239497697374  0.45206767690749666  0.241762023693802  1.0000
  H   H5        1.0  0.13099570693353968  0.5494073315445149  0.726201713728784  1.0000
  H   H6        1.0  0.8690059053971807  0.4505945335464219  0.27379958912666064  1.0000
  H   H7        1.0  0.6932888296086687  0.25925123674125666  0.5158956858904274  1.0000
  H   H8        1.0  0.3067154557293251  0.7407515534445112  0.4841062085436646  1.0000
  H   H9        1.0  0.20525839064678322  0.46930765413814884  0.6353581681837566  1.0000
  H   H10       1.0  0.7947451079102805  0.5306914404508873  0.3646405197029379  1.0000
  H   H11       1.0  0.5151665531373482  0.28943348013232406  0.1290085485733385  1.0000
  H   H12       1.0  0.48482953993040917  0.7105619013723513  0.8709896930348362  1.0000
  H   H13       1.0  0.3380249558600283  0.244867855872549  0.8234877656652202  1.0000
  H   H14       1.0  0.661975091144356  0.7551330913279416  0.17651182553265696  1.0000
  H   H15       1.0  0.6294293670957316  0.9835756799876734  0.5989740606741802  1.0000
  H   H16       1.0  0.3705703507731143  0.016422482302154203  0.4010251557127801  1.0000
  H   H17       1.0  0.6782575124371562  0.0727599032755961  0.5178502967526412  1.0000
  H   H18       1.0  0.3217432994239928  0.9272382533492944  0.4821497796577105  1.0000
  H   H19       1.0  0.6102736043494801  0.745892684272434  0.5499040733308788  1.0000
  H   H20       1.0  0.38972453450439554  0.2541045472576258  0.4500954115008254  1.0000
  H   H21       1.0  0.2199714265624877  0.47622072329296133  0.01389706798930491  1.0000
  H   H22       1.0  0.7800270368640554  0.5237792888579805  0.9861034516874195  1.0000
  H   H23       1.0  0.941078533849108  0.042592649284721104  0.5571802196201713  1.0000
  H   H24       1.0  0.05892198448930936  0.9574092214711597  0.44282022321188197  1.0000
  H   H25       1.0  0.9189435760634908  0.1309574542735206  0.6546756580292409  1.0000
  H   H26       1.0  0.08105551002132219  0.8690416286570938  0.3453248700367055  1.0000
  H   H27       1.0  0.5950500231851238  0.9626929750858653  0.3504256092346054  1.0000
  H   H28       1.0  0.4049551920225198  0.037305184617899605  0.6495739470647024  1.0000
  H   H29       1.0  0.8364500417608909  0.15371866255214434  0.9833909733986699  1.0000
  H   H30       1.0  0.16354384050786314  0.8462767088335498  0.01660884833323451  1.0000
  H   H31       1.0  0.6947618322134304  0.8130528078864787  0.7831111070898442  1.0000
  H   H32       1.0  0.30524005538852356  0.18694532591436538  0.21689246948031374  1.0000
  H   H33       1.0  0.10326193887156881  0.1417510214663764  0.9463178085786266  1.0000
  H   H34       1.0  0.896736039532307  0.8582480542598532  0.053683839566232856  1.0000
  H   H35       1.0  0.17435024443236094  0.5522300791665556  0.8948393556674644  1.0000
  H   H36       1.0  0.8256509056900897  0.44777087094853846  0.10515977548560329  1.0000
  H   H37       1.0  0.0025251936945382015  0.4090680746117955  0.8610455382414413  1.0000
  H   H38       1.0  0.9974768990959647  0.5909347226140796  0.13895529617997227  1.0000
  H   H39       1.0  0.10025829380506933  0.08502206971617451  0.7578660478801352  1.0000
  H   H40       1.0  0.8997403072570831  0.9149760767897277  0.242135608653946  1.0000
  H   H41       1.0  0.1197968496766181  0.9537456647954913  0.6967698881808458  1.0000
  H   H42       1.0  0.8802048957268411  0.04625433036062531  0.30323321156605226  1.0000
  H   H43       1.0  0.9573175226666281  0.8195780545316682  0.7766241900334306  1.0000
  H   H44       1.0  0.042688145623529315  0.18042101156838444  0.22337885803645455  1.0000
  H   H45       1.0  0.13848903994330897  0.9394774944837395  0.8601890831214474  1.0000
  H   H46       1.0  0.8615125678245334  0.0605243663174235  0.13981287976809398  1.0000
  H   H47       1.0  0.4712078289538439  0.7123037422724607  0.25250158682105445  1.0000
  H   H48       1.0  0.5287929874701902  0.28769441864220374  0.7474978295552005  1.0000
  C   C1        1.0  0.6687465693541981  0.18747161066479381  0.3305004897060184  1.0000
  C   C2        1.0  0.33125271279342183  0.812532127111297  0.669498616279391  1.0000
  C   C3        1.0  0.9644172137831574  0.31129250537568254  0.4046603424293805  1.0000
  C   C4        1.0  0.03558411871345868  0.6887130867155662  0.5953393467454545  1.0000
  C   C5        1.0  0.10202814825785109  0.3856655010826771  0.4837336173568472  1.0000
  C   C6        1.0  0.8979695731263033  0.6143373230927409  0.5162631169368976  1.0000
  C   C7        1.0  0.8170107712382375  0.26436376239227133  0.4160257795604422  1.0000
  C   C8        1.0  0.18299056125837856  0.7356418296989773  0.5839739096143929  1.0000
  C   C9        1.0  0.43059402414886705  0.2543676388549017  0.9741122352073145  1.0000
  C   C10       1.0  0.5694012949363697  0.7456305246458259  0.025886841256586027  1.0000
  C   C11       1.0  0.03386452280685144  0.49370740820204867  0.7469401150224539  1.0000
  C   C12       1.0  0.966136627315592  0.5062935419130455  0.25305901613061366  1.0000
  C   C13       1.0  0.9471438701791967  0.363867453584227  0.586734028324578  1.0000
  C   C14       1.0  0.05285871219684421  0.6361362843561338  0.4132650175945968  1.0000
  C   C15       1.0  0.808631384390864  0.2909969016344149  0.5069121431710498  1.0000
  C   C16       1.0  0.19137057076402902  0.7090077612365066  0.4930875543929999  1.0000
  C   C17       1.0  0.09518898332839847  0.411464401541906  0.5753009684209187  1.0000
  C   C18       1.0  0.9048146930399525  0.5885393307335108  0.42469893752164717  1.0000
  C   C19       1.0  0.4451616706567522  0.3085657859440047  0.06659465725692122  1.0000
  C   C20       1.0  0.5548353742048207  0.691431451250999  0.9334039675513919  1.0000
  C   C21       1.0  0.34737329517177773  0.285538953127265  0.8952004931198727  1.0000
  C   C22       1.0  0.6526283262846987  0.7144629205432126  0.10479948966737136  1.0000
  C   C23       1.0  0.3666039349536163  0.3865830776303625  0.07875392473975748  1.0000
  C   C24       1.0  0.6333945330358048  0.6134169388103603  0.9212459349028704  1.0000
  C   C25       1.0  0.6959003432787512  0.999215008584251  0.5501927971012747  1.0000
  C   C26       1.0  0.3041004731452759  0.000783152330406301  0.4498066192749802  1.0000
  C   C27       1.0  0.370070542888442  0.4390701678217116  0.1759217495155383  1.0000
  C   C28       1.0  0.6299285386335001  0.5609289108191291  0.8240794385845119  1.0000
  C   C29       1.0  0.5919474073481013  0.768850111270922  0.48181139741596707  1.0000
  C   C30       1.0  0.4080523059578666  0.23114804672913186  0.5181884790050972  1.0000
  C   C31       1.0  0.27986731651716923  0.41574191021025103  2.2346717109709514e-05  1.0000
  C   C32       1.0  0.7201365020496695  0.5842599607098933  0.999978036048709  1.0000
  C   C33       1.0  0.8726785957905606  0.037576621703173906  0.6057409919275043  1.0000
  C   C34       1.0  0.12732049029425235  0.9624224612274404  0.3942595361384419  1.0000
  C   C35       1.0  0.5851891868493766  0.8803748367961575  0.3757829029968036  1.0000
  C   C36       1.0  0.4148127326927167  0.11962332703311064  0.6242160533346349  1.0000
  C   C37       1.0  0.8474846933870026  0.0817278050794314  0.936471062770188  1.0000
  C   C38       1.0  0.1525140544365158  0.9182684843609792  0.06353041055304941  1.0000
  C   C39       1.0  0.7683428028262399  0.9033800872243064  0.8335430916560111  1.0000
  C   C40       1.0  0.2316524715204409  0.09661156865522713  0.1664565636434858  1.0000
  C   C41       1.0  0.2735708693627004  0.36795452974677545  0.908195613383043  1.0000
  C   C42       1.0  0.7264328024427725  0.6320491982388674  0.09180495259361976  1.0000
  C   C43       1.0  0.9792507646358998  0.07686807692102351  0.9185638291992502  1.0000
  C   C44       1.0  0.02074467383344096  0.9231282037755619  0.08143902425842237  1.0000
  C   C45       1.0  0.49348744497100927  0.15603834045118253  0.9603284006017815  1.0000
  C   C46       1.0  0.5065073936544379  0.8439588909146067  0.0396711442961575  1.0000
  C   C47       1.0  0.1000773349323083  0.4636242258186557  0.839448336302375  1.0000
  C   C48       1.0  0.8999242865241684  0.5363776478518291  0.16055164648486195  1.0000
  C   C49       1.0  0.042100484513895454  0.9834472555368382  0.7278457499755147  1.0000
  C   C50       1.0  0.957898592445162  0.016551818814228604  0.2721560981586393  1.0000
  C   C51       1.0  0.02130849615139856  0.9203595012208013  0.8068736192169296  1.0000
  C   C52       1.0  0.9786923020211236  0.0796386425347677  0.19312843729573365  1.0000
  C   C53       1.0  0.5237741786748985  0.7573194725475292  0.32846772775682337  1.0000
  C   C54       1.0  0.476228212201221  0.24267961483712958  0.6715320802087915  1.0000
  C   C55       1.0  0.2551453368443077  0.4437085180517215  0.468432565791204  1.0000
  C   C56       1.0  0.7448551997456151  0.5562933698632551  0.5315652369044414  1.0000
  N   N1        1.0  0.7168451432897243  0.9725607367356589  0.8832597498345577  1.0000
  N   N2        1.0  0.28315359997091594  0.027435548414970905  0.11674238352277645  1.0000
  N   N3        1.0  0.9270088777247948  0.9632871020488167  0.8538929592197275  1.0000
  N   N4        1.0  0.0729955361230594  0.0367138139123568  0.14611139213992166  1.0000
  N   N5        1.0  0.6273619981930239  0.8860128097653333  0.4723906953220832  1.0000
  N   N6        1.0  0.37263991678619124  0.1139853497741612  0.5276089210434591  1.0000
  N   N7        1.0  0.529113070762449  0.6887993357338048  0.3953247060055033  1.0000
  N   N8        1.0  0.47088664710640427  0.31119882655602993  0.6046745103814642  1.0000
  O   O1        1.0  0.9252057131899674  0.3825928200549954  0.6723322563967783  1.0000
  O   O2        1.0  0.07479748271859413  0.6174099800854832  0.32766811797981876  1.0000
  O   O3        1.0  0.4596031333772288  0.41432544462206533  0.24707147682711647  1.0000
  O   O4        1.0  0.5403965799287391  0.5856727133779884  0.7529283995939478  1.0000
  O   O5        1.0  0.45353040793303717  0.09282266596019893  0.8745520770313389  1.0000
  O   O6        1.0  0.5464671310769588  0.9071755162390646  0.12544409924063865  1.0000
  O   O7        1.0  0.5400255797479404  0.12909507406645565  0.3403927940759317  1.0000
  O   O8        1.0  0.45997431593220023  0.8709077259097526  0.6596076403669001  1.0000
  O   O9        1.0  0.6880362068239592  0.1846620393130749  0.24823090663218028  1.0000
  O   O10       1.0  0.3119632129592774  0.8153398328179693  0.7517693362105858  1.0000
  O   O11       1.0  0.19548660181712318  0.3944568717915687  0.8281059130468192  1.0000
  O   O12       1.0  0.8045143969810767  0.6055459310992435  0.17189406135120314  1.0000
  O   O13       1.0  0.5804024625470421  0.13589809939121275  0.03320610874472153  1.0000
  O   O14       1.0  0.41958863189321977  0.8640982339935593  0.9667886843806739  1.0000
  O   O15       1.0  0.8870927096382317  0.9490225607870997  0.6585759737374487  1.0000
  O   O16       1.0  0.11290857811982849  0.050976523682955105  0.34142429427297566  1.0000
  O   O17       1.0  0.2897660789105387  0.50187089702807  0.18514569382822535  1.0000
  O   O18       1.0  0.7102315703577986  0.49812539378750387  0.8148555795057175  1.0000
  O   O19       1.0  0.3762711400734418  0.5255886276551394  0.5370250153327942  1.0000
  O   O20       1.0  0.6237300191747579  0.47441233103950264  0.4629727957520727  1.0000
  O   O21       1.0  0.2552884373874066  0.4106208330716898  0.3839114978215648  1.0000
  O   O22       1.0  0.744711138282952  0.5893791905734106  0.616087241742143  1.0000
