data_image0
_chemical_formula_structural       Al4H36C80Cl16O20
_chemical_formula_sum              "Al4 H36 C80 Cl16 O20"
_cell_length_a       6.630781421627759
_cell_length_b       25.336894706908822
_cell_length_c       29.18136120607159
_cell_angle_alpha    89.99972131654458
_cell_angle_beta     90.00522106750519
_cell_angle_gamma    89.9907922989362

_space_group_name_H-M_alt    "P 1"
_space_group_IT_number       1

loop_
  _space_group_symop_operation_xyz
  'x, y, z'

loop_
  _atom_site_type_symbol
  _atom_site_label
  _atom_site_symmetry_multiplicity
  _atom_site_fract_x
  _atom_site_fract_y
  _atom_site_fract_z
  _atom_site_occupancy
  Al  Al1       1.0  0.799653331597966  0.7486182489200247  0.7499780833491912  1.0000
  Al  Al2       1.0  0.2003479667634096  0.25138171253892944  0.25002180626961495  1.0000
  Al  Al3       1.0  0.2996598035283853  0.7513554211632681  0.7499956748756702  1.0000
  Al  Al4       1.0  0.7003414953397923  0.24864335625160547  0.2500042147772703  1.0000
  H   H1        1.0  0.1933439067828857  0.36983433553128725  0.4549469825885596  1.0000
  H   H2        1.0  0.8066664385621465  0.6301699672291078  0.545050508327229  1.0000
  H   H3        1.0  0.8054234767015417  0.6299800850156032  0.9547359655934076  1.0000
  H   H4        1.0  0.19458988493286705  0.3700238230920548  0.04526358151191091  1.0000
  H   H5        1.0  0.6959986961076225  0.12962097198572306  0.04550885611377001  1.0000
  H   H6        1.0  0.3039860131602339  0.8703782004001327  0.9544934319277092  1.0000
  H   H7        1.0  0.3066936447018662  0.8698655389766402  0.5450485939855698  1.0000
  H   H8        1.0  0.6933031288951453  0.13013560652815667  0.45494958206986524  1.0000
  H   H9        1.0  0.7372138753592951  0.4654672253955995  0.38965407805145713  1.0000
  H   H10       1.0  0.2627919471565292  0.5345339198709524  0.6103403286881177  1.0000
  H   H11       1.0  0.2643370351029048  0.5348473190522539  0.8899321800399846  1.0000
  H   H12       1.0  0.7356552152845168  0.4651510637630167  0.1100666813572815  1.0000
  H   H13       1.0  0.23342483496765  0.035277226733335  0.10979580710264973  1.0000
  H   H14       1.0  0.7665628901981307  0.96472273497681  0.8902064809872672  1.0000
  H   H15       1.0  0.7626119099871502  0.9654746046237079  0.6104055046202816  1.0000
  H   H16       1.0  0.2373954220475554  0.03452259397766969  0.3895940425360395  1.0000
  H   H17       1.0  0.9385712492622176  0.529571773837489  0.42013979722975153  1.0000
  H   H18       1.0  0.06143457238971449  0.47043134484705  0.5798549521374384  1.0000
  H   H19       1.0  0.0629235786756936  0.47049018309648016  0.9201886641494286  1.0000
  H   H20       1.0  0.9370822430257562  0.5295121463929958  0.07981122550791753  1.0000
  H   H21       1.0  0.4334927665899001  0.9705643229485899  0.0796786873476023  1.0000
  H   H22       1.0  0.5664964659067735  0.029437612115614794  0.9203225726675516  1.0000
  H   H23       1.0  0.5616442796160966  0.0295781260340462  0.5798424492576899  1.0000
  H   H24       1.0  0.4383600347544671  0.97042223010137  0.4201584684744122  1.0000
  H   H25       1.0  0.9650282166010556  0.5953265803889849  0.4820218638792611  1.0000
  H   H26       1.0  0.0349791124930405  0.40467811700177947  0.5179728854780237  1.0000
  H   H27       1.0  0.03648079537433091  0.4047117848481392  0.9820499693681628  1.0000
  H   H28       1.0  0.9635310582534515  0.5952917286309118  0.017950605766415606  1.0000
  H   H29       1.0  0.460665994812139  0.9047658146581199  0.017855801377095304  1.0000
  H   H30       1.0  0.5393247459713635  0.0952357257055141  0.9821454586850324  1.0000
  H   H31       1.0  0.5351038822611685  0.09531970402031928  0.5179600189291023  1.0000
  H   H32       1.0  0.46489741604253254  0.9046802574721651  0.48204089874318623  1.0000
  H   H33       1.0  0.542696315174588  0.6802019285729272  0.7499112787256338  1.0000
  H   H34       1.0  0.45730649141594876  0.31979763821897933  0.25008963899362874  1.0000
  H   H35       1.0  0.042618580509945  0.8197672373526641  0.749974272663309  1.0000
  H   H36       1.0  0.95738573461324  0.18023154001259192  0.2500252743763269  1.0000
  C   C1        1.0  0.5520341903341547  0.8126544331824377  0.6871768875556159  1.0000
  C   C2        1.0  0.4479565517472182  0.18734434434459493  0.31282231647917774  1.0000
  C   C3        1.0  0.4475654424742217  0.18737261523158105  0.1871845756962927  1.0000
  C   C4        1.0  0.5524298238454932  0.812626162304859  0.8128166845522458  1.0000
  C   C5        1.0  0.05239759242469691  0.6873369893116533  0.8128108916695568  1.0000
  C   C6        1.0  0.9476037063898841  0.31266218271751  0.18718694186504345  1.0000
  C   C7        1.0  0.9478123195674327  0.3126646996820027  0.3128363287265615  1.0000
  C   C8        1.0  0.052196520059141  0.6873336829554191  0.6871635611157174  1.0000
  C   C9        1.0  0.07772465340633519  0.34157137901912893  0.39096313157268275  1.0000
  C   C10       1.0  0.9222856932132686  0.6584297663350754  0.6090357301720816  1.0000
  C   C11       1.0  0.9216681925434927  0.6583300340400767  0.8908457391178217  1.0000
  C   C12       1.0  0.0783376300603038  0.3416703220090582  0.10915312254291362  1.0000
  C   C13       1.0  0.5790962279985267  0.15816039831252476  0.10926720791251654  1.0000
  C   C14       1.0  0.4208975299959121  0.8418387739468544  0.8907347376580363  1.0000
  C   C15       1.0  0.42214707414590436  0.8415907878335175  0.6090450359049273  1.0000
  C   C16       1.0  0.5778451757347156  0.1584087790258408  0.39095382545821183  1.0000
  C   C17       1.0  0.08761263477183691  0.37733372219152983  0.4271549574436335  1.0000
  C   C18       1.0  0.91239620329997  0.622668607181268  0.5728425334934428  1.0000
  C   C19       1.0  0.9117218568616111  0.6225724210485878  0.927049437976976  1.0000
  C   C20       1.0  0.088282456664281  0.3774299084936388  0.07295147969824711  1.0000
  C   C21       1.0  0.5889389569399698  0.12238754229409919  0.07308441512650182  1.0000
  C   C22       1.0  0.41105027636292857  0.8776124193856488  0.9269175303145119  1.0000
  C   C23       1.0  0.4123687318374891  0.8773569407685924  0.5728501237537458  1.0000
  C   C24       1.0  0.5876280423775881  0.12264262604429627  0.4271490804006676  1.0000
  C   C25       1.0  0.9686883296423686  0.4230463260458635  0.4270222829977899  1.0000
  C   C26       1.0  0.0313220166049959  0.5769560032741835  0.5729741799214028  1.0000
  C   C27       1.0  0.0313730234549752  0.5769979418928058  0.9270436810624931  1.0000
  C   C28       1.0  0.96862827419222  0.4230035983139472  0.07295689387979823  1.0000
  C   C29       1.0  0.4681943335289134  0.0770251899570766  0.0729379167988569  1.0000
  C   C30       1.0  0.5317903756276792  0.9229743770766063  0.9270633431777713  1.0000
  C   C31       1.0  0.5313034721995961  0.9230508483195833  0.5729907441769981  1.0000
  C   C32       1.0  0.4686963181015571  0.0769491131250533  0.42700811735273453  1.0000
  C   C33       1.0  0.8357146754978119  0.43110029824863716  0.3903725754830347  1.0000
  C   C34       1.0  0.1642941634955477  0.5689000576726428  0.6096235447729443  1.0000
  C   C35       1.0  0.1652133591148015  0.5690954980798111  0.8905330066316639  1.0000
  C   C36       1.0  0.8347803987340043  0.4309044634305152  0.1094655120712034  1.0000
  C   C37       1.0  0.3333713467858033  0.06935469884321319  0.10929480868881573  1.0000
  C   C38       1.0  0.6666148708073224  0.9306440788197036  0.8907067940306492  1.0000
  C   C39       1.0  0.6641344985003812  0.931106982677832  0.6096704830957125  1.0000
  C   C40       1.0  0.3358652928143684  0.0688906106786291  0.39032837850227514  1.0000
  C   C41       1.0  0.8250517110527795  0.3948442312562789  0.35456969244714304  1.0000
  C   C42       1.0  0.1749526043546794  0.6051541513605442  0.6454277984969039  1.0000
  C   C43       1.0  0.17597836682018198  0.6053512017724003  0.854735736553778  1.0000
  C   C44       1.0  0.824015391573866  0.3946475756714845  0.14526209681422134  1.0000
  C   C45       1.0  0.32275175110885357  0.10561182642688037  0.14509856013681605  1.0000
  C   C46       1.0  0.6772359740184796  0.8943881353056252  0.8549044133220891  1.0000
  C   C47       1.0  0.6746218794122784  0.8948691640872469  0.6454853884662413  1.0000
  C   C48       1.0  0.3253748959276592  0.10512763998963949  0.3545148438212778  1.0000
  C   C49       1.0  0.9480476625030575  0.3494779438152023  0.3532031643827055  1.0000
  C   C50       1.0  0.05195966874464371  0.650521228159448  0.6467953546632543  1.0000
  C   C51       1.0  0.05215167467261491  0.6505544019141638  0.8532055376809782  1.0000
  C   C52       1.0  0.9478541489255505  0.3494435860579798  0.1467936667325063  1.0000
  C   C53       1.0  0.44768449103630553  0.15060199098476088  0.14678142261992386  1.0000
  C   C54       1.0  0.5523062505149667  0.84939757601677  0.8532212082370523  1.0000
  C   C55       1.0  0.5517326335330068  0.8494966257489979  0.646822320991632  1.0000
  C   C56       1.0  0.4482596164781043  0.15050254645135647  0.3531772257518711  1.0000
  C   C57       1.0  0.9623157339392351  0.5163354004075416  0.4553138754681855  1.0000
  C   C58       1.0  0.03769008758221299  0.4836681129360016  0.5446801885186403  1.0000
  C   C59       1.0  0.03852516173381561  0.48370123119106984  0.9553461087420987  1.0000
  C   C60       1.0  0.9614776429792258  0.5163026771069994  0.044655151536531414  1.0000
  C   C61       1.0  0.4595312707011486  0.9837507291839316  0.044576721180519016  1.0000
  C   C62       1.0  0.5404564542036496  0.016250021844228996  0.9554241961486697  1.0000
  C   C63       1.0  0.5378100835128521  0.0163373018233699  0.5446766707979053  1.0000
  C   C64       1.0  0.46219121531687785  0.9836614756138573  0.4553239042240166  1.0000
  C   C65       1.0  0.9776309213231755  0.5534549425233307  0.4902457394405105  1.0000
  C   C66       1.0  0.022377916468428797  0.4465481761786591  0.509750723420332  1.0000
  C   C67       1.0  0.023221145106717193  0.44656581186873  0.9902629405736152  1.0000
  C   C68       1.0  0.9767861854803996  0.5534345442394297  0.009738319914163202  1.0000
  C   C69       1.0  0.47521243982771477  0.9466043495434773  0.0096788299305359  1.0000
  C   C70       1.0  0.5247752850386433  0.05339640150703671  0.9903227727676482  1.0000
  C   C71       1.0  0.5224510571828346  0.05345179852641019  0.5097426670269058  1.0000
  C   C72       1.0  0.4775502406717466  0.9465493469766316  0.49025722255778004  1.0000
  C   C73       1.0  0.0157981807034133  0.5378617946529403  0.5356411776661929  1.0000
  C   C74       1.0  0.9842076401999691  0.4621432973825179  0.46435185822165453  1.0000
  C   C75       1.0  0.9842060550070926  0.4621206307903449  0.035634366267764506  1.0000
  C   C76       1.0  0.0157997664141689  0.5378824880283233  0.9643644953133477  1.0000
  C   C77       1.0  0.5161474309383607  0.9621092397334717  0.9643774464080935  1.0000
  C   C78       1.0  0.4838387853417457  0.0378926953579892  0.035623470851376716  1.0000
  C   C79       1.0  0.48415710032460874  0.037856155889223  0.4643464549381947  1.0000
  C   C80       1.0  0.5158441978293881  0.9621442002734496  0.535654120038231  1.0000
  Cl  Cl1       1.0  0.22876957601321377  0.2861472400965397  0.39484062803832404  1.0000
  Cl  Cl2       1.0  0.771248310539349  0.713855483875861  0.6051578911544199  1.0000
  Cl  Cl3       1.0  0.7697044659439953  0.7135985337730729  0.8945789053829644  1.0000
  Cl  Cl4       1.0  0.23030588043385342  0.2864034008879699  0.10541824291659203  1.0000
  Cl  Cl5       1.0  0.7323775913996826  0.21317454033832206  0.10564123978861771  1.0000
  Cl  Cl6       1.0  0.2676161669326191  0.786823842558334  0.8943607058046796  1.0000
  Cl  Cl7       1.0  0.2710877577365878  0.786184848351837  0.6051525699574186  1.0000
  Cl  Cl8       1.0  0.7289029839533183  0.2138151131522079  0.39484457793628286  1.0000
  Cl  Cl9       1.0  0.6583903019799922  0.40953259565522165  0.3106825302507802  1.0000
  Cl  Cl10      1.0  0.3416034578960065  0.5904626296787611  0.6893159885885893  1.0000
  Cl  Cl11      1.0  0.34408786855512113  0.5908620406088687  0.8110875999905434  1.0000
  Cl  Cl12      1.0  0.6559073982946869  0.4091359474530734  0.18891023343580574  1.0000
  Cl  Cl13      1.0  0.1534360124846543  0.09133740850867868  0.18855422288685023  1.0000
  Cl  Cl14      1.0  0.8465532202922148  0.9086637372263411  0.8114480652045375  1.0000
  Cl  Cl15      1.0  0.8407880976756344  0.9095908850299137  0.689458048131222  1.0000
  Cl  Cl16      1.0  0.1592071696233077  0.09040591902147808  0.31054081338273687  1.0000
  O   O1        1.0  0.3810711251763478  0.8014587110189311  0.7960443816624834  1.0000
  O   O2        1.0  0.618927156910793  0.19854125050081  0.2039561932541289  1.0000
  O   O3        1.0  0.6193517399121831  0.19867923391315398  0.2961708832647504  1.0000
  O   O4        1.0  0.3806374943891625  0.8013187542703689  0.7038283207571967  1.0000
  O   O5        1.0  0.8807642780420863  0.6986612843951434  0.7038108697130598  1.0000
  O   O6        1.0  0.1192445614539963  0.30133749290128964  0.29618833474886236  1.0000
  O   O7        1.0  0.1189405068094942  0.30148367820815025  0.20396370154531246  1.0000
  O   O8        1.0  0.8810653161321653  0.6985158884782549  0.7960351601381748  1.0000
  O   O9        1.0  0.7215616606342223  0.7967936620917581  0.7017577732294173  1.0000
  O   O10       1.0  0.2784290806753019  0.2032066942166111  0.2982431441823437  1.0000
  O   O11       1.0  0.2781131995004102  0.2033610272920967  0.20170514073649312  1.0000
  O   O12       1.0  0.7218850821912  0.7966397236239046  0.7982964622108427  1.0000
  O   O13       1.0  0.22188290550202794  0.703309874126603  0.7983130517999515  1.0000
  O   O14       1.0  0.7781259339940616  0.2966889031698301  0.20168615266196355  1.0000
  O   O15       1.0  0.7783331108410748  0.2968136114356454  0.2982313418771412  1.0000
  O   O16       1.0  0.22167271320622456  0.703183192525941  0.7017688906239457  1.0000
  O   O17       1.0  0.5475285608990887  0.7183983421309817  0.7499863682499069  1.0000
  O   O18       1.0  0.4524757537172945  0.281601619278362  0.2500131787555944  1.0000
  O   O19       1.0  0.0474955932899377  0.7815695189406139  0.7499885102958856  1.0000
  O   O20       1.0  0.9525026890045822  0.21843004787541523  0.2500113792631141  1.0000
