data_image0
_chemical_formula_structural       Zn4H15C44S5N16O15F5
_chemical_formula_sum              "Zn4 H15 C44 S5 N16 O15 F5"
_cell_length_a       16.249619041222587
_cell_length_b       16.258414834211404
_cell_length_c       18.57480079956165
_cell_angle_alpha    105.43225509599579
_cell_angle_beta     107.40809593984086
_cell_angle_gamma    111.91957869729464

_space_group_name_H-M_alt    "P 1"
_space_group_IT_number       1

loop_
  _space_group_symop_operation_xyz
  'x, y, z'

loop_
  _atom_site_type_symbol
  _atom_site_label
  _atom_site_symmetry_multiplicity
  _atom_site_fract_x
  _atom_site_fract_y
  _atom_site_fract_z
  _atom_site_occupancy
  Zn  Zn1       1.0  0.14225146027653324  0.1347625965057375  0.5135809078560527  1.0000
  Zn  Zn2       1.0  0.8658919190067565  0.8587123884820828  0.5300044716957828  1.0000
  Zn  Zn3       1.0  0.9851306130240617  0.9046672457620488  0.33622329027902953  1.0000
  Zn  Zn4       1.0  0.002555198490284701  0.1120520275405923  0.6346049172193631  1.0000
  H   H1        1.0  0.04404353105375951  0.12008310632790399  0.8256019985357597  1.0000
  H   H2        1.0  0.33388095084056596  0.10247939130582746  0.5684903984327221  1.0000
  H   H3        1.0  0.1796133979884047  0.13663724796650462  0.7881455455712327  1.0000
  H   H4        1.0  0.0728931892412632  0.7509536697533717  0.4208470733487317  1.0000
  H   H5        1.0  0.23573366867321247  0.15759189066690032  0.0723779267652276  1.0000
  H   H6        1.0  0.6460308974603848  0.833500850389832  0.447194896526767  1.0000
  H   H7        1.0  0.6394326350819243  0.7703971411121132  0.29715789411154964  1.0000
  H   H8        1.0  0.0483463261737427  0.25208808401681176  0.4306507813428269  1.0000
  H   H9        1.0  0.8260198943898516  0.14639177644039597  0.5331475302016458  1.0000
  H   H10       1.0  0.36738522841797305  0.2639737628989137  0.6805917152248924  1.0000
  H   H11       1.0  0.6899189393600552  0.5076981025522899  0.37560574022533905  1.0000
  H   H12       1.0  0.2264979889317758  0.9068359226752917  0.22134248416740115  1.0000
  H   H13       1.0  0.6598175300290663  0.3212151620770313  0.9481836820156033  1.0000
  H   H14       1.0  0.40996260298567927  0.45038555510908657  0.17334474608787784  1.0000
  H   H15       1.0  0.06297336927546841  0.4732617070304244  0.7470634949257828  1.0000
  C   C1        1.0  0.1810266752335608  0.16252234877116933  0.3671900838135329  1.0000
  C   C2        1.0  0.6985071007113958  0.9935100566421082  0.47682977223451667  1.0000
  C   C3        1.0  0.70041688824751  0.6802371103529199  0.2406658219928985  1.0000
  C   C4        1.0  0.013310369758485797  0.3164396995544578  0.5332261083578373  1.0000
  C   C5        1.0  0.30674351424944757  0.2251594816796825  0.6933114039416708  1.0000
  C   C6        1.0  0.8863947051005142  0.6938718258971975  0.46727301072456123  1.0000
  C   C7        1.0  0.18616228529184303  0.9322236462258289  0.3776803775898401  1.0000
  C   C8        1.0  0.022527408213918  0.0500030694411109  0.77822005618755  1.0000
  C   C9        1.0  0.9965040125599174  0.9037141785555179  0.7073191633150132  1.0000
  C   C10       1.0  0.27582582939206196  0.046895759300817  0.5071061889257678  1.0000
  C   C11       1.0  0.20945840263966892  0.1595919921179956  0.7476454152006085  1.0000
  C   C12       1.0  0.7050117236699264  0.9085505492774499  0.4731796057270968  1.0000
  C   C13       1.0  0.011995456024990903  0.7430659788676195  0.43661834245000364  1.0000
  C   C14       1.0  0.30998270291097896  0.21607141550656908  0.76740485393816  1.0000
  C   C15       1.0  0.953254345794832  0.6651464124988775  0.45115230427240494  1.0000
  C   C16       1.0  0.28546349794145703  0.9920128606145299  0.4400507465743289  1.0000
  C   C17       1.0  0.037722928493892  0.9733485816518198  0.7899099324782526  1.0000
  C   C18       1.0  0.9967058794052194  0.3893285094098147  0.5166981876623497  1.0000
  C   C19       1.0  0.9846794012188979  0.4511181945321852  0.4957915355131134  1.0000
  C   C20       1.0  0.9724940206290923  0.5202976684755924  0.47473612707275226  1.0000
  C   C21       1.0  0.9633570579704981  0.5857829793627758  0.45859031162972036  1.0000
  C   C22       1.0  0.6119135691744901  0.00048214801476837696  0.454866632973726  1.0000
  C   C23       1.0  0.7972366676545946  0.719658067402932  0.24803881755237708  1.0000
  C   C24       1.0  0.5336662037942547  0.0012500766226040724  0.44242205855540817  1.0000
  C   C25       1.0  0.4487128526626378  0.0003265741801427761  0.4368205099627502  1.0000
  C   C26       1.0  0.37153301311185066  0.9962728658189305  0.4362966887965882  1.0000
  C   C27       1.0  0.6265500607283271  0.5832739046790394  0.19015141460330648  1.0000
  C   C28       1.0  0.5015267012761485  0.41185662274185125  0.06619466714428766  1.0000
  C   C29       1.0  0.5213904233041974  0.3768524375013699  0.0008599347975390405  1.0000
  C   C30       1.0  0.4517298987793268  0.30859876907324946  0.9199839843707663  1.0000
  C   C31       1.0  0.5679374643855795  0.49809099222622416  0.1382660603278154  1.0000
  C   C32       1.0  0.389415075460434  0.2620568551569775  0.8468838391288641  1.0000
  C   C33       1.0  0.08354705449791311  0.9726476906740444  0.8664016883049541  1.0000
  C   C34       1.0  0.012515898413902  0.2864027722187147  0.5982598828633243  1.0000
  C   C35       1.0  0.15230334105945792  0.004239514469588827  0.022872106938798705  1.0000
  C   C36       1.0  0.2016893491557994  0.0958562709303834  0.08639900009609387  1.0000
  C   C37       1.0  0.1971881586675011  0.1111746050964868  0.1624528608460949  1.0000
  C   C38       1.0  0.1219330174657429  0.9844382741529357  0.9385037865520758  1.0000
  C   C39       1.0  0.1799141551544849  0.1201600652986485  0.22296294950862716  1.0000
  C   C40       1.0  0.7006244797111095  0.7657563152301918  0.2876314867238251  1.0000
  C   C41       1.0  0.038549996880391305  0.2544610712549442  0.486285511574728  1.0000
  C   C42       1.0  0.7982457033578713  0.06896526537436659  0.5174300409976311  1.0000
  C   C43       1.0  0.047459801879426805  0.0382583604516071  0.2628437251138322  1.0000
  C   C44       1.0  0.1412136348747808  0.11159714395491699  0.2801060504020327  1.0000
  S   S1        1.0  0.7875129436133504  0.6402596509413528  0.4882625290123385  1.0000
  S   S2        1.0  0.13076728155469652  0.8470989506469025  0.2738309805321535  1.0000
  S   S3        1.0  0.6494222487199154  0.4404664276039441  0.019093643804524222  1.0000
  S   S4        1.0  0.37514232132105013  0.35334284143600314  0.05149520283342917  1.0000
  S   S5        1.0  0.9836393356277285  0.31757703935767984  0.681661270150883  1.0000
  N   N1        1.0  0.1193957176097058  0.12380960927761457  0.3975763097002485  1.0000
  N   N2        1.0  0.9069412156350227  0.7813940199093639  0.46418100678596375  1.0000
  N   N3        1.0  0.12547787177018682  0.9508659310840599  0.406715182576626  1.0000
  N   N4        1.0  0.9776585880598458  0.027031053753788028  0.6967288922737181  1.0000
  N   N5        1.0  0.9608084124043046  0.9346367871721029  0.6519894497713922  1.0000
  N   N6        1.0  0.17951961764021718  0.021440487215052394  0.48541277151170453  1.0000
  N   N7        1.0  0.1510380167591308  0.1378038799286401  0.6690946571958918  1.0000
  N   N8        1.0  0.9841060720383156  0.8118803336569869  0.4456806278673682  1.0000
  N   N9        1.0  0.8005458751648716  0.9332569741133698  0.509908300382719  1.0000
  N   N10       1.0  0.8475984944655508  0.8167202001775921  0.2932718831370592  1.0000
  N   N11       1.0  0.035524147578463804  0.21431829409024772  0.5892826842161725  1.0000
  N   N12       1.0  0.7875551520465862  0.8464184408023171  0.31875374254443745  1.0000
  N   N13       1.0  0.05097283561740079  0.1941731879114599  0.5208961250373605  1.0000
  N   N14       1.0  0.8587168285634946  0.03200875303645738  0.5375671049119504  1.0000
  N   N15       1.0  0.0331573620421111  0.04272427444234949  0.3308203470248259  1.0000
  N   N16       1.0  0.21178397514044894  0.17932790298726792  0.635963213107992  1.0000
  O   O1        1.0  0.8011192993207814  0.5826435498514968  0.5321051135836112  1.0000
  O   O2        1.0  0.7670223423565758  0.7189155720302195  0.5213682942031425  1.0000
  O   O3        1.0  0.6928332939757028  0.5710273901921995  0.39862550910705613  1.0000
  O   O4        1.0  0.16151838946640137  0.7746059943839753  0.26549613504695196  1.0000
  O   O5        1.0  0.026922343547568103  0.8201986260556852  0.24390231116878178  1.0000
  O   O6        1.0  0.1705893112272889  0.9117468572504493  0.2278626193611331  1.0000
  O   O7        1.0  0.669703777549273  0.5312151128212294  0.012868780063136895  1.0000
  O   O8        1.0  0.7105486520328128  0.43508299274596846  0.09002473176943225  1.0000
  O   O9        1.0  0.646343087371882  0.3714235513419696  0.9366290876323689  1.0000
  O   O10       1.0  0.3258342132819578  0.40085290923758515  0.0168547059738344  1.0000
  O   O11       1.0  0.3323967249289552  0.2486847195999857  0.014725643098500997  1.0000
  O   O12       1.0  0.3917652133297338  0.3813376612077946  0.14685365821584637  1.0000
  O   O13       1.0  0.8986560527996801  0.33070867792645947  0.6563569367863025  1.0000
  O   O14       1.0  0.986093630735347  0.2483533140101031  0.7166738500623352  1.0000
  O   O15       1.0  0.07834360361088952  0.4210476544939682  0.7501979738437328  1.0000
  F   F1        1.0  0.2698424856188097  0.24198594825706718  0.4193614793596723  1.0000
  F   F2        1.0  0.9888376088489821  0.8151148862338572  0.6812529722300127  1.0000
  F   F3        1.0  0.11649529453193  0.923898543845489  0.03890967978726681  1.0000
  F   F4        1.0  0.8386917524694865  0.6716400441866667  0.21731307738760794  1.0000
  F   F5        1.0  0.9768856268966816  0.9673562321018848  0.18824644100675397  1.0000
