data_image0
_chemical_formula_structural       Nd2H42C34N2O14
_chemical_formula_sum              "Nd2 H42 C34 N2 O14"
_cell_length_a       8.300280046092665
_cell_length_b       10.39786522405761
_cell_length_c       11.786079866363577
_cell_angle_alpha    108.45413207369369
_cell_angle_beta     107.02139046406602
_cell_angle_gamma    97.25445037829846

_space_group_name_H-M_alt    "P 1"
_space_group_IT_number       1

loop_
  _space_group_symop_operation_xyz
  'x, y, z'

loop_
  _atom_site_type_symbol
  _atom_site_label
  _atom_site_symmetry_multiplicity
  _atom_site_fract_x
  _atom_site_fract_y
  _atom_site_fract_z
  _atom_site_occupancy
  Nd  Nd1       1.0  0.5844562049416097  0.9243579969933083  0.8455506285756865  1.0000
  Nd  Nd2       1.0  0.41554209174230283  0.07564350265602121  0.15444992691175224  1.0000
  H   H1        1.0  0.9692407342312703  0.6078073745554847  0.9176693315420149  1.0000
  H   H2        1.0  0.030755432715274405  0.3921952036756907  0.08233618695604147  1.0000
  H   H3        1.0  0.6214405697965473  0.430808774092874  0.7070221418088135  1.0000
  H   H4        1.0  0.3785637724486647  0.5692000948410794  0.2929875952230247  1.0000
  H   H5        1.0  0.953320422090691  0.34746138858157144  0.8396852296995191  1.0000
  H   H6        1.0  0.04668171206292726  0.6525401471409322  0.16031949683926422  1.0000
  H   H7        1.0  0.8147502688866762  0.261253870648595  0.675286032108289  1.0000
  H   H8        1.0  0.1852524754905431  0.7387539370688999  0.3247213956691083  1.0000
  H   H9        1.0  0.7349089129617355  0.25198836601388314  0.795377348298501  1.0000
  H   H10       1.0  0.26509503732916057  0.7480194181022951  0.20462691995766838  1.0000
  H   H11       1.0  0.049393344581886836  0.6723434349164705  0.4656585598039696  1.0000
  H   H12       1.0  0.9506089535677443  0.3276456200523867  0.5343486950485568  1.0000
  H   H13       1.0  0.9621327580031006  0.6811210107295977  0.7035448706258121  1.0000
  H   H14       1.0  0.03785493297723969  0.3188700495426673  0.2964540782698676  1.0000
  H   H15       1.0  0.7340996329871243  0.5600614542907324  0.4144625705542067  1.0000
  H   H16       1.0  0.2659011805439702  0.4399358623974264  0.5855356366988073  1.0000
  H   H17       1.0  0.6612267107362725  0.6406172304769057  0.542658709638715  1.0000
  H   H18       1.0  0.3387671107882609  0.35937794774462617  0.4573332673568869  1.0000
  H   H19       1.0  0.7159311723489026  0.47977137080906823  0.5238125248432366  1.0000
  H   H20       1.0  0.28405921254878297  0.520220673639784  0.4761787489781496  1.0000
  H   H21       1.0  0.3607625957537976  0.3537308768634587  0.9991535119088366  1.0000
  H   H22       1.0  0.639238554799455  0.6462674979231978  0.0008467517160823904  1.0000
  H   H23       1.0  0.3620826469228717  0.3140449233464579  0.7299556516364658  1.0000
  H   H24       1.0  0.6379241386598054  0.6859555400301218  0.27004461765675797  1.0000
  H   H25       1.0  0.25856595028877644  0.5370422164129777  0.9254960576363793  1.0000
  H   H26       1.0  0.7414338844864686  0.46295612853643314  0.0745005407022532  1.0000
  H   H27       1.0  0.1443973185941516  0.4667125533201357  0.7566616555221867  1.0000
  H   H28       1.0  0.8556044324936847  0.5332837150673129  0.2433356013423803  1.0000
  H   H29       1.0  0.35654124874227466  0.5710772676835632  0.8182997846809097  1.0000
  H   H30       1.0  0.6434592188781422  0.4289231734233781  0.18169836709873263  1.0000
  H   H31       1.0  0.007012324332364995  0.030279661704852905  0.8499672424721393  1.0000
  H   H32       1.0  0.9929877836443308  0.9697238971410512  0.1500300007331957  1.0000
  H   H33       1.0  0.17550475762799064  0.0580415006515622  0.7155460301200518  1.0000
  H   H34       1.0  0.8244877666960803  0.9419578436096432  0.28444598868968995  1.0000
  H   H35       1.0  0.6898039618236067  0.9271620166310512  0.39651823851552576  1.0000
  H   H36       1.0  0.3101915351226622  0.07283007368875621  0.6034783123406624  1.0000
  H   H37       1.0  0.542147357196704  0.899442365208131  0.5432539130790273  1.0000
  H   H38       1.0  0.45785982922883034  0.10055500046895109  0.4567498240913252  1.0000
  H   H39       1.0  0.7927206035578889  0.16328564175479704  0.09462653891083045  1.0000
  H   H40       1.0  0.20728457526826105  0.836717942922604  0.9053734220265066  1.0000
  H   H41       1.0  0.9422106067529225  0.14402637259454557  0.03546638843187813  1.0000
  H   H42       1.0  0.05779392145098671  0.8559834809598852  0.964536020861544  1.0000
  C   C1        1.0  0.755125127582019  0.6974164159661669  0.843189609325783  1.0000
  C   C2        1.0  0.24488252284816522  0.30259133742498534  0.15681029897233856  1.0000
  C   C3        1.0  0.836892927308021  0.5807249751761177  0.8495985361731823  1.0000
  C   C4        1.0  0.1631181460159681  0.41928590530788773  0.15040122219821933  1.0000
  C   C5        1.0  0.7527136655392042  0.4476716933505501  0.7737270865927071  1.0000
  C   C6        1.0  0.24728281096341215  0.5523319296194772  0.22627878207537575  1.0000
  C   C7        1.0  0.8201624046989335  0.32207676524439677  0.7723452430985983  1.0000
  C   C8        1.0  0.1798441222158189  0.6779310518269811  0.22766294332638634  1.0000
  C   C9        1.0  0.24122029307845574  0.7721854757923621  0.6586032598688686  1.0000
  C   C10       1.0  0.7587756095551724  0.2278077060250397  0.3413996128639382  1.0000
  C   C11       1.0  0.0661212706439045  0.6943536727387426  0.565915121012807  1.0000
  C   C12       1.0  0.9338812457750121  0.30564056940733053  0.43408936630267175  1.0000
  C   C13       1.0  0.934079210933319  0.6552261561779106  0.6012635009043732  1.0000
  C   C14       1.0  0.06591166204997019  0.34476701984745256  0.3987392133992527  1.0000
  C   C15       1.0  0.7530404229502068  0.5806522990671255  0.5150565632808436  1.0000
  C   C16       1.0  0.24695472808537736  0.4193429156714714  0.48493993210198716  1.0000
  C   C17       1.0  0.4419727388431695  0.17851539929355204  0.8885854024570388  1.0000
  C   C18       1.0  0.5580246566386291  0.8214829794988532  0.1114158087221781  1.0000
  C   C19       1.0  0.3799929062100347  0.3076560600743433  0.9087570763713511  1.0000
  C   C20       1.0  0.6200032009598359  0.6923423022404477  0.0912421757234583  1.0000
  C   C21       1.0  0.34171710052536497  0.364947485263933  0.8196025364723379  1.0000
  C   C22       1.0  0.658282465892931  0.6350498349860774  0.18039627099908268  1.0000
  C   C23       1.0  0.2719534983129463  0.4914329209069662  0.8321612399628502  1.0000
  C   C24       1.0  0.728047934330284  0.5085664852589034  0.16783766763023059  1.0000
  C   C25       1.0  0.9404730022908792  0.0076831968890474  0.7486987852259971  1.0000
  C   C26       1.0  0.05952239448007666  0.9923172183863973  0.25129664882165764  1.0000
  C   C27       1.0  0.03520298708272659  0.024520422031962096  0.6726814354817987  1.0000
  C   C28       1.0  0.9647905434632872  0.9754779073276224  0.32731389844419556  1.0000
  C   C29       1.0  0.9506760785615354  0.9940110500192886  0.5420625447964295  1.0000
  C   C30       1.0  0.04932373763615059  0.0059830990532035  0.4579303464417776  1.0000
  C   C31       1.0  0.7685489708657584  0.9503784408049042  0.4957053175415991  1.0000
  C   C32       1.0  0.23145495600307694  0.0496209582372558  0.5042923896146546  1.0000
  C   C33       1.0  0.6831875998515782  0.9356260714246788  0.5779005680754988  1.0000
  C   C34       1.0  0.3168175603970197  0.06437331737580368  0.42209568576140527  1.0000
  N   N1        1.0  0.7661591884073216  0.9624363457163126  0.7029778267554004  1.0000
  N   N2        1.0  0.23384127921308814  0.037564095390628396  0.2970203250242419  1.0000
  O   O1        1.0  0.8452506748631946  0.8246084362289423  0.9121724849834787  1.0000
  O   O2        1.0  0.1547527112477312  0.1753972851288026  0.08783449533638074  1.0000
  O   O3        1.0  0.5974267499462724  0.6752879276534428  0.7722578633333864  1.0000
  O   O4        1.0  0.40257934381504157  0.32471878456070163  0.22774229501310822  1.0000
  O   O5        1.0  0.27533589395015656  0.8062371280946296  0.780190623786609  1.0000
  O   O6        1.0  0.7246653842444885  0.1937529350960219  0.21981246284872913  1.0000
  O   O7        1.0  0.3604242546798274  0.8077682568531088  0.6184905345826974  1.0000
  O   O8        1.0  0.6395684433292743  0.19222698504864869  0.3815097205397676  1.0000
  O   O9        1.0  0.4866737997492193  0.1251838715588178  0.7924293727172792  1.0000
  O   O10       1.0  0.5133270323594344  0.8748176410062527  0.20757254163616062  1.0000
  O   O11       1.0  0.44663932243226867  0.1160514377834758  0.9681216419027119  1.0000
  O   O12       1.0  0.5533652784808678  0.8839500774556728  0.0318801779973724  1.0000
  O   O13       1.0  0.8130132329610047  0.12926204969742366  0.012046170640580585  1.0000
  O   O14       1.0  0.1869903164870479  0.8707488321182596  0.9879546297384676  1.0000
