data_image0
_chemical_formula_structural       Ca2H12C12N4O12
_chemical_formula_sum              "Ca2 H12 C12 N4 O12"
_cell_length_a       6.518392328153765
_cell_length_b       7.891017785734535
_cell_length_c       9.31623761087972
_cell_angle_alpha    100.09955678385124
_cell_angle_beta     93.62042050270857
_cell_angle_gamma    107.76981977690535

_space_group_name_H-M_alt    "P 1"
_space_group_IT_number       1

loop_
  _space_group_symop_operation_xyz
  'x, y, z'

loop_
  _atom_site_type_symbol
  _atom_site_label
  _atom_site_symmetry_multiplicity
  _atom_site_fract_x
  _atom_site_fract_y
  _atom_site_fract_z
  _atom_site_occupancy
  Ca  Ca1       1.0  0.7729638758125077  0.09798896748843328  0.6383783018606125  1.0000
  Ca  Ca2       1.0  0.22703459991883074  0.9020102274196161  0.361627782478621  1.0000
  H   H1        1.0  0.21542964963823857  0.2995165082935216  0.9452162205114548  1.0000
  H   H2        1.0  0.784569884925311  0.7005003088211694  0.05479008656218548  1.0000
  H   H3        1.0  0.88537610282782  0.05104046036737491  0.0007064974686841121  1.0000
  H   H4        1.0  0.11460924248956408  0.9489309521293093  0.9992816953118153  1.0000
  H   H5        1.0  0.5389494818738568  0.7067921904619893  0.4872718186801281  1.0000
  H   H6        1.0  0.46105470596886267  0.29321459415616147  0.5127274332723816  1.0000
  H   H7        1.0  0.5955993439257908  0.6952424596470195  0.6562484935574205  1.0000
  H   H8        1.0  0.40440592027166383  0.3047673635307362  0.34374709983161733  1.0000
  H   H9        1.0  0.14723650593560217  0.2965034612741774  0.48339412248384417  1.0000
  H   H10       1.0  0.85276226008515  0.7034808644363792  0.5165940592065469  1.0000
  H   H11       1.0  0.07270135115248168  0.4466133080108818  0.5821495311145102  1.0000
  H   H12       1.0  0.9272956880042  0.55337069204964  0.4178417204002757  1.0000
  C   C1        1.0  0.6625295785916092  0.47676381849222343  0.778931643987491  1.0000
  C   C2        1.0  0.33747251550889246  0.5232355776681814  0.22105639276968964  1.0000
  C   C3        1.0  0.838050322639276  0.4861535689718507  0.8974347504143625  1.0000
  C   C4        1.0  0.16194932005017645  0.5138634126400915  0.10256944324159181  1.0000
  C   C5        1.0  0.11861059589682547  0.3892609210657412  0.9688722902052548  1.0000
  C   C6        1.0  0.8813856063809167  0.6107452222857291  0.031129630363075506  1.0000
  C   C7        1.0  0.2607068617417809  0.006504585038001703  0.7325733103730059  1.0000
  C   C8        1.0  0.7392832998407924  0.9934978717982617  0.26743725139660773  1.0000
  C   C9        1.0  0.38751769057522967  0.0037982554254866706  0.8742073779116669  1.0000
  C   C10       1.0  0.6124928184434777  0.9962001336846739  0.1258002814176109  1.0000
  C   C11       1.0  0.7119207744145583  0.026871388207638295  0.9998293796931393  1.0000
  C   C12       1.0  0.2881057923899348  0.9730998951839922  0.0001728609065949636  1.0000
  N   N1        1.0  0.956686605835948  0.37452456014925417  0.8670517948315679  1.0000
  N   N2        1.0  0.043309049852282996  0.6254888572956716  0.13294289214147173  1.0000
  N   N3        1.0  0.6014397243226169  0.030647551074530086  0.8753571925447191  1.0000
  N   N4        1.0  0.3985558017696391  0.9693371491240229  0.12464163976579817  1.0000
  O   O1        1.0  0.6344612554607848  0.3530308775111521  0.6644456868826867  1.0000
  O   O2        1.0  0.36553002742910207  0.6469804904071169  0.33557310378952115  1.0000
  O   O3        1.0  0.5660472313239281  0.5935207644938174  0.8007325153252439  1.0000
  O   O4        1.0  0.43395197290191584  0.40650365570882496  0.19926233131772625  1.0000
  O   O5        1.0  0.3557227768040008  0.9931912635191297  0.6184471748482779  1.0000
  O   O6        1.0  0.6442813029128158  0.0068153566017698855  0.38155419052192496  1.0000
  O   O7        1.0  0.07445287980889499  0.022364630191219693  0.7407322386228331  1.0000
  O   O8        1.0  0.9255658868434721  0.977631111535679  0.25928073779162736  1.0000
  O   O9        1.0  0.6494261946164029  0.7613215837913427  0.576700297036574  1.0000
  O   O10       1.0  0.3505707620905127  0.23868640783442172  0.42329556741463403  1.0000
  O   O11       1.0  0.019103874609214692  0.3218513954548357  0.5265671242387244  1.0000
  O   O12       1.0  0.9808899204128848  0.6781373757803166  0.47343024645766724  1.0000
