data_image0
_chemical_formula_structural       Na8Cu4H24C8O36
_chemical_formula_sum              "Na8 Cu4 H24 C8 O36"
_cell_length_a       6.106599794004216
_cell_length_b       9.789227027146035
_cell_length_c       13.581483068919125
_cell_angle_alpha    92.12506863298931
_cell_angle_beta     89.99989521733043
_cell_angle_gamma    90.0000785753494

_space_group_name_H-M_alt    "P 1"
_space_group_IT_number       1

loop_
  _space_group_symop_operation_xyz
  'x, y, z'

loop_
  _atom_site_type_symbol
  _atom_site_label
  _atom_site_symmetry_multiplicity
  _atom_site_fract_x
  _atom_site_fract_y
  _atom_site_fract_z
  _atom_site_occupancy
  Na  Na1       1.0  0.7572571077629604  0.8362827505278647  0.8024225449187768  1.0000
  Na  Na2       1.0  0.2572636567208376  0.6637079656053616  0.6975803337599729  1.0000
  Na  Na3       1.0  0.24274044685000717  0.1637190275253815  0.19757844620183826  1.0000
  Na  Na4       1.0  0.7427338978889821  0.3362907457617085  0.3024205825869117  1.0000
  Na  Na5       1.0  0.5165344052709385  0.8920694386240132  0.5946978247334442  1.0000
  Na  Na6       1.0  0.0165236632582477  0.6079251494857305  0.9053016759009012  1.0000
  Na  Na7       1.0  0.4834647869152632  0.1079302883177391  0.40530164377403116  1.0000
  Na  Na8       1.0  0.9834738913522683  0.39207560966615773  0.09470002667678301  1.0000
  Cu  Cu1       1.0  0.49356127408747585  0.12135737182352105  0.822774928926272  1.0000
  Cu  Cu2       1.0  0.993558570631819  0.3786319351310255  0.6772262456905125  1.0000
  Cu  Cu3       1.0  0.5064444683828312  0.8786392950895066  0.1772259375679894  1.0000
  Cu  Cu4       1.0  0.006440621555427099  0.6213688140394568  0.3227732477415374  1.0000
  H   H1        1.0  0.9274751751507324  0.050971582679096614  0.9082829210288921  1.0000
  H   H2        1.0  0.42748437953149204  0.4490258338135292  0.5917155635008413  1.0000
  H   H3        1.0  0.07252074189182169  0.9490322398309277  0.091718119941568  1.0000
  H   H4        1.0  0.5725115375145859  0.5509759309295817  0.4082824820938883  1.0000
  H   H5        1.0  0.7593142907114794  0.0079091494714305  0.9886766932148066  1.0000
  H   H6        1.0  0.25931079481690483  0.4920901948459077  0.5113271384591016  1.0000
  H   H7        1.0  0.24068653904616608  0.9920936541392679  0.0113250592106411  1.0000
  H   H8        1.0  0.7406769343648136  0.5079125987772528  0.4886724048269713  1.0000
  H   H9        1.0  0.7591099752329737  0.8566657685383493  0.41017757646206837  1.0000
  H   H10       1.0  0.25910706768640057  0.6433394874636279  0.0898220561680532  1.0000
  H   H11       1.0  0.24089740481826988  0.14333497730817163  0.5898211805848774  1.0000
  H   H12       1.0  0.7408937620649352  0.3566612816717197  0.9101818555531765  1.0000
  H   H13       1.0  0.5220025925947808  0.8162335461395929  0.3784476093814533  1.0000
  H   H14       1.0  0.022001287900074794  0.6837735503795417  0.12155080142584751  1.0000
  H   H15       1.0  0.47800151231211874  0.18376924749037477  0.6215519338976705  1.0000
  H   H16       1.0  0.9779995418575705  0.31622925323116396  0.8784509509995999  1.0000
  H   H17       1.0  0.10271990267241897  0.8076374140958225  0.5094292760492607  1.0000
  H   H18       1.0  0.6027041363578148  0.6923511156778661  0.9905707383270227  1.0000
  H   H19       1.0  0.8972842022295918  0.19235924283443506  0.49056938130075883  1.0000
  H   H20       1.0  0.3972950558248839  0.307646570133798  0.009429416712947603  1.0000
  H   H21       1.0  0.0442109737966305  0.8896099571580508  0.6078016419059581  1.0000
  H   H22       1.0  0.5441937706823126  0.6103785239324253  0.8921984220926619  1.0000
  H   H23       1.0  0.9557898559652569  0.11038873757356535  0.39219559253130853  1.0000
  H   H24       1.0  0.45580378392891413  0.38962018410728677  0.10780175787257922  1.0000
  C   C1        1.0  0.25463701477264067  0.9220753403434971  0.8296695789223918  1.0000
  C   C2        1.0  0.7546402425206863  0.5779143214332906  0.6703266496204989  1.0000
  C   C3        1.0  0.745355627118954  0.0779172243397213  0.1703282423525323  1.0000
  C   C4        1.0  0.2453622248063921  0.4220731188009383  0.3296681015007934  1.0000
  C   C5        1.0  0.8477783177407898  0.1170296791222611  0.6727562610847855  1.0000
  C   C6        1.0  0.34777501532228416  0.38295848763132784  0.8272457486285987  1.0000
  C   C7        1.0  0.15222742473760315  0.8829679933826713  0.3272409484258247  1.0000
  C   C8        1.0  0.6522290895751579  0.6170392048371129  0.17275587917257706  1.0000
  O   O1        1.0  0.4164931784297251  0.9348726485773327  0.7670874864078956  1.0000
  O   O2        1.0  0.916489588748341  0.5651202311927437  0.7329123615487915  1.0000
  O   O3        1.0  0.5835076513310965  0.06512912282255463  0.23291203194804672  1.0000
  O   O4        1.0  0.08350632829492348  0.43488154020509734  0.2670871568092252  1.0000
  O   O5        1.0  0.22997901419361708  0.030689218159800205  0.889458486118052  1.0000
  O   O6        1.0  0.7299833110290945  0.469304977299153  0.6105423002824893  1.0000
  O   O7        1.0  0.7700152652715031  0.9693125665468192  0.11054397776724302  1.0000
  O   O8        1.0  0.27000441815012977  0.5307049952166311  0.3894625721471385  1.0000
  O   O9        1.0  0.13625514359560498  0.8169844634651541  0.831497803217971  1.0000
  O   O10       1.0  0.6362586039251423  0.683006125367669  0.6684992870313309  1.0000
  O   O11       1.0  0.8637489613081467  0.18301526347864444  0.1685016652874225  1.0000
  O   O12       1.0  0.3637324004131627  0.31700791277283713  0.3315005304237033  1.0000
  O   O13       1.0  0.7153739968497771  0.18845724531878724  0.7297830313207357  1.0000
  O   O14       1.0  0.21535765891572817  0.31152877345906665  0.7702205136051035  1.0000
  O   O15       1.0  0.2846415710489864  0.8115343137820619  0.27021844692811214  1.0000
  O   O16       1.0  0.7846497211306056  0.6884699345847313  0.2297796663559666  1.0000
  O   O17       1.0  0.8499015568555773  0.9870936037195723  0.6668431465430162  1.0000
  O   O18       1.0  0.34989088715173006  0.5128920617112628  0.8331558470396914  1.0000
  O   O19       1.0  0.1501058232037948  0.012899949924865003  0.3331473358337931  1.0000
  O   O20       1.0  0.6501115801651024  0.4871046251645837  0.1668494377458245  1.0000
  O   O21       1.0  0.9800223068780337  0.18974710887860624  0.6180027156429518  1.0000
  O   O22       1.0  0.4800251889814857  0.31024422461582896  0.8819970475397909  1.0000
  O   O23       1.0  0.019980160457421896  0.8102526080824152  0.3819945437182001  1.0000
  O   O24       1.0  0.5199854661979585  0.6897483633664337  0.11800592839900761  1.0000
  O   O25       1.0  0.7715291018474912  0.0281070928973932  0.9176265264324357  1.0000
  O   O26       1.0  0.27153675350736245  0.4718861182335204  0.5823749361849053  1.0000
  O   O27       1.0  0.22846681519329334  0.9718977584960771  0.08237601222589322  1.0000
  O   O28       1.0  0.7284558883957785  0.5281176909656793  0.4176231592603727  1.0000
  O   O29       1.0  0.6022059470027797  0.8718921474123962  0.42781735901616713  1.0000
  O   O30       1.0  0.10220307433167616  0.6281160380683561  0.0721810086955017  1.0000
  O   O31       1.0  0.3978014330502048  0.12811166844765862  0.5721822091861455  1.0000
  O   O32       1.0  0.8977993930005891  0.37188881000047763  0.9278207935784124  1.0000
  O   O33       1.0  0.14856853913420306  0.8206404962281371  0.5788083479625925  1.0000
  O   O34       1.0  0.6485480978855732  0.6793470494634379  0.9211916026066334  1.0000
  O   O35       1.0  0.8514339281952912  0.17935616070143828  0.42119030938811625  1.0000
  O   O36       1.0  0.35144781915523265  0.3206537030330452  0.0788086272084598  1.0000
