data_image0
_chemical_formula_structural       Al4P8H44C40N8O32
_chemical_formula_sum              "Al4 P8 H44 C40 N8 O32"
_cell_length_a       8.316310352196611
_cell_length_b       10.906185015542116
_cell_length_c       15.692507318054618
_cell_angle_alpha    89.99977759311814
_cell_angle_beta     89.99987972632015
_cell_angle_gamma    109.29038081022327

_space_group_name_H-M_alt    "P 1"
_space_group_IT_number       1

loop_
  _space_group_symop_operation_xyz
  'x, y, z'

loop_
  _atom_site_type_symbol
  _atom_site_label
  _atom_site_symmetry_multiplicity
  _atom_site_fract_x
  _atom_site_fract_y
  _atom_site_fract_z
  _atom_site_occupancy
  Al  Al1       1.0  0.4546956596817822  0.33551602845712136  0.1158176241144702  1.0000
  Al  Al2       1.0  0.045304068087084336  0.6644820124507478  0.6158171758498696  1.0000
  Al  Al3       1.0  0.545303066004749  0.6644835945814764  0.8841838258143825  1.0000
  Al  Al4       1.0  0.9546946576108297  0.33551761059962365  0.3841810878450077  1.0000
  P   P1        1.0  0.3755273158416089  0.35277825795046186  0.9198051624161465  1.0000
  P   P2        1.0  0.12447515251681555  0.6472233718449446  0.4198051386305792  1.0000
  P   P3        1.0  0.6244734485977972  0.6472233106537716  0.0801943757685635  1.0000
  P   P4        1.0  0.87552566102611  0.35278110843849936  0.5801950367969655  1.0000
  P   P5        1.0  0.18809759258725486  0.44390221068743335  0.21460298777135023  1.0000
  P   P6        1.0  0.3118922180556681  0.5560960507647225  0.7146069948743377  1.0000
  P   P7        1.0  0.8118958520132579  0.5560935185832748  0.7853952759317269  1.0000
  P   P8        1.0  0.6881053040301097  0.4439035696160689  0.2853931805616057  1.0000
  H   H1        1.0  0.18909171985134074  0.35023201366140466  0.8230979707852486  1.0000
  H   H2        1.0  0.31090569174153876  0.649762553483015  0.323092633950445  1.0000
  H   H3        1.0  0.8109097324023014  0.6497627627847894  0.17690411639541284  1.0000
  H   H4        1.0  0.6890938199913137  0.3502361007818423  0.6769056297452993  1.0000
  H   H5        1.0  0.5691098326176204  0.36281116291501553  0.8197050396704172  1.0000
  H   H6        1.0  0.9308939521663719  0.6371895603443961  0.31970215174393973  1.0000
  H   H7        1.0  0.43088768946360306  0.637188457461065  0.18029641025911763  1.0000
  H   H8        1.0  0.06910514199383755  0.3628081224700851  0.6802967492001457  1.0000
  H   H9        1.0  0.9838187965979017  0.5229017093716523  0.1897612822931478  1.0000
  H   H10       1.0  0.5161738314682155  0.4770970352611316  0.6897664700221001  1.0000
  H   H11       1.0  0.016174697099309326  0.4770969315712037  0.8102395303931546  1.0000
  H   H12       1.0  0.483820865841132  0.5229016083513047  0.3102324309231435  1.0000
  H   H13       1.0  0.12152968934916691  0.15533850461872598  0.1921283569313488  1.0000
  H   H14       1.0  0.3784731530824459  0.8446618923530451  0.6921295995107075  1.0000
  H   H15       1.0  0.878471861122904  0.8446620951976488  0.8078718185010203  1.0000
  H   H16       1.0  0.621525204139516  0.15533967091909776  0.3078718504157365  1.0000
  H   H17       1.0  0.98527750724881  0.9134331670498955  0.21047255007479043  1.0000
  H   H18       1.0  0.5147262719770538  0.08656933173241303  0.7104717832018254  1.0000
  H   H19       1.0  0.01472691709866331  0.08657132120933402  0.7895308115847046  1.0000
  H   H20       1.0  0.48527527849274343  0.91343126808161  0.2895290294773361  1.0000
  H   H21       1.0  0.15756941559307353  0.7689643572681961  0.1733249052049075  1.0000
  H   H22       1.0  0.3424251359559563  0.23103615994112667  0.6733259316117925  1.0000
  H   H23       1.0  0.8424265344137183  0.23103720067420142  0.8266778192164779  1.0000
  H   H24       1.0  0.6575764145161145  0.7689644398752409  0.3266742438205767  1.0000
  H   H25       1.0  0.4500089978327751  0.8689863628082224  0.11942181231014361  1.0000
  H   H26       1.0  0.049989869035421526  0.13100970857692576  0.6194234351471479  1.0000
  H   H27       1.0  0.5499917174962761  0.13101229410974471  0.8805790003721015  1.0000
  H   H28       1.0  0.9500113129743539  0.868992831475332  0.3805761030360131  1.0000
  H   H29       1.0  0.7085248740435618  0.9720971392325384  0.09132786665293222  1.0000
  H   H30       1.0  0.7914764650389045  0.027901379604898607  0.5913256744565772  1.0000
  H   H31       1.0  0.2914754728186467  0.02790345791660801  0.9086735832737035  1.0000
  H   H32       1.0  0.20852587147265939  0.9720982514306731  0.40867322648306736  1.0000
  H   H33       1.0  0.9911383864267407  0.10681298127273925  0.0310160157320709  1.0000
  H   H34       1.0  0.5088629660262712  0.8931850115573852  0.5310130794791235  1.0000
  H   H35       1.0  0.008860756830159735  0.893187613213897  0.96898543419524  1.0000
  H   H36       1.0  0.4911398371591886  0.10681850260542095  0.4689864587018207  1.0000
  H   H37       1.0  0.041196327349766276  0.3393565498177723  0.9977170721607322  1.0000
  H   H38       1.0  0.4588087284585498  0.6606406294148713  0.4977160015328224  1.0000
  H   H39       1.0  0.9588036019443538  0.6606430758857019  0.0022837405206459003  1.0000
  H   H40       1.0  0.5411924535512257  0.3393619106373863  0.5022835366503386  1.0000
  H   H41       1.0  0.8074321313748385  0.43273085643967596  0.027388469960946803  1.0000
  H   H42       1.0  0.6925757316910648  0.5672710596145976  0.5273881194630121  1.0000
  H   H43       1.0  0.19256905062810872  0.5672716836055188  0.9726129799626052  1.0000
  H   H44       1.0  0.3074238291407597  0.43273050632476656  0.472612055969158  1.0000
  C   C1        1.0  0.1885738489175637  0.08764819273217482  0.17657449101122324  1.0000
  C   C2        1.0  0.31143030825243306  0.9123523217744635  0.6765762631130698  1.0000
  C   C3        1.0  0.8114285367020743  0.912354349987311  0.8234237726776714  1.0000
  C   C4        1.0  0.6885708246469875  0.08764730659152781  0.3234245495676333  1.0000
  C   C5        1.0  0.11542816473424025  0.95402674072367  0.1876276834483761  1.0000
  C   C6        1.0  0.38457225354273555  0.04597077248541132  0.6876278875204774  1.0000
  C   C7        1.0  0.8845725505857159  0.04597191618488241  0.8123756782210592  1.0000
  C   C8        1.0  0.6154268897164455  0.9540298220035696  0.312372925160041  1.0000
  C   C9        1.0  0.2104479026986257  0.8742046660677691  0.1668152577138784  1.0000
  C   C10       1.0  0.2895599350155393  0.12579592850079993  0.6668179015591066  1.0000
  C   C11       1.0  0.7895612869711145  0.12579692116703003  0.8331861922064832  1.0000
  C   C12       1.0  0.7104432366367632  0.87420564543082  0.3331809993774542  1.0000
  C   C13       1.0  0.3752809634249276  0.9306618332486923  0.1359411195289084  1.0000
  C   C14       1.0  0.12471903811631793  0.06933703047086943  0.6359440997712653  1.0000
  C   C15       1.0  0.6247169762289388  0.06933875857777141  0.864059693152278  1.0000
  C   C16       1.0  0.8752841335382584  0.9306645434631025  0.3640541639184961  1.0000
  C   C17       1.0  0.44020115119676717  0.0651181778064185  0.1255787060851361  1.0000
  C   C18       1.0  0.059802535211943675  0.9348807704438328  0.6255787866992792  1.0000
  C   C19       1.0  0.5598019713497422  0.9348804844436389  0.8744201948553751  1.0000
  C   C20       1.0  0.9402014224775712  0.06511983470463181  0.3744194769913492  1.0000
  C   C21       1.0  0.6114903486573124  0.13369692914683642  0.0915476273210345  1.0000
  C   C22       1.0  0.8885170068785585  0.8663016013771173  0.5915462513207148  1.0000
  C   C23       1.0  0.3885119878451421  0.8663027018793202  0.9084538226057931  1.0000
  C   C24       1.0  0.1114869508155181  0.1336990037760586  0.408450737876322  1.0000
  C   C25       1.0  0.7347254461923569  0.07454147874614853  0.07686929560787091  1.0000
  C   C26       1.0  0.7652776173809672  0.9254581209932414  0.576865348677714  1.0000
  C   C27       1.0  0.2652744830903799  0.9254581469455588  0.9231347033074897  1.0000
  C   C28       1.0  0.2347230979594741  0.07454053593649232  0.4231322777705558  1.0000
  C   C29       1.0  0.891592312416215  0.14913469144886457  0.04316066366365591  1.0000
  C   C30       1.0  0.6084121465090818  0.8508622482278698  0.5431570931534394  1.0000
  C   C31       1.0  0.10840923805358234  0.8508659083651582  0.9568401490155054  1.0000
  C   C32       1.0  0.3915918111827139  0.14913835692295413  0.4568405332903894  1.0000
  C   C33       1.0  0.9205589064337687  0.2793762344128369  0.024435611983122402  1.0000
  C   C34       1.0  0.5794449493500836  0.7206247240201976  0.5244336996511194  1.0000
  C   C35       1.0  0.07943782961478987  0.7206243547511096  0.9755652006987461  1.0000
  C   C36       1.0  0.42055665023688965  0.2793787874871542  0.47556392679011594  1.0000
  C   C37       1.0  0.7923405061355668  0.33186188651464493  0.04110598895764642  1.0000
  C   C38       1.0  0.7076663746731456  0.6681350736536091  0.5411047122617987  1.0000
  C   C39       1.0  0.20766104433194957  0.6681387132970187  0.9588954609683144  1.0000
  C   C40       1.0  0.2923387866216843  0.33186553415737324  0.4588935514281545  1.0000
  N   N1        1.0  0.3464043770083194  0.14183243224601944  0.14507203446206776  1.0000
  N   N2        1.0  0.15359592776558645  0.8581644238132358  0.6450722172688971  1.0000
  N   N3        1.0  0.6535939311123969  0.8581662193492579  0.8549281409747352  1.0000
  N   N4        1.0  0.8464052051383959  0.14183520455745935  0.3549273209182147  1.0000
  N   N5        1.0  0.6424800419802709  0.2613409635209863  0.07506058875967621  1.0000
  N   N6        1.0  0.8575238696490358  0.738660592464264  0.5750589544525582  1.0000
  N   N7        1.0  0.35752030487510933  0.7386596336211044  0.9249427729073505  1.0000
  N   N8        1.0  0.14247809840250622  0.2613409788095496  0.4249386719910859  1.0000
  O   O1        1.0  0.3515139393986574  0.29055283094207607  0.007179908701580502  1.0000
  O   O2        1.0  0.14848735065201182  0.7094450435453938  0.5071760376726006  1.0000
  O   O3        1.0  0.6484867759258464  0.7094458259711873  0.9928221784742634  1.0000
  O   O4        1.0  0.8515149858686611  0.2905545874995853  0.4928203142798608  1.0000
  O   O5        1.0  0.2038637050518872  0.2877676077991964  0.8692901552453592  1.0000
  O   O6        1.0  0.29613981207846524  0.7122276029409351  0.3692872153878285  1.0000
  O   O7        1.0  0.7961373787371856  0.7122291088805286  0.1307119319328933  1.0000
  O   O8        1.0  0.7038621068672838  0.2877710566513089  0.6307104110597666  1.0000
  O   O9        1.0  0.5193971969729603  0.31232204681185766  0.8738086629524987  1.0000
  O   O10       1.0  0.9806070363753036  0.6876802197600612  0.3738049460568078  1.0000
  O   O11       1.0  0.48060477106037786  0.6876795244431265  0.1261940614655046  1.0000
  O   O12       1.0  0.01939493167851947  0.3123213515161042  0.6261920431400443  1.0000
  O   O13       1.0  0.41572941439671507  0.4991436508328989  0.9178052621054462  1.0000
  O   O14       1.0  0.08426375878200802  0.5008531205325399  0.4178012173375976  1.0000
  O   O15       1.0  0.5842660689293525  0.5008540239752011  0.0821987368150303  1.0000
  O   O16       1.0  0.9157296858298878  0.4991426087499351  0.582193860131504  1.0000
  O   O17       1.0  0.2635975385341497  0.369159531557621  0.1535426957360926  1.0000
  O   O18       1.0  0.23639747370833677  0.6308362798267596  0.6535472227822013  1.0000
  O   O19       1.0  0.7363963236344588  0.6308371691587598  0.8464562052122346  1.0000
  O   O20       1.0  0.7636008344146532  0.36916237177087663  0.34645231540780946  1.0000
  O   O21       1.0  0.33692377270126883  0.5534501939470503  0.2585230805377279  1.0000
  O   O22       1.0  0.163072945748624  0.44654775909611294  0.7585294611083813  1.0000
  O   O23       1.0  0.6630732827151676  0.44654554331121  0.741475183163324  1.0000
  O   O24       1.0  0.8369273520146194  0.5534499263785266  0.2414700770818214  1.0000
  O   O25       1.0  0.0867088605355307  0.5150640795615758  0.15826778270641034  1.0000
  O   O26       1.0  0.4132816719789503  0.48492974603155403  0.6582750547798568  1.0000
  O   O27       1.0  0.9132866228042005  0.48493359526064256  0.8417323927332917  1.0000
  O   O28       1.0  0.586716267686306  0.5150708458066761  0.3417225716673613  1.0000
  O   O29       1.0  0.06436141583773045  0.35436913926511693  0.2773942906134934  1.0000
  O   O30       1.0  0.43563401327998014  0.6456315834277363  0.7773991924864561  1.0000
  O   O31       1.0  0.9356324463308712  0.6456275614512638  0.722604610334834  1.0000
  O   O32       1.0  0.5643627227685784  0.3543690057362099  0.22260162019540536  1.0000
