data_image0
_chemical_formula_structural       Zn4H69C87S4N27O12
_chemical_formula_sum              "Zn4 H69 C87 S4 N27 O12"
_cell_length_a       19.073978992070803
_cell_length_b       19.326940573094852
_cell_length_c       20.058257450647233
_cell_angle_alpha    105.70285003431154
_cell_angle_beta     107.24134199866627
_cell_angle_gamma    112.50629989527746

_space_group_name_H-M_alt    "P 1"
_space_group_IT_number       1

loop_
  _space_group_symop_operation_xyz
  'x, y, z'

loop_
  _atom_site_type_symbol
  _atom_site_label
  _atom_site_symmetry_multiplicity
  _atom_site_fract_x
  _atom_site_fract_y
  _atom_site_fract_z
  _atom_site_occupancy
  Zn  Zn1       1.0  0.8784545831692298  0.8925414794627284  0.44799523849015777  1.0000
  Zn  Zn2       1.0  0.09201896448592352  0.08340872049080872  0.5021751173002329  1.0000
  Zn  Zn3       1.0  0.1243782976469134  0.006737632233580392  0.6311159732469845  1.0000
  Zn  Zn4       1.0  0.8836257065749463  0.9977459687664094  0.36052369040523746  1.0000
  H   H1        1.0  0.888344551271892  0.8639612523556861  0.6815407100237534  1.0000
  H   H2        1.0  0.15368634668813996  0.2746596482099902  0.5241584829001482  1.0000
  H   H3        1.0  0.8372576693577969  0.12349035755418915  0.4548630459402644  1.0000
  H   H4        1.0  0.0419142339448868  0.21836287746374697  0.5907009481120298  1.0000
  H   H5        1.0  0.14396116070082599  0.9058453619697602  0.7435600456807662  1.0000
  H   H6        1.0  0.6831990533572209  0.7287144907084409  0.3373026257038204  1.0000
  H   H7        1.0  0.2743781568425661  0.148284413146655  0.5001837021719453  1.0000
  H   H8        1.0  0.13606788068349124  0.8652688161376999  0.5313862475367941  1.0000
  H   H9        1.0  0.8571394367652869  0.819526518693827  0.26587195143824244  1.0000
  H   H10       1.0  0.1314912437497995  0.9751540982286285  0.3836107709609421  1.0000
  H   H11       1.0  0.321235823818391  0.04410149558204069  0.6629577616520875  1.0000
  H   H12       1.0  0.34832867769380726  0.04685692685924175  0.45427752811539074  1.0000
  H   H13       1.0  0.4941490113499328  0.1936821448540015  0.7012256417278522  1.0000
  H   H14       1.0  0.8309752148326126  0.16690280832391113  0.6792355214556095  1.0000
  H   H15       1.0  0.6815522197687399  0.021346884739656964  0.432317493152972  1.0000
  H   H16       1.0  0.5394733839306839  0.0006548606550609476  0.36651941225800755  1.0000
  H   H17       1.0  0.41662880024514237  0.01174305810623365  0.3745318690529372  1.0000
  H   H18       1.0  0.053206566909949495  0.719273659184374  0.6027583580224699  1.0000
  H   H19       1.0  0.07300090766599963  0.36747002289268244  0.5600038154755467  1.0000
  H   H20       1.0  0.0008758499933562999  0.30243815105852434  0.31713443135146946  1.0000
  H   H21       1.0  0.9747142018022787  0.39356613166451393  0.2624104053721155  1.0000
  H   H22       1.0  0.9627467627841994  0.5175348125636957  0.27685551329557967  1.0000
  H   H23       1.0  0.08687699428088541  0.240016870628267  0.8432059487404544  1.0000
  H   H24       1.0  0.1735393584348301  0.37524359524454093  0.9619615644746417  1.0000
  H   H25       1.0  0.41963044403500765  0.49908229630323575  0.12308606263256648  1.0000
  H   H26       1.0  0.5669190908245482  0.6108334778868425  0.22128376530787358  1.0000
  H   H27       1.0  0.15041511776823308  0.3699348529887061  0.7066669749416548  1.0000
  H   H28       1.0  0.3745226710556934  0.6764054425289385  0.054688536143672146  1.0000
  H   H29       1.0  0.22749706275301657  0.5046986259927166  0.8237536613541394  1.0000
  H   H30       1.0  0.520488063881821  0.7896342190124274  0.15512924153872384  1.0000
  H   H31       1.0  0.8686938222405303  0.7833403439188301  0.15081794952001812  1.0000
  H   H32       1.0  0.8810226631369672  0.7396806776673799  0.029416728522392032  1.0000
  H   H33       1.0  0.8700743040856763  0.7965093157580794  0.7474338052871656  1.0000
  H   H34       1.0  0.13378096424899868  0.8680100222421812  0.2824112990488956  1.0000
  H   H35       1.0  0.10976056195439549  0.7974490806346851  0.9350285080272086  1.0000
  H   H36       1.0  0.14528624272805504  0.824850226272801  0.1592394762280235  1.0000
  H   H37       1.0  0.12684337651694483  0.8406763499532133  0.8322606961449848  1.0000
  H   H38       1.0  0.798876463649087  0.5885759759430087  0.38640629322725306  1.0000
  H   H39       1.0  0.7189031326157932  0.9399021266076346  0.21331150718880554  1.0000
  H   H40       1.0  0.6332100401338892  0.8613076260961137  0.07716235331473337  1.0000
  H   H41       1.0  0.5991521177565602  0.7678063714395477  0.08844800634076218  1.0000
  H   H42       1.0  0.7062997698476535  0.8257572754092877  0.10501215861361145  1.0000
  H   H43       1.0  0.7110896071735625  0.3121042883729004  0.8129843045652478  1.0000
  H   H44       1.0  0.6642401193137814  0.19243808422908865  0.8488121686301681  1.0000
  H   H45       1.0  0.5595346428092256  0.1688721857789587  0.7929293853899253  1.0000
  H   H46       1.0  0.6296555842672973  0.2648874835114157  0.8771668242649681  1.0000
  H   H47       1.0  0.7916626868134031  0.2696765937386161  0.8199737390216483  1.0000
  H   H48       1.0  0.8517564764829332  0.3724550623491893  0.7699343300625329  1.0000
  H   H49       1.0  0.8741471906346162  0.29961537647542247  0.7187477143598784  1.0000
  H   H50       1.0  0.9243129683133872  0.34632283024873084  0.8216785731589056  1.0000
  H   H51       1.0  0.9614128279298627  0.7069935429963792  0.36459522989869697  1.0000
  H   H52       1.0  0.8494060956603067  0.6196098483881516  0.2495692324869695  1.0000
  H   H53       1.0  0.8462672292071147  0.5324983215170747  0.2654117423005502  1.0000
  H   H54       1.0  0.9126499790587701  0.5794089154877398  0.22550481534631928  1.0000
  H   H55       1.0  0.020958283673237994  0.7024332587909612  0.7350402054557533  1.0000
  H   H56       1.0  0.09237770454392799  0.5214684534519449  0.705481846893697  1.0000
  H   H57       1.0  0.9433300820583171  0.41467116742498433  0.645761573823556  1.0000
  H   H58       1.0  0.0139191887084209  0.38071957739759205  0.6856114006540678  1.0000
  H   H59       1.0  0.9648991039713978  0.3490761765348793  0.5839431894598021  1.0000
  H   H60       1.0  0.23306848014031087  0.28582152527156524  0.8740906152055387  1.0000
  H   H61       1.0  0.8442055923901464  0.7439776028781536  0.9027869372937615  1.0000
  H   H62       1.0  0.7232757959357982  0.7441793462265662  0.8322583066446041  1.0000
  H   H63       1.0  0.7401370064164537  0.7213975123272361  0.7484041526330428  1.0000
  H   H64       1.0  0.7954376566220772  0.8262693412160472  0.8204931142705048  1.0000
  H   H65       1.0  0.902778576714482  0.9661472644638566  0.6194405553415478  1.0000
  H   H66       1.0  0.8400632830093713  0.9724950116588642  0.7018887265588702  1.0000
  H   H67       1.0  0.7684632897245082  0.995047341104943  0.6447666040081899  1.0000
  H   H68       1.0  0.8761834096361555  0.07496895342575267  0.7082197737318694  1.0000
  H   H69       1.0  0.8825463754428141  0.2509375845349381  0.344238610488766  1.0000
  C   C1        1.0  0.952649658884546  0.8817617452693439  0.6894175572889623  1.0000
  C   C2        1.0  0.09315935583367721  0.2311660294022317  0.4730021386249845  1.0000
  C   C3        1.0  0.1191367001242867  0.1583640043803527  0.7181067503065748  1.0000
  C   C4        1.0  0.8491167364639906  0.08573233993283212  0.4832639970160243  1.0000
  C   C5        1.0  0.0668915687481118  0.1920136077078496  0.6262592841274852  1.0000
  C   C6        1.0  0.857041499668604  0.017600327527460956  0.5560917403467015  1.0000
  C   C7        1.0  0.9716704155286635  0.16738264962346963  0.3693875863342412  1.0000
  C   C8        1.0  0.08282819200547922  0.9023960373932595  0.721262462834737  1.0000
  C   C9        1.0  0.0110086954908013  0.8633046639377683  0.7324648817242049  1.0000
  C   C10       1.0  0.0366037847743712  0.24771768764620108  0.4265055911283254  1.0000
  C   C11       1.0  0.09671842853243359  0.21758125415649227  0.7066208687968539  1.0000
  C   C12       1.0  0.8274664371537169  0.07212080420268992  0.5414538783463029  1.0000
  C   C13       1.0  0.6966935312956082  0.7729812731073622  0.3127418496595595  1.0000
  C   C14       1.0  0.2721092686816817  0.11897095761022305  0.5393405557542295  1.0000
  C   C15       1.0  0.06915970821242469  0.8439950892969322  0.5148422417840236  1.0000
  C   C16       1.0  0.9236564179660149  0.8650222513141942  0.3044659358650889  1.0000
  C   C17       1.0  0.06346734812215969  0.9445879293336572  0.36513975693672757  1.0000
  C   C18       1.0  0.9327156822541056  0.7747327899182752  0.4797763439698883  1.0000
  C   C19       1.0  0.6950063013867408  0.8473533104832214  0.24523663460630016  1.0000
  C   C20       1.0  0.296344730167938  0.06666853769772266  0.6230117651986831  1.0000
  C   C21       1.0  0.6434300095069218  0.7718223354195857  0.2461781060932892  1.0000
  C   C22       1.0  0.33338695654301626  0.10485999640250294  0.5825054199463722  1.0000
  C   C23       1.0  0.0038235394955635008  0.764253967366123  0.49309602135926406  1.0000
  C   C24       1.0  0.9965170108155023  0.8741447406744244  0.2960562267681794  1.0000
  C   C25       1.0  0.40889158412311843  0.08036783728798005  0.5064251064687468  1.0000
  C   C26       1.0  0.41279670764140514  0.11719923786006345  0.5788575069761633  1.0000
  C   C27       1.0  0.4906299343817366  0.16057801856641152  0.6458439193653547  1.0000
  C   C28       1.0  0.5642181520491363  0.16338145126282905  0.6424294123156001  1.0000
  C   C29       1.0  0.5584580577649376  0.12130499446932667  0.5688572074576114  1.0000
  C   C30       1.0  0.48042315104049743  0.08151809371551613  0.5001044231948413  1.0000
  C   C31       1.0  0.6459937393805718  0.2099097990703101  0.7100109486964641  1.0000
  C   C32       1.0  0.7162500111373334  0.2076398475432129  0.7046460777934627  1.0000
  C   C33       1.0  0.7079785744026948  0.15633956062308832  0.6318836830053057  1.0000
  C   C34       1.0  0.6296472942009714  0.11748917095469118  0.5638416082073971  1.0000
  C   C35       1.0  0.6215444488097573  0.07079539616104563  0.49069230312937145  1.0000
  C   C36       1.0  0.5436733898493813  0.034284992336566116  0.4222232673438241  1.0000
  C   C37       1.0  0.47608564826794714  0.040126758827184944  0.4267019319762965  1.0000
  C   C38       1.0  0.7730831712603319  0.14101293457551367  0.6265713354321746  1.0000
  C   C39       1.0  0.7638201318970771  0.09164092062935213  0.5553169369231695  1.0000
  C   C40       1.0  0.6888364535876548  0.05929633147241721  0.4879950210010264  1.0000
  C   C41       1.0  0.9815951475541596  0.6300371369107082  0.4066696231401749  1.0000
  C   C42       1.0  0.0073753934488607  0.6874304026977639  0.4827210339847738  1.0000
  C   C43       1.0  0.03558071308615501  0.6727464747659581  0.5468362298511521  1.0000
  C   C44       1.0  0.038257703527222  0.599493873308667  0.5403961139143689  1.0000
  C   C45       1.0  0.0136644499539855  0.5414658857349436  0.46450538921231294  1.0000
  C   C46       1.0  0.988197992711271  0.5575474740875561  0.3981076322067309  1.0000
  C   C47       1.0  0.060164497790673  0.5788106135339035  0.6049832200265399  1.0000
  C   C48       1.0  0.05592504855287932  0.5025527180889428  0.5949706175841668  1.0000
  C   C49       1.0  0.041529225266131696  0.4490844508627986  0.519562511629239  1.0000
  C   C50       1.0  0.0186064503137757  0.46797655730213  0.45519326109386776  1.0000
  C   C51       1.0  0.0032116484652605004  0.413393194674967  0.38136104409559113  1.0000
  C   C52       1.0  0.9830803571532413  0.43370040913160307  0.3176644617611044  1.0000
  C   C53       1.0  0.9756720382056939  0.5026590345373733  0.32599628458574154  1.0000
  C   C54       1.0  0.052313094867138  0.3795683011438769  0.5098675710206705  1.0000
  C   C55       1.0  0.0357877758716256  0.32544806580233404  0.4372778866022741  1.0000
  C   C56       1.0  0.0105676800067087  0.3423001949689991  0.3732609891914933  1.0000
  C   C57       1.0  0.5555288574946573  0.7079702047148899  0.1931736551885592  1.0000
  C   C58       1.0  0.4986121103927488  0.7255809840406612  0.14704148893527952  1.0000
  C   C59       1.0  0.4172043870001971  0.6631821158905495  0.09188420689481788  1.0000
  C   C60       1.0  0.3894039730991423  0.5805231039510446  0.08171489436368516  1.0000
  C   C61       1.0  0.4428427242536159  0.5633736646290898  0.13147698980908723  1.0000
  C   C62       1.0  0.5247394368189973  0.6259137712627735  0.18585913299635592  1.0000
  C   C63       1.0  0.1669177735802521  0.37315330036685873  0.9054856226602296  1.0000
  C   C64       1.0  0.11977106294697389  0.2979237447477844  0.8392949035349204  1.0000
  C   C65       1.0  0.2106595885376237  0.44753376123171057  0.900437433541441  1.0000
  C   C66       1.0  0.11854050390274302  0.2948415781043394  0.7676130166718735  1.0000
  C   C67       1.0  0.15250294881992227  0.3703673328964285  0.7617319173248231  1.0000
  C   C68       1.0  0.1964750548036491  0.44613455156449083  0.8271839158020667  1.0000
  C   C69       1.0  0.9993734977268717  0.8235366773274251  0.7832168755955067  1.0000
  C   C70       1.0  0.06591251419463622  0.8186721679150537  0.8341889780567014  1.0000
  C   C71       1.0  0.0570881954969948  0.7955469242808137  0.8923418845206826  1.0000
  C   C72       1.0  0.982156847552652  0.7746858269016241  0.901325330089392  1.0000
  C   C73       1.0  0.911474002782576  0.7709239323195831  0.8449890919964105  1.0000
  C   C74       1.0  0.9219183553422353  0.7951110416450432  0.7872804430576535  1.0000
  C   C75       1.0  0.9359415883335062  0.7672108103880647  0.08503149032915044  1.0000
  C   C76       1.0  0.9294948408570036  0.7915327782352931  0.15340678779270414  1.0000
  C   C77       1.0  0.0151536599348461  0.7830729268948815  0.08648935482592893  1.0000
  C   C78       1.0  0.0012980186354881005  0.832398351112417  0.22624690592808608  1.0000
  C   C79       1.0  0.0779247955666591  0.8398553418806715  0.22708360167997202  1.0000
  C   C80       1.0  0.08474287479360502  0.8152183191723738  0.1583600675887311  1.0000
  C   C81       1.0  0.652752694978318  0.8308497647448477  0.11179490744473254  1.0000
  C   C82       1.0  0.6258606237022519  0.21956471019549173  0.8273338493198281  1.0000
  C   C83       1.0  0.8648480370997548  0.321470802325038  0.7701329967715367  1.0000
  C   C84       1.0  0.8880424754618446  0.5921080858402449  0.26782978075075187  1.0000
  C   C85       1.0  0.9931564036452515  0.40078968283257416  0.6409843240829147  1.0000
  C   C86       1.0  0.7713950133317126  0.7608450275605348  0.8112397582297246  1.0000
  C   C87       1.0  0.8343095716316994  0.007993236381679316  0.6682452661247351  1.0000
  S   S1        1.0  0.8306696609134647  0.7079114729421576  0.463702934565525  1.0000
  S   S2        1.0  0.0960463547913548  0.6556680926726699  0.6995590908206281  1.0000
  S   S3        1.0  0.17881455952962708  0.15616982532366555  0.8030339124262936  1.0000
  S   S4        1.0  0.8743281077896369  0.13458001662162622  0.29425883126382496  1.0000
  N   N1        1.0  0.9857736070243277  0.9278413031726275  0.6562664073113565  1.0000
  N   N2        1.0  0.0629520739710756  0.148338597485477  0.4455227969926554  1.0000
  N   N3        1.0  0.10279363153404118  0.10301540488750051  0.6500601103524417  1.0000
  N   N4        1.0  0.8870057715585132  0.043694306374241765  0.46325664741239336  1.0000
  N   N5        1.0  0.07141508312324159  0.12373672924283602  0.5938532737343323  1.0000
  N   N6        1.0  0.8905945472316363  0.9997736363253226  0.5068638900428653  1.0000
  N   N7        1.0  0.9870567562117216  0.1080677466327912  0.38146947886230004  1.0000
  N   N8        1.0  0.066568863290442  0.9402565664537127  0.6760490093091605  1.0000
  N   N9        1.0  0.7725564920807813  0.8427460800055683  0.3493428723968676  1.0000
  N   N10       1.0  0.20406166586462865  0.09160465680523092  0.5534836353774678  1.0000
  N   N11       1.0  0.0395907300301204  0.8976652409197359  0.5155868529015777  1.0000
  N   N12       1.0  0.9454196746808988  0.9266993092424513  0.3725970782088836  1.0000
  N   N13       1.0  0.031985455356526395  0.9749888794863895  0.4091980627393356  1.0000
  N   N14       1.0  0.9551156897369638  0.8542966228817689  0.49259971810617026  1.0000
  N   N15       1.0  0.772508785840273  0.8886823658175588  0.30704710972783994  1.0000
  N   N16       1.0  0.2186367029758287  0.058175604055485095  0.6046220508678957  1.0000
  N   N17       1.0  0.3148240609882507  0.5103456030025485  0.020246574713830484  1.0000
  N   N18       1.0  0.27685740781333823  0.522888535201659  0.9647346803085526  1.0000
  N   N19       1.0  0.9708425959203594  0.767506190343994  0.9643399267275753  1.0000
  N   N20       1.0  0.0316165031688485  0.7765422111703301  0.021543244916607255  1.0000
  N   N21       1.0  0.6749166303065052  0.8789043818122619  0.19255168185262742  1.0000
  N   N22       1.0  0.6522719381614124  0.2604572156932505  0.7802566927282372  1.0000
  N   N23       1.0  0.7965221812102213  0.25172050609926083  0.7697182993363114  1.0000
  N   N24       1.0  0.9552720144941277  0.6496849940523077  0.34620358771339704  1.0000
  N   N25       1.0  0.06743287186338878  0.47408390409237466  0.6521152059323468  1.0000
  N   N26       1.0  0.8379444417003014  0.7476294601063883  0.8518699783566673  1.0000
  N   N27       1.0  0.8561777474512126  0.9819145773093679  0.6063142338577946  1.0000
  O   O1        1.0  0.8348403420946439  0.6725325280701782  0.5181205858303811  1.0000
  O   O2        1.0  0.7838002913909604  0.7508460219257813  0.4541897543081389  1.0000
  O   O3        1.0  0.7900027016839247  0.6330332037896512  0.3784866312491458  1.0000
  O   O4        1.0  0.1228389988722327  0.6283324720150462  0.7579391589095079  1.0000
  O   O5        1.0  0.1555967351060872  0.7365898177267098  0.7108012224597217  1.0000
  O   O6        1.0  0.008570113484971397  0.6527001177809738  0.6912486000877606  1.0000
  O   O7        1.0  0.12965472403827502  0.135255113768153  0.8440270145059828  1.0000
  O   O8        1.0  0.21930607531358248  0.11041463559607928  0.7818047281724461  1.0000
  O   O9        1.0  0.2549874835387841  0.25075093357369843  0.8529446064368996  1.0000
  O   O10       1.0  0.8832191382294142  0.14672172333605002  0.2291189933045601  1.0000
  O   O11       1.0  0.8168451433288909  0.05225866481384127  0.28327814869678036  1.0000
  O   O12       1.0  0.8430342155979744  0.19279829599419426  0.33280494600264626  1.0000
