data_image0
_chemical_formula_structural       Cu4H36C36N12Cl4O4
_chemical_formula_sum              "Cu4 H36 C36 N12 Cl4 O4"
_cell_length_a       8.566908412338726
_cell_length_b       11.473934580236692
_cell_length_c       11.472128937250698
_cell_angle_alpha    89.99926088914611
_cell_angle_beta     108.85463635771924
_cell_angle_gamma    90.00024813864093

_space_group_name_H-M_alt    "P 1"
_space_group_IT_number       1

loop_
  _space_group_symop_operation_xyz
  'x, y, z'

loop_
  _atom_site_type_symbol
  _atom_site_label
  _atom_site_symmetry_multiplicity
  _atom_site_fract_x
  _atom_site_fract_y
  _atom_site_fract_z
  _atom_site_occupancy
  Cu  Cu1       1.0  0.049301458562567305  0.8877323854493824  0.1024090002536511  1.0000
  Cu  Cu2       1.0  0.9507024405723287  0.38773345432764467  0.3975970117012366  1.0000
  Cu  Cu3       1.0  0.95069809601123  0.11226934645402047  0.8975943000499598  1.0000
  Cu  Cu4       1.0  0.04929464706702899  0.6122674060349523  0.6024056955775237  1.0000
  H   H1        1.0  0.1748327231077056  0.3697468450576693  0.2983360585429295  1.0000
  H   H2        1.0  0.8251625202385285  0.8697409266526324  0.20165851528251008  1.0000
  H   H3        1.0  0.8251532535146353  0.6302522722567118  0.7016587476799147  1.0000
  H   H4        1.0  0.1748419583912693  0.13025557604133547  0.7983407386853187  1.0000
  H   H5        1.0  0.03562362030589839  0.24046340065313393  0.260278436418055  1.0000
  H   H6        1.0  0.9643740776932858  0.7404600590546695  0.2397253618658937  1.0000
  H   H7        1.0  0.9643599090064329  0.7595348450526984  0.7397262416401559  1.0000
  H   H8        1.0  0.0356316360391418  0.2595373151743701  0.7602750606832629  1.0000
  H   H9        1.0  0.24203215332251196  0.3279525172523705  0.5223230840795737  1.0000
  H   H10       1.0  0.7579840548646857  0.8279480334381688  0.9776728079635151  1.0000
  H   H11       1.0  0.757976020802886  0.6720457285400556  0.47767444320769675  1.0000
  H   H12       1.0  0.24202412416656216  0.1720475977154763  0.022327335555552  1.0000
  H   H13       1.0  0.0715404261448782  0.1757285326017026  0.5875036198667942  1.0000
  H   H14       1.0  0.9284745350635575  0.675725450397664  0.9125026448865796  1.0000
  H   H15       1.0  0.9284615953629469  0.8242697131394364  0.41250027348956314  1.0000
  H   H16       1.0  0.07153611090222259  0.3242719238374079  0.08749809165176  1.0000
  H   H17       1.0  0.9852876234179107  0.12772396460134416  0.431565299512819  1.0000
  H   H18       1.0  0.014729779760521903  0.6277206080056247  0.0684403257585444  1.0000
  H   H19       1.0  0.014724260921241204  0.8722742811575017  0.5684383497502097  1.0000
  H   H20       1.0  0.9852808711112786  0.3722758946718938  0.9315630270004291  1.0000
  H   H21       1.0  0.4235469898148452  0.9907368698984557  0.10650129993139501  1.0000
  H   H22       1.0  0.5764359507745027  0.49073676816150424  0.3934931203505272  1.0000
  H   H23       1.0  0.5764414586477998  0.009260504317950297  0.8934967155480963  1.0000
  H   H24       1.0  0.4235598935857113  0.5092667068567137  0.6065040579661627  1.0000
  H   H25       1.0  0.6646700592851501  0.12691451798500714  0.182909439144801  1.0000
  H   H26       1.0  0.3353238898703097  0.626924676869386  0.3170809698235857  1.0000
  H   H27       1.0  0.3353233181396789  0.873078498545638  0.8170871462083866  1.0000
  H   H28       1.0  0.6646768867241093  0.37308751356101055  0.6829165224265097  1.0000
  H   H29       1.0  0.715768087017196  0.23574871004255024  0.3788392610684426  1.0000
  H   H30       1.0  0.2842406769199001  0.7357560103582658  0.1211489526285661  1.0000
  H   H31       1.0  0.28423514669808714  0.7642504073126801  0.6211535918656425  1.0000
  H   H32       1.0  0.7157650302720739  0.2642518223807357  0.8788479815669136  1.0000
  H   H33       1.0  0.5378715578179509  0.2092091594297898  0.5097914099525768  1.0000
  H   H34       1.0  0.4621372213642445  0.7092140044996994  0.9902016066789089  1.0000
  H   H35       1.0  0.46212921223430214  0.7907960586982696  0.49020259405539685  1.0000
  H   H36       1.0  0.5378660287060129  0.290798185908308  0.009799966888358784  1.0000
  C   C1        1.0  0.10840571631819529  0.301976406145485  0.3297803358149949  1.0000
  C   C2        1.0  0.8915981561794056  0.8019745983348943  0.17022154143325005  1.0000
  C   C3        1.0  0.8915852023496315  0.698021839600436  0.6702200168327294  1.0000
  C   C4        1.0  0.1084100293936672  0.19802451895863268  0.8297820903502425  1.0000
  C   C5        1.0  0.1452724644140559  0.2784754354676622  0.45482636509900953  1.0000
  C   C6        1.0  0.8547363357058727  0.778470769029511  0.04517612697694772  1.0000
  C   C7        1.0  0.8547270917951195  0.721526296430099  0.5451778072762892  1.0000
  C   C8        1.0  0.14526938129728964  0.2215266051882381  0.9548260397155844  1.0000
  C   C9        1.0  0.0935389438852994  0.1676377571208363  0.4992364158404641  1.0000
  C   C10       1.0  0.9064760034602204  0.6676329634844792  0.0007698496432128248  1.0000
  C   C11       1.0  0.906470478425696  0.8323613601614993  0.5007692566016145  1.0000
  C   C12       1.0  0.09352848007542752  0.3323609245707146  0.9992320205564057  1.0000
  C   C13       1.0  0.4494362163479336  0.0381808077904893  0.1929820592080489  1.0000
  C   C14       1.0  0.5505540231728859  0.5381813423575961  0.30701295645570786  1.0000
  C   C15       1.0  0.5505608614788641  0.961816566443517  0.807015415662903  1.0000
  C   C16       1.0  0.4494381191505924  0.4618238757472141  0.6929824602324858  1.0000
  C   C17       1.0  0.5810307487113634  0.1145259575546405  0.2362431164757056  1.0000
  C   C18       1.0  0.41896443311541276  0.61452923682522  0.2637486197013104  1.0000
  C   C19       1.0  0.41896632748014884  0.8854722882256353  0.763753486317988  1.0000
  C   C20       1.0  0.5810289394049235  0.38548033899405  0.7362453493308436  1.0000
  C   C21       1.0  0.6114208504790213  0.1758643074086095  0.34870493530663543  1.0000
  C   C22       1.0  0.38857927397982184  0.6758663293296223  0.15128545764464008  1.0000
  C   C23       1.0  0.38857622080671916  0.8241374245510543  0.6512890512496838  1.0000
  C   C24       1.0  0.6114177989414671  0.3241371457056275  0.8487094009722043  1.0000
  C   C25       1.0  0.5134898330861263  0.16239574785608824  0.42318347612797425  1.0000
  C   C26       1.0  0.48651769771007036  0.6623964399852085  0.07681322868358362  1.0000
  C   C27       1.0  0.48651217860989954  0.8376068556219989  0.5768151847703749  1.0000
  C   C28       1.0  0.5134843156216747  0.33760964964969276  0.9231863042641422  1.0000
  C   C29       1.0  0.3812802080850305  0.0848269578712149  0.3793343659125982  1.0000
  C   C30       1.0  0.6187186813988745  0.5848240281448157  0.1206656165803608  1.0000
  C   C31       1.0  0.618718111386137  0.9151739024971235  0.6206677658096922  1.0000
  C   C32       1.0  0.38127839315743733  0.4151759607223298  0.8793301141304896  1.0000
  C   C33       1.0  0.347359394714438  0.024410695279357197  0.2663994810105024  1.0000
  C   C34       1.0  0.6526320886545139  0.5244072852269497  0.23360298402922558  1.0000
  C   C35       1.0  0.6526364610932802  0.9755919081587336  0.7336038018135655  1.0000
  C   C36       1.0  0.3473588218368065  0.4755944467096569  0.7663930082377561  1.0000
  N   N1        1.0  0.2577001423093392  0.04786880085075039  0.42183073663352394  1.0000
  N   N2        1.0  0.7423049088948801  0.5478659540606685  0.07817207358337443  1.0000
  N   N3        1.0  0.742306814702829  0.9521320595069799  0.5781752148386518  1.0000
  N   N4        1.0  0.25769216566100545  0.4521296771034002  0.9218236571553646  1.0000
  N   N5        1.0  0.1540305067715977  0.9736614018364731  0.3453497894586377  1.0000
  N   N6        1.0  0.8459684835296812  0.47365743100109364  0.15465829690608507  1.0000
  N   N7        1.0  0.8459715245488725  0.026341201573870897  0.6546593362999431  1.0000
  N   N8        1.0  0.15402489553077464  0.5263382001457516  0.8453391605020572  1.0000
  N   N9        1.0  0.20625036739586017  0.9591544398102982  0.24997099085276633  1.0000
  N   N10       1.0  0.7937412110790873  0.45914819135944634  0.25003114177073377  1.0000
  N   N11       1.0  0.7937454900473143  0.0408490351627577  0.7500331640374043  1.0000
  N   N12       1.0  0.2062484643090841  0.5408474397983981  0.749963681948387  1.0000
  Cl  Cl1       1.0  0.13949056271500382  0.9040031280627473  0.9402343908748421  1.0000
  Cl  Cl2       1.0  0.8605158204561789  0.40399346141858683  0.5597729808252225  1.0000
  Cl  Cl3       1.0  0.8605040547194206  0.09599947539218333  0.05976597921895181  1.0000
  Cl  Cl4       1.0  0.13949360512443576  0.5959943258244563  0.4402344358327426  1.0000
  O   O1        1.0  0.23030506893566377  0.0803486454864668  0.5277926294344724  1.0000
  O   O2        1.0  0.769711102121022  0.5803468854200274  0.9722125365048769  1.0000
  O   O3        1.0  0.7697055819366482  0.9196530864347422  0.47221072329103453  1.0000
  O   O4        1.0  0.23029954875094924  0.41965136033872596  0.02779081624294121  1.0000
