data_image0
_chemical_formula_structural       Tl4H24C28N4O12
_chemical_formula_sum              "Tl4 H24 C28 N4 O12"
_cell_length_a       7.248432537087352
_cell_length_b       9.384142821115319
_cell_length_c       11.696189016001734
_cell_angle_alpha    89.9999586394677
_cell_angle_beta     90.00003524435265
_cell_angle_gamma    93.83921572342999

_space_group_name_H-M_alt    "P 1"
_space_group_IT_number       1

loop_
  _space_group_symop_operation_xyz
  'x, y, z'

loop_
  _atom_site_type_symbol
  _atom_site_label
  _atom_site_symmetry_multiplicity
  _atom_site_fract_x
  _atom_site_fract_y
  _atom_site_fract_z
  _atom_site_occupancy
  Tl  Tl1       1.0  0.007092848379677698  0.18257815316040646  0.11667300709306969  1.0000
  Tl  Tl2       1.0  0.507088128690974  0.682576223672143  0.38332051994783  1.0000
  Tl  Tl3       1.0  0.9929062319820476  0.8174178423577769  0.8833261726404729  1.0000
  Tl  Tl4       1.0  0.4929098526185385  0.3174240262818202  0.6166795147639306  1.0000
  H   H1        1.0  0.5949544730696205  0.2630094336029528  0.9964220392584339  1.0000
  H   H2        1.0  0.09496398628974131  0.7630159121128129  0.5035758413975628  1.0000
  H   H3        1.0  0.40504350824075175  0.7369908163500937  0.0035797054120152  1.0000
  H   H4        1.0  0.9050380672993371  0.23698332129025346  0.49642504829446216  1.0000
  H   H5        1.0  0.9522141969529018  0.17497992518271133  0.8037097757345677  1.0000
  H   H6        1.0  0.45221713998328994  0.6749882489489349  0.6962882656771613  1.0000
  H   H7        1.0  0.047787786168470285  0.8250182403355095  0.19628683906096708  1.0000
  H   H8        1.0  0.547787604970033  0.32500995079145406  0.303712624015553  1.0000
  H   H9        1.0  0.03497459891477211  0.05003000413496039  0.6313928349580138  1.0000
  H   H10       1.0  0.5349811936346143  0.5500324987442935  0.8686076839324386  1.0000
  H   H11       1.0  0.9650232414648984  0.9499681100434143  0.36860976469222345  1.0000
  H   H12       1.0  0.4650194085744347  0.4499656496589778  0.1313940607389199  1.0000
  H   H13       1.0  0.888489106991088  0.9152944857649956  0.570927796079097  1.0000
  H   H14       1.0  0.38849683163977033  0.41529504934788253  0.9290684078017506  1.0000
  H   H15       1.0  0.11150597155791793  0.08470359418983969  0.42907309361199  1.0000
  H   H16       1.0  0.6115023896535163  0.5847030819440703  0.0709316269106921  1.0000
  H   H17       1.0  0.3131367993144636  0.9589598500748125  0.7536444686345476  1.0000
  H   H18       1.0  0.813144028835133  0.4589602501925113  0.7463516902885488  1.0000
  H   H19       1.0  0.6868600124781351  0.041043586426909  0.24635813101433976  1.0000
  H   H20       1.0  0.1868567847693186  0.5410411018734603  0.2536474894441056  1.0000
  H   H21       1.0  0.5555897968755731  0.8977536246942606  0.617505307747436  1.0000
  H   H22       1.0  0.05559588245419889  0.397751017042381  0.8824873702619129  1.0000
  H   H23       1.0  0.4444054930697021  0.10224765892236576  0.38249472696364245  1.0000
  H   H24       1.0  0.9444047197526974  0.602247131363164  0.11751009951272813  1.0000
  C   C1        1.0  0.8117616841741724  0.12939585078998306  0.7906961212103029  1.0000
  C   C2        1.0  0.31176442887113615  0.6294009570548197  0.7093010373325229  1.0000
  C   C3        1.0  0.18823767805024258  0.8706044162762009  0.2093039135016923  1.0000
  C   C4        1.0  0.6882376247170896  0.37059827634914894  0.2906981424008137  1.0000
  C   C5        1.0  0.6740647237416583  0.1627910327897411  0.8674655405312707  1.0000
  C   C6        1.0  0.17406593999339753  0.6627951357024173  0.6325315562865583  1.0000
  C   C7        1.0  0.3259347089483242  0.8372103021635552  0.1325344941804971  1.0000
  C   C8        1.0  0.8259332812994559  0.33720299558999756  0.3674676234465437  1.0000
  C   C9        1.0  0.48998175840839764  0.10164593671843389  0.8557446107499943  1.0000
  C   C10       1.0  0.989985647945119  0.6016529072590799  0.6442543308283604  1.0000
  C   C11       1.0  0.5100189847309197  0.8983543474599716  0.1442554239622282  1.0000
  C   C12       1.0  0.010017857023576899  0.39834741114422906  0.3557448489049833  1.0000
  C   C13       1.0  0.34303856002199506  0.14059878446698088  0.9349498634167901  1.0000
  C   C14       1.0  0.8430391854238336  0.640599397700086  0.5650455909155596  1.0000
  C   C15       1.0  0.6569608726684139  0.8594025504858678  0.0650510262743254  1.0000
  C   C16       1.0  0.15696148724948242  0.3593998185916618  0.4349535888175424  1.0000
  C   C17       1.0  0.7728026429839404  0.03167080809495099  0.7011678291549401  1.0000
  C   C18       1.0  0.272806647073523  0.5316726325921691  0.7988327790322601  1.0000
  C   C19       1.0  0.2271954087911325  0.968330509746124  0.2988322055566003  1.0000
  C   C20       1.0  0.727193884669532  0.4683244479244451  0.2011681106599781  1.0000
  C   C21       1.0  0.45383747632883603  0.005802776343990999  0.7645371393313383  1.0000
  C   C22       1.0  0.9538440078557076  0.5058064804465517  0.7354592671687712  1.0000
  C   C23       1.0  0.5461620972922746  0.9942006943835365  0.23546289537998183  1.0000
  C   C24       1.0  0.0461594266474137  0.4941927700696451  0.2645399125647998  1.0000
  C   C25       1.0  0.5892110225232018  0.9709597740181053  0.6879119912842029  1.0000
  C   C26       1.0  0.0892144165269215  0.4709593427947778  0.812083230909451  1.0000
  C   C27       1.0  0.410785789266818  0.029043662486344594  0.3120854784886262  1.0000
  C   C28       1.0  0.9107848047659318  0.5290387884976366  0.18791594882365106  1.0000
  N   N1        1.0  0.9109838131896026  0.9936039338641507  0.6307746267277424  1.0000
  N   N2        1.0  0.4109889977962596  0.49360879841766775  0.869226680228472  1.0000
  N   N3        1.0  0.0890129281361354  0.0063984347518157994  0.36922540798333614  1.0000
  N   N4        1.0  0.5890129148616908  0.5063882992111671  0.1307742094640005  1.0000
  O   O1        1.0  0.7192472503720853  0.25492201924207336  0.9540433011682552  1.0000
  O   O2        1.0  0.21925259292456903  0.7549273334558462  0.5459563354503133  1.0000
  O   O3        1.0  0.2807521118531895  0.7450782478232014  0.04595844350242122  1.0000
  O   O4        1.0  0.7807507711129916  0.2450708491732314  0.4540428442834781  1.0000
  O   O5        1.0  0.17946479317912895  0.08436855316725199  0.9248132127776998  1.0000
  O   O6        1.0  0.679466880136637  0.5843702406194635  0.5751813554773335  1.0000
  O   O7        1.0  0.8205360204240365  0.9156327989000842  0.0751834020169326  1.0000
  O   O8        1.0  0.32053255255419805  0.415631094332923  0.4248203891931226  1.0000
  O   O9        1.0  0.38623487827806013  0.23663764692184938  0.012702441946338204  1.0000
  O   O10       1.0  0.8862375903278237  0.7366420997407556  0.4872911907602031  1.0000
  O   O11       1.0  0.6137629620998911  0.7633604672583374  0.9872967377865294  1.0000
  O   O12       1.0  0.11376191282643332  0.26336030310101677  0.5127062790133152  1.0000
