data_image0
_chemical_formula_structural       Al2H18C28N2Cl2O10
_chemical_formula_sum              "Al2 H18 C28 N2 Cl2 O10"
_cell_length_a       6.655402055913445
_cell_length_b       11.032516961064077
_cell_length_c       17.02857376626796
_cell_angle_alpha    84.91171826583356
_cell_angle_beta     82.3011303941341
_cell_angle_gamma    73.547665853983

_space_group_name_H-M_alt    "P 1"
_space_group_IT_number       1

loop_
  _space_group_symop_operation_xyz
  'x, y, z'

loop_
  _atom_site_type_symbol
  _atom_site_label
  _atom_site_symmetry_multiplicity
  _atom_site_fract_x
  _atom_site_fract_y
  _atom_site_fract_z
  _atom_site_occupancy
  Al  Al1       1.0  0.4892724677949475  0.500255023993823  0.4943724047858712  1.0000
  Al  Al2       1.0  0.9874098455886868  0.5019977610375503  0.4972757238611723  1.0000
  H   H1        1.0  0.1774042263978616  0.6555908953153491  0.45804511251359525  1.0000
  H   H2        1.0  0.8028501644714227  0.3465855641561291  0.5328757161407157  1.0000
  H   H3        1.0  0.906547993928186  0.4228127285400943  0.7399584977179149  1.0000
  H   H4        1.0  0.8512004262160959  0.4191799057447412  0.8886484062175417  1.0000
  H   H5        1.0  0.3759636594393997  0.5751836629973041  0.8857602156867305  1.0000
  H   H6        1.0  0.6733928599437178  0.3803031004718491  0.10728490131982944  1.0000
  H   H7        1.0  0.15074177456624235  0.5744754587993839  0.10716047023267095  1.0000
  H   H8        1.0  0.07679412018602964  0.579900566709064  0.2556324104408604  1.0000
  H   H9        1.0  0.8495408049574849  0.7712348274560554  0.6165188707241003  1.0000
  H   H10       1.0  0.6149361004698976  0.2402526140067707  0.5991257468181603  1.0000
  H   H11       1.0  0.18296665878635582  0.11416151094599769  0.43588600567488833  1.0000
  H   H12       1.0  0.2997868957227824  0.8780871005109105  0.44492458961812553  1.0000
  H   H13       1.0  0.20380266428109206  0.8883228444452556  0.6902713605334727  1.0000
  H   H14       1.0  0.06588060401177391  0.7709164425978088  0.7123962469934145  1.0000
  H   H15       1.0  6.601041408071138e-05  0.9062351570217045  0.7700228704981743  1.0000
  H   H16       1.0  0.8860009152838162  0.13379669248320167  0.7590009905300834  1.0000
  H   H17       1.0  0.8539426649994439  0.25421569749270384  0.6810730402538356  1.0000
  H   H18       1.0  0.09081521987470614  0.1285402698040272  0.680660518081098  1.0000
  C   C1        1.0  0.6192707817772529  0.7271338956968662  0.5110798338368456  1.0000
  C   C2        1.0  0.7933799093066228  0.5006139924238154  0.3526101280794835  1.0000
  C   C3        1.0  0.350855227664873  0.27393345877293035  0.49336309664794714  1.0000
  C   C4        1.0  0.19308078029607859  0.4948174197685162  0.6403985205261551  1.0000
  C   C5        1.0  0.17268104615364177  0.4979239979034772  0.7288853945665966  1.0000
  C   C6        1.0  0.009802109623194617  0.4543150852634597  0.7730396709689064  1.0000
  C   C7        1.0  0.9781696910112316  0.45248077881401366  0.8550426061100541  1.0000
  C   C8        1.0  0.11151706160205783  0.496862283278567  0.8957437572340727  1.0000
  C   C9        1.0  0.2751856939953755  0.540300717548476  0.8533432510861734  1.0000
  C   C10       1.0  0.30662122808130493  0.5407111003629906  0.7706516199942475  1.0000
  C   C11       1.0  0.7594459026648934  0.42528366293839065  0.14026706367349828  1.0000
  C   C12       1.0  0.915121089346137  0.4770015336643141  0.09887608762286254  1.0000
  C   C13       1.0  0.03057669827521896  0.5343401392788535  0.1400699468291081  1.0000
  C   C14       1.0  0.9880575037486209  0.5379879139381032  0.2217879429002637  1.0000
  C   C15       1.0  0.8303552953676461  0.4880400952807662  0.2646543724287228  1.0000
  C   C16       1.0  0.7168904036415711  0.4303766270620528  0.2225364191241327  1.0000
  C   C17       1.0  0.5465043330967563  0.8672631447699571  0.5163410516713544  1.0000
  C   C18       1.0  0.6466103370491398  0.9349521550096399  0.5592929010384753  1.0000
  C   C19       1.0  0.37773581093654945  0.9317273177684628  0.47526328640962867  1.0000
  C   C20       1.0  0.8009035141260552  0.8742737535681188  0.6106616041505436  1.0000
  C   C21       1.0  0.8892552276026681  0.9413175523694051  0.654498724631708  1.0000
  C   C22       1.0  0.4149108343965366  0.1335127973864658  0.5061642307577757  1.0000
  C   C23       1.0  0.31180896132330116  0.06444142013579318  0.47014662993082385  1.0000
  C   C24       1.0  0.5789981997858646  0.07097066070320318  0.5540412468587734  1.0000
  C   C25       1.0  0.6712369003035619  0.1374360761901343  0.6000077317812258  1.0000
  C   C26       1.0  0.8242869222432319  0.07656631227468579  0.6483415213637759  1.0000
  C   C27       1.0  0.04785055296062521  0.8729528071360164  0.7094775531645043  1.0000
  C   C28       1.0  0.9181972541686961  0.1524837351789614  0.6946000319028375  1.0000
  N   N1        1.0  0.09209789095292119  0.5045056914411531  0.9789953841642718  1.0000
  N   N2        1.0  0.9407276415065554  0.46670916627368086  0.015911697084419533  1.0000
  Cl  Cl1       1.0  0.5064984066968848  0.6018341488474235  0.7240129206326675  1.0000
  Cl  Cl2       1.0  0.5291744806228991  0.3589579444007073  0.2687370520995672  1.0000
  O   O1        1.0  0.47678307849578533  0.6703538667845947  0.5121990093702566  1.0000
  O   O2        1.0  0.9547658357287718  0.49646376635434547  0.38645584894671015  1.0000
  O   O3        1.0  0.15380520999053002  0.3289173652030044  0.4975059148317061  1.0000
  O   O4        1.0  0.37742892451129967  0.4762543128899068  0.6037266157474266  1.0000
  O   O5        1.0  0.4958774662762908  0.3298511573046099  0.47888946640401303  1.0000
  O   O6        1.0  0.024005566322919857  0.507388445989605  0.6091442434161042  1.0000
  O   O7        1.0  0.8171527939946799  0.6737890839018591  0.5026698853727967  1.0000
  O   O8        1.0  0.605442550668606  0.5180508015965303  0.3859647523692688  1.0000
  O   O9        1.0  0.2183993558326805  0.5639700337283102  0.4646236135519717  1.0000
  O   O10       1.0  0.7571278067129655  0.43844939070785927  0.5278123511511058  1.0000
