data_image0
_chemical_formula_structural       Cu2H16C32N4O8F12
_chemical_formula_sum              "Cu2 H16 C32 N4 O8 F12"
_cell_length_a       7.650426349855104
_cell_length_b       11.07886183261712
_cell_length_c       11.078883389150322
_cell_angle_alpha    61.48754161912189
_cell_angle_beta     78.15943379727499
_cell_angle_gamma    78.15951766006309

_space_group_name_H-M_alt    "P 1"
_space_group_IT_number       1

loop_
  _space_group_symop_operation_xyz
  'x, y, z'

loop_
  _atom_site_type_symbol
  _atom_site_label
  _atom_site_symmetry_multiplicity
  _atom_site_fract_x
  _atom_site_fract_y
  _atom_site_fract_z
  _atom_site_occupancy
  Cu  Cu1       1.0  0.2500024552061291  0.6316685523066498  0.3683304492685053  1.0000
  Cu  Cu2       1.0  0.7499992407052005  0.3683291410912943  0.6316723002318697  1.0000
  H   H1        1.0  0.997623972453141  0.826450506640228  0.4792803701583708  1.0000
  H   H2        1.0  0.5023730277361195  0.5207184019704839  0.17355322054046243  1.0000
  H   H3        1.0  0.002376564301883392  0.17354615476943286  0.520723947754668  1.0000
  H   H4        1.0  0.497622335601676  0.47927720723208017  0.826451450211806  1.0000
  H   H5        1.0  0.8726282201882043  0.07881053984200291  0.36696345190569  1.0000
  H   H6        1.0  0.6273709718693256  0.6330357678437579  0.9211892120271515  1.0000
  H   H7        1.0  0.12736946146220157  0.9211871333371277  0.6330380820212582  1.0000
  H   H8        1.0  0.37262785990029107  0.3669629253033975  0.07880895531508965  1.0000
  H   H9        1.0  0.9613639118081352  0.2233763329008625  0.113540790428047  1.0000
  H   H10       1.0  0.5386378549625307  0.8864612910342087  0.7766240357906825  1.0000
  H   H11       1.0  0.03863844261591246  0.7766255163125211  0.8864616625364264  1.0000
  H   H12       1.0  0.46135797741402484  0.11353948520882541  0.22337626695449586  1.0000
  H   H13       1.0  0.14283896429509474  0.2325731886802274  0.8854146534281926  1.0000
  H   H14       1.0  0.3571639524382206  0.1145877473440393  0.7674276348560768  1.0000
  H   H15       1.0  0.8571659475945526  0.7674214464576323  0.11459542665657094  1.0000
  H   H16       1.0  0.6428335804051956  0.8854109911513678  0.2325779193738808  1.0000
  C   C1        1.0  0.03165763062505532  0.8928167707201948  0.369345609050619  1.0000
  C   C2        1.0  0.4683429312886388  0.6306541392081044  0.10718234620129857  1.0000
  C   C3        1.0  0.9683373944317921  0.10718091502366181  0.6306590105334706  1.0000
  C   C4        1.0  0.5316602620599439  0.36934250963683724  0.8928188860545989  1.0000
  C   C5        1.0  0.963508345667279  0.034069535952646404  0.3051949607997386  1.0000
  C   C6        1.0  0.5364894207723128  0.6948038239981286  0.9659300439675322  1.0000
  C   C7        1.0  0.03648499247836405  0.9659302055692509  0.6948071045576397  1.0000
  C   C8        1.0  0.4635134207396732  0.3051948833577001  0.03406843986211777  1.0000
  C   C9        1.0  0.012444811832189415  0.11376865243690298  0.16515029772736511  1.0000
  C   C10       1.0  0.4875560651674818  0.8348506197755016  0.886230447726831  1.0000
  C   C11       1.0  0.9875527164926795  0.886230080048364  0.8348543574165674  1.0000
  C   C12       1.0  0.512443939314096  0.16514912339034993  0.11376884846081477  1.0000
  C   C13       1.0  0.13028711391351783  0.0518431793283654  0.08834949644468543  1.0000
  C   C14       1.0  0.36971748635821194  0.9116513065307288  0.948156646564904  1.0000
  C   C15       1.0  0.8697124350849494  0.9481514148274213  0.9116568650081193  1.0000
  C   C16       1.0  0.6302858919457748  0.08834432507904211  0.05184775807616399  1.0000
  C   C17       1.0  0.19157391703834753  0.12336783805307053  0.9434204964370567  1.0000
  C   C18       1.0  0.3084267456006842  0.05658048743809021  0.8766319635297464  1.0000
  C   C19       1.0  0.8084242968855051  0.8766267533698695  0.05658605921528441  1.0000
  C   C20       1.0  0.69157663722185  0.9434151501818135  0.12337334019734658  1.0000
  C   C21       1.0  0.1911981433118299  0.9090798218739948  0.161545133009433  1.0000
  C   C22       1.0  0.30881246917540756  0.8384552026196134  0.09092203521848306  1.0000
  C   C23       1.0  0.8088075713789777  0.09091789775290242  0.838459731150401  1.0000
  C   C24       1.0  0.6911934123965935  0.16154147573156763  0.909082404982428  1.0000
  C   C25       1.0  0.42185702606810355  0.34489086444956735  0.4923123191593462  1.0000
  C   C26       1.0  0.07814612175736357  0.50769035408333  0.6551080475112131  1.0000
  C   C27       1.0  0.5781441194955761  0.6551098866640288  0.5076818122715494  1.0000
  C   C28       1.0  0.9218538646750359  0.4923176979805605  0.3448908498041661  1.0000
  C   C29       1.0  0.4888101125283129  0.21807672785347176  0.4611343584966576  1.0000
  C   C30       1.0  0.011192979380211939  0.5388678648176111  0.781918205783015  1.0000
  C   C31       1.0  0.5111967070961824  0.781921951640072  0.5388581482182461  1.0000
  C   C32       1.0  0.9888029792356149  0.46114014899705325  0.21807677870086903  1.0000
  N   N1        1.0  0.1428058001790049  0.8326522594915531  0.2989909356843086  1.0000
  N   N2        1.0  0.3571992379163761  0.7010113982720511  0.16734868485268353  1.0000
  N   N3        1.0  0.8571949305685179  0.1673433967032167  0.701018352785944  1.0000
  N   N4        1.0  0.642804144906158  0.29898423934785967  0.8326566188744026  1.0000
  O   O1        1.0  0.33658504288953844  0.4417494656909255  0.39540148106833334  1.0000
  O   O2        1.0  0.1634295274812558  0.6045942992672407  0.5582519725776224  1.0000
  O   O3        1.0  0.6634269320779893  0.5582502419691694  0.604587076463254  1.0000
  O   O4        1.0  0.8365666251270769  0.39541270933253275  0.4417479824634754  1.0000
  O   O5        1.0  0.4561375372340138  0.3365267373586676  0.6005611613779108  1.0000
  O   O6        1.0  0.043856292375267  0.3994410871096505  0.6634749597502179  1.0000
  O   O7        1.0  0.5438503973785275  0.6634812420285101  0.3994322910451371  1.0000
  O   O8        1.0  0.956143860938333  0.6005659236785162  0.3365235136062383  1.0000
  F   F1        1.0  0.5967036542291879  0.11770788316087535  0.5540989478285568  1.0000
  F   F2        1.0  0.903296805422769  0.44590245282632424  0.8822858845545695  1.0000
  F   F3        1.0  0.4033066518763065  0.8822855713792279  0.44588745434858607  1.0000
  F   F4        1.0  0.09669596432605226  0.5541086553092498  0.11770716386106264  1.0000
  F   F5        1.0  0.34793561758333885  0.1567662665179341  0.4652225144992885  1.0000
  F   F6        1.0  0.1520671114185106  0.5347813016504829  0.8432234148216083  1.0000
  F   F7        1.0  0.6520700383663041  0.8432313749771793  0.5347706615422609  1.0000
  F   F8        1.0  0.847929338828834  0.465231909255337  0.15677169708528987  1.0000
  F   F9        1.0  0.5850081995690103  0.25543833606546673  0.3327001094408716  1.0000
  F   F10       1.0  0.9149864289141264  0.6672997184807629  0.7445584093303453  1.0000
  F   F11       1.0  0.4149897571276639  0.7445655093690392  0.6672920859217726  1.0000
  F   F12       1.0  0.08500717524067618  0.3327061832762297  0.25543251929068594  1.0000
