data_image0
_chemical_formula_structural       MnH22C22S2N8O6
_chemical_formula_sum              "Mn1 H22 C22 S2 N8 O6"
_cell_length_a       8.212493783287533
_cell_length_b       9.816745746454236
_cell_length_c       9.811084626411587
_cell_angle_alpha    60.42892694763264
_cell_angle_beta     74.3818169624732
_cell_angle_gamma    86.05685687821034

_space_group_name_H-M_alt    "P 1"
_space_group_IT_number       1

loop_
  _space_group_symop_operation_xyz
  'x, y, z'

loop_
  _atom_site_type_symbol
  _atom_site_label
  _atom_site_symmetry_multiplicity
  _atom_site_fract_x
  _atom_site_fract_y
  _atom_site_fract_z
  _atom_site_occupancy
  Mn  Mn1       1.0  0.49999954542926867  0.500000857730704  0.49999978297026365  1.0000
  H   H1        1.0  0.2975697983761378  0.0652759157595  0.218238442041411  1.0000
  H   H2        1.0  0.7024304252233619  0.9347246162292606  0.7817583888352074  1.0000
  H   H3        1.0  0.1807140653094237  0.4178400766615127  0.13817689554231552  1.0000
  H   H4        1.0  0.8192869849735657  0.5821557357119147  0.8618251255938603  1.0000
  H   H5        1.0  0.09523420681729527  0.6641045401602952  0.9425557820777187  1.0000
  H   H6        1.0  0.9047647763794655  0.33589599865811687  0.05744540664321115  1.0000
  H   H7        1.0  0.3614067499492035  0.8303439427072303  0.8538905563301002  1.0000
  H   H8        1.0  0.6385910722934937  0.1696577899400324  0.14610827248434077  1.0000
  H   H9        1.0  0.3496357855358312  0.07270997157305462  0.8697806962418824  1.0000
  H   H10       1.0  0.6503619290450897  0.9272905844312189  0.1302197553529682  1.0000
  H   H11       1.0  0.36586244713834754  0.8121063170335249  0.2126907476948788  1.0000
  H   H12       1.0  0.6341365247731758  0.18789422592737276  0.7873084030378976  1.0000
  H   H13       1.0  0.26661202914301196  0.030592672410278986  0.5034542378846396  1.0000
  H   H14       1.0  0.7333860084232456  0.9694114135229623  0.49654134536898215  1.0000
  H   H15       1.0  0.3519008279969781  0.7229755552096007  0.6821794916172835  1.0000
  H   H16       1.0  0.6480959691665333  0.2770285375532922  0.3178204494806565  1.0000
  H   H17       1.0  0.4417387343678029  0.5331364935142205  0.14748534274488637  1.0000
  H   H18       1.0  0.5582644906632054  0.4668557690572186  0.8525158880261188  1.0000
  H   H19       1.0  0.9618896792905716  0.28336724330054613  0.41935484775797954  1.0000
  H   H20       1.0  0.03811068018380578  0.7166344549749936  0.5806454553086268  1.0000
  H   H21       1.0  0.11453769703820879  0.31959439808047546  0.6233020563714505  1.0000
  H   H22       1.0  0.8854627700979518  0.6804084768380533  0.3766966239147395  1.0000
  C   C1        1.0  0.9231350204007495  0.9519481841344088  0.027094522484091495  1.0000
  C   C2        1.0  0.07686501044567957  0.0480499862834094  0.97290962992966  1.0000
  C   C3        1.0  0.9362193373389046  0.8124009195738112  0.014250965720691627  1.0000
  C   C4        1.0  0.0637794248916776  0.18759726802986876  0.9857524495669807  1.0000
  C   C5        1.0  0.09006964529995537  0.7706097259106527  0.9513762584133688  1.0000
  C   C6        1.0  0.9099303742612361  0.22938844864964378  0.04862585601222242  1.0000
  C   C7        1.0  0.2395421546905112  0.8653449238382152  0.9002713166349422  1.0000
  C   C8        1.0  0.7604568228636309  0.1346556170514361  0.09972885309191076  1.0000
  C   C9        1.0  0.23332085639545844  0.0006991860989983996  0.9104170846721901  1.0000
  C   C10       1.0  0.7666780191395262  0.9993001760764245  0.08958572682914911  1.0000
  C   C11       1.0  0.3500627775553652  0.8265955980051912  0.31818236941899164  1.0000
  C   C12       1.0  0.6499360866943814  0.17340376831271698  0.6818184040941873  1.0000
  C   C13       1.0  0.2996097639875401  0.9389668348148702  0.47174869887883386  1.0000
  C   C14       1.0  0.7003894345327737  0.06103605728952029  0.5282492442812767  1.0000
  C   C15       1.0  0.34283793625066744  0.7875837024262468  0.557932306571466  1.0000
  C   C16       1.0  0.6571611546078697  0.2124180130351547  0.442067259369061  1.0000
  C   C17       1.0  0.3347507254979547  0.4682364927288631  0.2519491664247512  1.0000
  C   C18       1.0  0.6652529583932604  0.5317604660583158  0.7480506681950131  1.0000
  C   C19       1.0  0.0841965696361697  0.3373817820278759  0.39630260003739437  1.0000
  C   C20       1.0  0.9158049338644146  0.6626187286325376  0.6036970059534639  1.0000
  C   C21       1.0  0.16088098598188336  0.35663349912246634  0.4949222694885266  1.0000
  C   C22       1.0  0.839120517518701  0.6433670115379541  0.5050773365023319  1.0000
  S   S1        1.0  0.752725599811086  0.6846103579741579  0.08179364350196762  1.0000
  S   S2        1.0  0.24727337210043732  0.3153901849867395  0.9182055072308016  1.0000
  N   N1        1.0  0.3743435475150959  0.7187983107193716  0.46069515748551026  1.0000
  N   N2        1.0  0.625655430039046  0.2812022301702868  0.5393050122413429  1.0000
  N   N3        1.0  0.30450011794816584  0.9608826611401967  0.3205772909784343  1.0000
  N   N4        1.0  0.6954989616251267  0.039119058463690216  0.6794202369739254  1.0000
  N   N5        1.0  0.3176382014191077  0.43862507242869947  0.40352119439150874  1.0000
  N   N6        1.0  0.6823642251415051  0.5613718994018557  0.5964799410903368  1.0000
  N   N7        1.0  0.19637570903543633  0.40872096226811283  0.243419982288664  1.0000
  N   N8        1.0  0.8036265929355436  0.5912748391331847  0.7565797189913469  1.0000
  O   O1        1.0  0.6802209108660476  0.6369202235128242  0.2547869123528202  1.0000
  O   O2        1.0  0.3197754330798759  0.3630791709630825  0.7452154438904373  1.0000
  O   O3        1.0  0.6370806866420294  0.7767732108515729  0.9825499727099614  1.0000
  O   O4        1.0  0.36292081685855476  0.22322729980884753  0.017449633280897145  1.0000
  O   O5        1.0  0.8105206789040833  0.5514855588139653  0.05696053636246749  1.0000
  O   O6        1.0  0.18947945960412224  0.4485137882468421  0.9430419932708745  1.0000
