data_image0
_chemical_formula_structural       ZnSiH4C8S4N4O2F6
_chemical_formula_sum              "Zn1 Si1 H4 C8 S4 N4 O2 F6"
_cell_length_a       7.436883311229891
_cell_length_b       8.931051543544504
_cell_length_c       8.901636957380378
_cell_angle_alpha    100.22644644310655
_cell_angle_beta     90.33768351370655
_cell_angle_gamma    89.53371704887257

_space_group_name_H-M_alt    "P 1"
_space_group_IT_number       1

loop_
  _space_group_symop_operation_xyz
  'x, y, z'

loop_
  _atom_site_type_symbol
  _atom_site_label
  _atom_site_symmetry_multiplicity
  _atom_site_fract_x
  _atom_site_fract_y
  _atom_site_fract_z
  _atom_site_occupancy
  Zn  Zn1       1.0  0.4847837067191989  0.4872924317085392  0.48699342110036525  1.0000
  Si  Si1       1.0  0.9828774197717254  0.49845275858001514  0.49838388351628277  1.0000
  H   H1        1.0  0.7286967890495435  0.3664854370976158  0.7525361329309702  1.0000
  H   H2        1.0  0.7298047615353624  0.7516837705718802  0.3675259913126183  1.0000
  H   H3        1.0  0.15571222593417391  0.6317916946072231  0.2872421313709452  1.0000
  H   H4        1.0  0.15935757861553415  0.29250647729946877  0.6360502643976247  1.0000
  C   C1        1.0  0.3742322933098379  0.5627641524508958  0.1600287390200066  1.0000
  C   C2        1.0  0.6168082312144849  0.429999269010395  0.8123011922288867  1.0000
  C   C3        1.0  0.5743033343741645  0.4478639473848745  0.9696138849934001  1.0000
  C   C4        1.0  0.4253140030844236  0.543690305740384  0.003948537300587413  1.0000
  C   C5        1.0  0.37400619660012785  0.1600818155661727  0.5623489330815374  1.0000
  C   C6        1.0  0.6177242174274441  0.811877918351101  0.4303889070075826  1.0000
  C   C7        1.0  0.5743851661939985  0.9689843692265682  0.4479405721150087  1.0000
  C   C8        1.0  0.4255974913823481  0.004044126090413218  0.5428308886360043  1.0000
  S   S1        1.0  0.6422405047165255  0.3852062080111835  0.1332730256122048  1.0000
  S   S2        1.0  0.34333898997829243  0.5993059833957729  0.8438489557988049  1.0000
  S   S3        1.0  0.6414342692508016  0.1321562738135853  0.386497237464333  1.0000
  S   S4        1.0  0.34466569256565555  0.8450111122471357  0.5978204397897073  1.0000
  N   N1        1.0  0.477062208220346  0.481922016671284  0.2409619888813737  1.0000
  N   N2        1.0  0.5040314977986995  0.5043182214910473  0.7343082418805906  1.0000
  N   N3        1.0  0.47599822429704375  0.24060595374776741  0.4825884014405446  1.0000
  N   N4        1.0  0.505627862983225  0.7347334393543719  0.5038813886334452  1.0000
  O   O1        1.0  0.24513142147922198  0.6604392335982255  0.21176921918761593  1.0000
  O   O2        1.0  0.24498294979670734  0.21093136340745394  0.6597771446352851  1.0000
  F   F1        1.0  0.21184934945522832  0.5440804389850625  0.5377743477563257  1.0000
  F   F2        1.0  0.7604798501365694  0.449008132782147  0.45496751053791934  1.0000
  F   F3        1.0  0.9886533048196215  0.3820188259722457  0.634164709490953  1.0000
  F   F4        1.0  0.9803001633717374  0.6167393871509362  0.3641094511773062  1.0000
  F   F5        1.0  0.919166264476303  0.6438758237274058  0.6317344390958651  1.0000
  F   F6        1.0  0.052545973311275376  0.3530797537173954  0.3653361556737167  1.0000
