data_image0
_chemical_formula_structural       Cu6H32C28I4N12
_chemical_formula_sum              "Cu6 H32 C28 I4 N12"
_cell_length_a       8.29122945909913
_cell_length_b       11.473898603088294
_cell_length_c       12.279940604412744
_cell_angle_alpha    86.05092899168135
_cell_angle_beta     71.20146859187749
_cell_angle_gamma    89.71712543154749

_space_group_name_H-M_alt    "P 1"
_space_group_IT_number       1

loop_
  _space_group_symop_operation_xyz
  'x, y, z'

loop_
  _atom_site_type_symbol
  _atom_site_label
  _atom_site_symmetry_multiplicity
  _atom_site_fract_x
  _atom_site_fract_y
  _atom_site_fract_z
  _atom_site_occupancy
  Cu  Cu1       1.0  0.5273289306142815  0.10306089722389801  0.481551025786544  1.0000
  Cu  Cu2       1.0  0.47267799838324726  0.896934238570793  0.518428280224768  1.0000
  Cu  Cu3       1.0  0.7964898516087615  0.5924345032227903  0.47236228967184246  1.0000
  Cu  Cu4       1.0  0.20352749284839436  0.4075628865251064  0.5276332512191287  1.0000
  Cu  Cu5       1.0  0.9723602387809223  0.5411647610808715  0.9153397089871335  1.0000
  Cu  Cu6       1.0  0.027623768046403496  0.45882238785434737  0.08467225036552861  1.0000
  H   H1        1.0  0.6681599985610019  0.3042053208302917  0.5904156660381615  1.0000
  H   H2        1.0  0.3318833439677604  0.6957737824662047  0.40954641053769336  1.0000
  H   H3        1.0  0.5329564676966216  0.3034132335926286  0.28772347682460253  1.0000
  H   H4        1.0  0.46703036635500444  0.6965923950775733  0.7122593483576763  1.0000
  H   H5        1.0  0.6726800756093495  0.5563741194411307  0.19904830648980726  1.0000
  H   H6        1.0  0.3273060985871865  0.443646154143515  0.8009578137452847  1.0000
  H   H7        1.0  0.9802738444744818  0.7180288008882628  0.21042188189862537  1.0000
  H   H8        1.0  0.01972067300439311  0.28197292420305325  0.7895766950452057  1.0000
  H   H9        1.0  0.7696297494650964  0.741064131506768  0.10619841710751382  1.0000
  H   H10       1.0  0.2303396264810758  0.2589458253681585  0.8938180276523439  1.0000
  H   H11       1.0  0.6352700654913406  0.8208935516493484  0.21957691754906958  1.0000
  H   H12       1.0  0.36471724947465844  0.17911910506620643  0.7804385817567406  1.0000
  H   H13       1.0  0.9991661133965765  0.8855272559618684  0.06288088188191676  1.0000
  H   H14       1.0  0.0008006307704207015  0.11448245716700708  0.9371272054605483  1.0000
  H   H15       1.0  0.8115826517987728  0.9582854426422713  0.061030423569412996  1.0000
  H   H16       1.0  0.18839566256377088  0.0417229629729121  0.9389915130342031  1.0000
  H   H17       1.0  0.7686946877559893  0.029817214291988095  0.25200753263607817  1.0000
  H   H18       1.0  0.2313090028891907  0.970187661212172  0.7480082895475134  1.0000
  H   H19       1.0  0.9782774952019153  0.0665395687377384  0.161569442008087  1.0000
  H   H20       1.0  0.021716853494091  0.9334512245456351  0.8384456122766011  1.0000
  H   H21       1.0  0.0960869421157113  0.9036519062186484  0.2554686295089894  1.0000
  H   H22       1.0  0.9039074624248047  0.0963454737630514  0.7445311695341345  1.0000
  H   H23       1.0  0.9640392422132676  0.9894154115713933  0.3623929801375708  1.0000
  H   H24       1.0  0.0359806540788838  0.010579579200481201  0.6376103538808451  1.0000
  H   H25       1.0  0.7193776642777436  0.8526651836646267  0.3910251799266433  1.0000
  H   H26       1.0  0.2806184545972457  0.14734231644941792  0.6089920852853226  1.0000
  H   H27       1.0  0.007101650746505991  0.8767561719664838  0.5148743054249607  1.0000
  H   H28       1.0  0.9928990502766978  0.12323777747743489  0.48512684733915284  1.0000
  H   H29       1.0  0.0510502761009306  0.7694153746398273  0.7445056770485081  1.0000
  H   H30       1.0  0.9489684514995035  0.23058393965197146  0.2554959055199646  1.0000
  H   H31       1.0  0.804273778645509  0.4512216315560806  0.7389135668082006  1.0000
  H   H32       1.0  0.19574234001542123  0.5487775058452372  0.261082091248241  1.0000
  C   C1        1.0  0.6499103894460418  0.335551688738903  0.5097702370650978  1.0000
  C   C2        1.0  0.35012324187290733  0.664439265622164  0.49021086481910453  1.0000
  C   C3        1.0  0.5793874574355583  0.33630007577018967  0.35309059141278704  1.0000
  C   C4        1.0  0.42060987710245  0.6637136760688876  0.6468989724129557  1.0000
  C   C5        1.0  0.6493356730682011  0.44485252076260917  0.3578798960815348  1.0000
  C   C6        1.0  0.35066186196556265  0.5551682411933355  0.6421098209033218  1.0000
  C   C7        1.0  0.6947298296917809  0.5493251638387449  0.2825496298798384  1.0000
  C   C8        1.0  0.30525080557841733  0.45068337845325607  0.7174448993029258  1.0000
  C   C9        1.0  0.8468639050537234  0.7394240927106279  0.2588040646196533  1.0000
  C   C10       1.0  0.1531112420414118  0.2605712610382298  0.7411895805530618  1.0000
  C   C11       1.0  0.7686923822233214  0.7997277870279689  0.17365473425552838  1.0000
  C   C12       1.0  0.23128242861600515  0.20030001984902407  0.8263410159775049  1.0000
  C   C13       1.0  0.872505978834923  0.9112548339661687  0.11800712500874505  1.0000
  C   C14       1.0  0.1274828943998045  0.0887698947630255  0.8820012647337023  1.0000
  C   C15       1.0  0.8932122485696327  0.9927369413400128  0.2065315743139351  1.0000
  C   C16       1.0  0.10678112178654693  0.007268367503378702  0.7934701992168555  1.0000
  C   C17       1.0  0.9632902965920849  0.9301603858512169  0.29583810807591243  1.0000
  C   C18       1.0  0.03672491859060761  0.06985268333858839  0.7041548940427375  1.0000
  C   C19       1.0  0.8526529202340853  0.8226715670430591  0.35078160379013906  1.0000
  C   C20       1.0  0.1473585376051147  0.17733928492970819  0.6492270872926723  1.0000
  C   C21       1.0  0.9519823601074789  0.7893260935170475  0.519632627726665  1.0000
  C   C22       1.0  0.0480351784921993  0.21067427323070836  0.48037564198110516  1.0000
  C   C23       1.0  0.9407240438178022  0.7054597471592884  0.6140788368124248  1.0000
  C   C24       1.0  0.05929182993867951  0.2945330530374406  0.3859092871426384  1.0000
  C   C25       1.0  0.9851116291440293  0.7040848497020987  0.7139710639835144  1.0000
  C   C26       1.0  0.014896623350985301  0.2959080215231893  0.2860211825837879  1.0000
  C   C27       1.0  0.8591459682696154  0.5384204648278086  0.7114477938092776  1.0000
  C   C28       1.0  0.1408646875972153  0.46156716413271687  0.2885443828794081  1.0000
  I   I1        1.0  0.6308846482318488  0.9957743506883291  0.6377508374402366  1.0000
  I   I2        1.0  0.36910311975091054  0.0042174353341338  0.3622378875536612  1.0000
  I   I3        1.0  0.8047846124769649  0.35412627320413753  0.018518422960781298  1.0000
  I   I4        1.0  0.19519953901226472  0.6458661166048428  0.9814930430348666  1.0000
  N   N1        1.0  0.5809920552795449  0.2677564125983523  0.44886378217736217  1.0000
  N   N2        1.0  0.4190212285651711  0.7322338576932383  0.5511283955656553  1.0000
  N   N3        1.0  0.692371392424043  0.4424839937226821  0.4588166948899115  1.0000
  N   N4        1.0  0.3076485508180937  0.5575119373837155  0.5411889898077077  1.0000
  N   N5        1.0  0.7669298215077447  0.6307938185483478  0.31936361846133104  1.0000
  N   N6        1.0  0.2330493468524111  0.36920291915224374  0.6806477519062708  1.0000
  N   N7        1.0  0.8913064767992794  0.7541007983028789  0.4424560076432725  1.0000
  N   N8        1.0  0.10870814322807121  0.2458856387428838  0.5575557628557276  1.0000
  N   N9        1.0  0.8605783670616278  0.5987774128835285  0.6141117233449903  1.0000
  N   N10       1.0  0.1394266572388859  0.40119259328348994  0.38587754755911147  1.0000
  N   N11       1.0  0.9330057555756355  0.5989362313663021  0.7749125554775275  1.0000
  N   N12       1.0  0.06700103382127763  0.40104725513778317  0.22508898687999584  1.0000
