data_image0
_chemical_formula_structural       Nd2Cu2H28C36N8O20
_chemical_formula_sum              "Nd2 Cu2 H28 C36 N8 O20"
_cell_length_a       9.693310287575189
_cell_length_b       10.853038023808677
_cell_length_c       12.471259406078198
_cell_angle_alpha    65.41475889718966
_cell_angle_beta     76.41204137428048
_cell_angle_gamma    63.73877027166573

_space_group_name_H-M_alt    "P 1"
_space_group_IT_number       1

loop_
  _space_group_symop_operation_xyz
  'x, y, z'

loop_
  _atom_site_type_symbol
  _atom_site_label
  _atom_site_symmetry_multiplicity
  _atom_site_fract_x
  _atom_site_fract_y
  _atom_site_fract_z
  _atom_site_occupancy
  Nd  Nd1       1.0  0.3498313726965778  0.8107940243815291  0.46959650975029615  1.0000
  Nd  Nd2       1.0  0.6501652161379498  0.18920007996418062  0.5304035361408879  1.0000
  Cu  Cu1       1.0  0.9710640795449664  0.3397103178955945  0.8378767578190675  1.0000
  Cu  Cu2       1.0  0.028927831467356713  0.6602959437220548  0.16211749173380943  1.0000
  H   H1        1.0  0.048920199484335625  0.1725530811782434  0.6624415645692067  1.0000
  H   H2        1.0  0.9510819000754157  0.8274571853451107  0.3375517299223246  1.0000
  H   H3        1.0  0.368558034671004  0.6682285592799603  0.932560119565444  1.0000
  H   H4        1.0  0.631449265924033  0.3317848041952515  0.06743189015539738  1.0000
  H   H5        1.0  0.3974628108375314  0.6347507780618358  0.13851725027647177  1.0000
  H   H6        1.0  0.6025365366219475  0.36526391807792186  0.8614750094070941  1.0000
  H   H7        1.0  0.13305395007036222  0.09770355444705811  0.07216813832994258  1.0000
  H   H8        1.0  0.8669352699493803  0.90230707726996  0.9278274917844838  1.0000
  H   H9        1.0  0.876622690133189  0.31555156933998063  0.10830470737009536  1.0000
  H   H10       1.0  0.12339189779968507  0.684445346119972  0.891688497634817  1.0000
  H   H11       1.0  0.8717178667242891  0.6781208794541556  0.6912279307634605  1.0000
  H   H12       1.0  0.12827669691537114  0.32189271034162914  0.3087720504424921  1.0000
  H   H13       1.0  0.6223113909790431  0.8609546800203914  0.02783929112241878  1.0000
  H   H14       1.0  0.3776906767150906  0.13903676573907123  0.9721742780433117  1.0000
  H   H15       1.0  0.6186308822233216  0.6783997344087567  0.2309867973923189  1.0000
  H   H16       1.0  0.38137482019804025  0.3215819520606971  0.7690239021584091  1.0000
  H   H17       1.0  0.21109921273647825  0.893489757271098  0.7263035176683559  1.0000
  H   H18       1.0  0.788915079376082  0.10652459216543518  0.2736827966291316  1.0000
  H   H19       1.0  0.7382947673418842  0.8701164088854653  0.7912311694814775  1.0000
  H   H20       1.0  0.26170049630927394  0.1298872351725322  0.20877779773959304  1.0000
  H   H21       1.0  0.6898984121566584  0.7102056283892466  0.38594592383152815  1.0000
  H   H22       1.0  0.31010478188758844  0.2897850442437502  0.6140532658426777  1.0000
  H   H23       1.0  0.6545801300432925  0.5678397503511194  0.4152577981658963  1.0000
  H   H24       1.0  0.34542251225344245  0.4321497537237136  0.5847459191202091  1.0000
  H   H25       1.0  0.8020693902082957  0.5259519747474498  0.589492911208481  1.0000
  H   H26       1.0  0.19794640625927684  0.47403929361468766  0.4105092713442103  1.0000
  H   H27       1.0  0.7769158667768753  0.3826383402237211  0.6641350200137522  1.0000
  H   H28       1.0  0.22308509920044634  0.6173524726309338  0.3358613384382565  1.0000
  C   C1        1.0  0.10091568684008931  0.10324526170109749  0.7468630769016329  1.0000
  C   C2        1.0  0.8990826484320918  0.8967694053544263  0.2531317927866894  1.0000
  C   C3        1.0  0.2300506631871998  0.9022049188815089  0.8899303700013304  1.0000
  C   C4        1.0  0.7699499230070046  0.09780649770956272  0.11006200664147067  1.0000
  C   C5        1.0  0.31641571699650234  0.7603440692622383  0.963333916978101  1.0000
  C   C6        1.0  0.6835842156040144  0.23966627796573897  0.03665896166074131  1.0000
  C   C7        1.0  0.3321313255078238  0.742799282547047  0.07718861847190789  1.0000
  C   C8        1.0  0.6678656341243538  0.2572078275074077  0.9228083761598073  1.0000
  C   C9        1.0  0.2690977508255585  0.8639087203705319  0.11561180201919521  1.0000
  C   C10       1.0  0.7308953149586941  0.1360974314582677  0.8843854733911272  1.0000
  C   C11       1.0  0.18396506574933366  0.005609950697753201  0.041302988373338685  1.0000
  C   C12       1.0  0.8160265477770707  0.9943972916817215  0.9586957845577616  1.0000
  C   C13       1.0  0.16463820792846212  0.024138502969222507  0.9276040144425934  1.0000
  C   C14       1.0  0.8353627498836502  0.9758663757120588  0.07239059563548965  1.0000
  C   C15       1.0  0.29918536302970017  0.8406760659229062  0.23538638507167792  1.0000
  C   C16       1.0  0.7008038089066416  0.15932912768022328  0.7646111711172381  1.0000
  C   C17       1.0  0.0216128510083351  0.058571322492277006  0.5052420161569201  1.0000
  C   C18       1.0  0.9783779695332414  0.9414271043781283  0.49476563006375324  1.0000
  C   C19       1.0  0.4926145250480187  0.9619878053802682  0.5686070026278215  1.0000
  C   C20       1.0  0.5073791462465067  0.0380139776977302  0.4313916968609348  1.0000
  C   C21       1.0  0.7327800644495  0.38349333874761976  0.3023416987466945  1.0000
  C   C22       1.0  0.26722606750398376  0.6164896353140746  0.6976596424531039  1.0000
  C   C23       1.0  0.7482697234236182  0.4879104804368382  0.18114380581445746  1.0000
  C   C24       1.0  0.25174188419597254  0.5120777200576824  0.8188570515041603  1.0000
  C   C25       1.0  0.8215379772927135  0.433563816322952  0.08966512231774713  1.0000
  C   C26       1.0  0.17847689829528696  0.5664297309870321  0.9103332250206576  1.0000
  C   C27       1.0  0.8196850434886257  0.5353692478474484  0.9751571647578955  1.0000
  C   C28       1.0  0.18032095559839695  0.46463100147872166  0.02484372671985108  1.0000
  C   C29       1.0  0.8432906602607914  0.6520338393236713  0.7854653734599067  1.0000
  C   C30       1.0  0.15670580873156578  0.3479720426555915  0.21453856415322284  1.0000
  C   C31       1.0  0.750053990506686  0.6884364772736333  0.9540735859916367  1.0000
  C   C32       1.0  0.24995017001469227  0.311560444929178  0.04593364221327083  1.0000
  C   C33       1.0  0.67868350409033  0.7434032507173641  0.045021864075110225  1.0000
  C   C34       1.0  0.32132042253868315  0.2565915023264509  0.9549861734866382  1.0000
  C   C35       1.0  0.6792093606232186  0.6409245640681575  0.15820209671026927  1.0000
  C   C36       1.0  0.3207983506625994  0.35906576860447353  0.8418051707778458  1.0000
  N   N1        1.0  0.08536684283618003  0.1490597238585067  0.835173638266582  1.0000
  N   N2        1.0  0.9146285423227382  0.8509485957807074  0.16482002314689476  1.0000
  N   N3        1.0  0.1861244765339762  0.9568283395593796  0.7765562018927169  1.0000
  N   N4        1.0  0.8138838492726492  0.043179555369128805  0.22343753926737264  1.0000
  N   N5        1.0  0.8758781951783021  0.5165696945022731  0.8667113672598391  1.0000
  N   N6        1.0  0.12412008466552041  0.4834340566474466  0.133288964823798  1.0000
  N   N7        1.0  0.7687972283664383  0.7573111972088143  0.8340006102151917  1.0000
  N   N8        1.0  0.23120012076702076  0.242692445500623  0.1660055523658812  1.0000
  O   O1        1.0  0.28443160554188307  0.9508919464193043  0.2583133174382438  1.0000
  O   O2        1.0  0.7155481104317829  0.049113322688946005  0.7416940416995672  1.0000
  O   O3        1.0  0.34303152464752174  0.7115534297566055  0.3144356046264747  1.0000
  O   O4        1.0  0.6569613276136012  0.2884505330741831  0.6855632852638606  1.0000
  O   O5        1.0  0.1613883729333594  0.0447377860700087  0.48100939170721085  1.0000
  O   O6        1.0  0.8386145545326402  0.9552514402586426  0.5190055973032911  1.0000
  O   O7        1.0  0.9154016683706558  0.15871864184583737  0.537992725186612  1.0000
  O   O8        1.0  0.08459188070847289  0.8412832602662377  0.46200114356312116  1.0000
  O   O9        1.0  0.6339009657033969  0.6512233008928661  0.441794934080981  1.0000
  O   O10       1.0  0.36609587739272353  0.34877295277281917  0.5582051075765334  1.0000
  O   O11       1.0  0.46257535925566634  0.848051046683615  0.6071903588496994  1.0000
  O   O12       1.0  0.5374131110035806  0.15194763944252543  0.3928096254097396  1.0000
  O   O13       1.0  0.7817480922229976  0.24663126503337196  0.3212898171295251  1.0000
  O   O14       1.0  0.21825333419410245  0.7533584083473599  0.6787084589296197  1.0000
  O   O15       1.0  0.6640177317995608  0.43148995522359  0.3875211438472235  1.0000
  O   O16       1.0  0.3359826416917713  0.568499728750929  0.6124781319703345  1.0000
  O   O17       1.0  0.848565933866979  0.43098734954239865  0.651495319937382  1.0000
  O   O18       1.0  0.15144697359503578  0.5689975118863941  0.3485080697099787  1.0000
  O   O19       1.0  0.511393404613976  0.020805966671950706  0.6302096736598486  1.0000
  O   O20       1.0  0.48860055682153103  0.9791893578523059  0.3697880387715101  1.0000
