data_image0
_chemical_formula_structural       C64Cl16H16N16Zn4
_chemical_formula_sum              "C64 Cl16 H16 N16 Zn4"
_cell_length_a       19.820604398135636
_cell_length_b       19.82057885683055
_cell_length_c       19.820519702636034
_cell_angle_alpha    107.54586125667842
_cell_angle_beta     110.44236799572681
_cell_angle_gamma    110.44242971977421

_space_group_name_H-M_alt    "P 1"
_space_group_IT_number       1

loop_
  _space_group_symop_operation_xyz
  'x, y, z'

loop_
  _atom_site_type_symbol
  _atom_site_label
  _atom_site_symmetry_multiplicity
  _atom_site_fract_x
  _atom_site_fract_y
  _atom_site_fract_z
  _atom_site_occupancy
  C   C1        1.0  0.9312545672110704  0.5292410476856303  0.6538078824913144  1.0000
  C   C2        1.0  0.7087587996698019  0.35109748516570227  0.41979243008481854  1.0000
  C   C3        1.0  0.9239677849699603  0.9459304671718197  0.6102711934314514  1.0000
  C   C4        1.0  0.6643401512346896  0.9780412553022296  0.0540711831337505  1.0000
  C   C5        1.0  0.5984753865752452  0.9826474890242873  0.9066070126873316  1.0000
  C   C6        1.0  0.9239585387927461  0.6158334186163186  0.017349064085266347  1.0000
  C   C7        1.0  0.07602851813990011  0.6863039973106381  0.021963237814212243  1.0000
  C   C8        1.0  0.9239609494142513  0.6102618421667141  0.9459267498352304  1.0000
  C   C9        1.0  0.07603214221333586  0.6918733265804418  0.09338626374854896  1.0000
  C   C10       1.0  0.5984825170096286  0.9066091567185379  0.9826476817657053  1.0000
  C   C11       1.0  0.6643319680717212  0.05407160527521157  0.9780323736261067  1.0000
  C   C12       1.0  0.07603695444992559  0.021969139455372006  0.6863034264608033  1.0000
  C   C13       1.0  0.9313036952597786  0.5802068796675355  0.2889676915122551  1.0000
  C   C14       1.0  0.9239625054583768  0.01735098121940118  0.6158397614234304  1.0000
  C   C15       1.0  0.4015307648556146  0.3841842925845639  0.30814526550248894  1.0000
  C   C16       1.0  0.33566373739319033  0.3136983625702284  0.38972822877459384  1.0000
  C   C17       1.0  0.30228195297886634  0.35579924380114375  0.35579760494268703  1.0000
  C   C18       1.0  0.4367133870983083  0.34451611756859524  0.34451479116963674  1.0000
  C   C19       1.0  0.9999996118331609  0.09220085563772766  0.6554897393976448  1.0000
  C   C20       1.0  3.83661659953555e-06  0.9464866045171403  0.6442108500805475  1.0000
  C   C21       1.0  0.6977294554086626  0.053519942338944214  0.053515100322776704  1.0000
  C   C22       1.0  0.5632909873343835  0.907802561658549  0.9078015297944547  1.0000
  C   C23       1.0  0.9999965548771925  0.6554904133668198  0.0921972520187353  1.0000
  C   C24       1.0  0.06874901110209233  0.5979865951625384  0.7225551389304529  1.0000
  C   C25       1.0  0.9999957802461307  0.64420274509505  0.9464795619696104  1.0000
  C   C26       1.0  0.8754353190268065  0.27744549935967905  0.3461883533360607  1.0000
  C   C27       1.0  0.2912359787513951  0.7110306603374422  0.6423360216887417  1.0000
  C   C28       1.0  0.06869176589424338  0.35766030470784205  0.6488959793924209  1.0000
  C   C29       1.0  0.9312642074599538  0.6538134446372296  0.5292522709242888  1.0000
  C   C30       1.0  0.06869774877021945  0.6489011724686405  0.35766325098715884  1.0000
  C   C31       1.0  0.7087693644314613  0.41980591514655413  0.3511036587836287  1.0000
  C   C32       1.0  0.1245647481386101  0.40200465413625597  0.4707554485863668  1.0000
  C   C33       1.0  0.06875865134650638  0.7225568732562164  0.597996524000628  1.0000
  C   C34       1.0  0.931296385637488  0.2889642737071083  0.5801991239650092  1.0000
  C   C35       1.0  0.2912355857120017  0.6423343823570985  0.7110356182599986  1.0000
  C   C36       1.0  0.8754348275402324  0.3461947085739396  0.2774426241110889  1.0000
  C   C37       1.0  0.12456691014126163  0.4707565168423925  0.4020097193570109  1.0000
  C   C38       1.0  0.2404517216672916  0.3680183855716732  0.36801903359749844  1.0000
  C   C39       1.0  0.5088595173490235  0.34584326277915517  0.34584763271381297  1.0000
  C   C40       1.0  0.9999987579084646  0.16301424033059664  0.6541590360792782  1.0000
  C   C41       1.0  1.1352344844146585e-06  0.8724357487941032  0.6319908041635145  1.0000
  C   C42       1.0  0.7595562888059677  0.12756425729742196  0.12756263098755488  1.0000
  C   C43       1.0  0.49113457255773335  0.836983740984621  0.836985257985198  1.0000
  C   C44       1.0  0.9999984061185642  0.6541593707236542  0.1630139929255564  1.0000
  C   C45       1.0  0.9999987838050121  0.6319857370006543  0.8724311062214485  1.0000
  C   C46       1.0  0.5753868970020477  0.3535169870508169  0.3535142468133046  1.0000
  C   C47       1.0  0.1924090211426018  0.38456513577504114  0.38456453180920386  1.0000
  C   C48       1.0  1.1258277524725307e-05  0.8078503047990464  0.6154446240155097  1.0000
  C   C49       1.0  0.9999930264072179  0.2218745828755359  0.6464816672369268  1.0000
  C   C50       1.0  0.42460932103713855  0.7781285638784039  0.778132210253979  1.0000
  C   C51       1.0  0.8075969098314033  0.19215983579981333  0.19215301170889626  1.0000
  C   C52       1.0  0.9999969317349625  0.6154324364725595  0.8078414536220465  1.0000
  C   C53       1.0  5.528942780378025e-07  0.6464863557904933  0.2218711778660564  1.0000
  C   C54       1.0  3.3362821839196347e-06  0.5866424034084686  0.734107143671487  1.0000
  C   C55       1.0  1.945889017897401e-06  0.6292086339103377  0.2851974663412733  1.0000
  C   C56       1.0  0.655989719462248  0.370790969763078  0.37078511045972123  1.0000
  C   C57       1.0  0.14746649901111644  0.41335751362186796  0.4133592210263259  1.0000
  C   C58       1.0  1.0748872632869997e-05  0.7341137547189404  0.586638299280594  1.0000
  C   C59       1.0  0.9999943616693087  0.2851957822118151  0.6292069211120364  1.0000
  C   C60       1.0  0.3440050970496031  0.714798663440568  0.7148022287089688  1.0000
  C   C61       1.0  0.8525311957213476  0.265893055462321  0.26588636371678825  1.0000
  C   C62       1.0  0.3356791616489404  0.3897526423501957  0.3137172169402618  1.0000
  C   C63       1.0  0.4015157828495433  0.3081256211153373  0.3841594038878924  1.0000
  C   C64       1.0  0.07603743562081888  0.09339050852523896  0.6918752536764146  1.0000
  Cl  Cl1       1.0  0.8288064391253656  0.4898410890003146  0.6252594030515723  1.0000
  Cl  Cl2       1.0  0.6838452233000539  0.29091596651454654  0.46250911045103044  1.0000
  Cl  Cl3       1.0  0.8284044269768176  0.5374873743503058  0.2213348977551491  1.0000
  Cl  Cl4       1.0  0.17119897197732561  0.6610370022279283  0.7964615211982745  1.0000
  Cl  Cl5       1.0  0.8645794571441171  0.20353794001189113  0.3747336051995447  1.0000
  Cl  Cl6       1.0  0.3161477982175998  0.7786585956807028  0.6070640058993179  1.0000
  Cl  Cl7       1.0  0.17158748409396185  0.3929299631244516  0.7090762558601894  1.0000
  Cl  Cl8       1.0  0.8288231475724501  0.6252685196668107  0.4898532179799205  1.0000
  Cl  Cl9       1.0  0.17159123787898548  0.7090753202486582  0.392928164345669  1.0000
  Cl  Cl10      1.0  0.6838535031237002  0.4625217868225916  0.2909261952189369  1.0000
  Cl  Cl11      1.0  0.1354188583861244  0.3389577501695768  0.510155172126062  1.0000
  Cl  Cl12      1.0  0.17121391142110542  0.796468947761937  0.6610439300044034  1.0000
  Cl  Cl13      1.0  0.8283962507055949  0.22133503363329504  0.537480428164834  1.0000
  Cl  Cl14      1.0  0.316145709891323  0.607065184851187  0.7786637531336424  1.0000
  Cl  Cl15      1.0  0.8645797767791809  0.37473917999654555  0.20354304329995915  1.0000
  Cl  Cl16      1.0  0.1354240427496122  0.5101608207398483  0.3389642295622863  1.0000
  H   H1        1.0  0.428039528637676  0.4119490300677384  0.2770275486850551  1.0000
  H   H2        1.0  0.1349638273285266  0.7130788965402458  0.02309074565849301  1.0000
  H   H3        1.0  0.6899910448157346  0.9769103585163705  0.11187583060769413  1.0000
  H   H4        1.0  0.5719700701151353  0.983903463926495  0.8489796297800397  1.0000
  H   H5        1.0  0.1349197241378804  0.15101815845478941  0.7229958481427162  1.0000
  H   H6        1.0  0.8650310986535888  0.8881238767414458  0.5781132507785712  1.0000
  H   H7        1.0  0.31003406768532943  0.4219173491969953  0.28695043013690485  1.0000
  H   H8        1.0  0.4280144170777476  0.27699209867890306  0.4119087292739039  1.0000
  H   H9        1.0  0.3100071871648353  0.28691222812661704  0.4218771779442179  1.0000
  H   H10       1.0  0.13496785952479223  0.02308971155751029  0.7130775533299031  1.0000
  H   H11       1.0  0.8650811309492353  0.016102342635079474  0.5880804871712756  1.0000
  H   H12       1.0  0.5719768004703524  0.8489776969561474  0.9838990508339549  1.0000
  H   H13       1.0  0.6899819349535361  0.11187675968496778  0.9769100330086359  1.0000
  H   H14       1.0  0.8650273404545531  0.5781005687988381  0.8881145048232711  1.0000
  H   H15       1.0  0.13491268073319446  0.7229985820062409  0.15101956908267058  1.0000
  H   H16       1.0  0.8650727607783891  0.5880668957099214  0.016091433349927724  1.0000
  N   N1        1.0  0.9569778501648971  0.5072521235410504  0.6006380496775279  1.0000
  N   N2        1.0  0.7854543610550594  0.38677555474060193  0.42995888545490163  1.0000
  N   N3        1.0  0.9568144023331726  0.5700412427357688  0.355497897708304  1.0000
  N   N4        1.0  0.04300608308967209  0.5502666856205493  0.643653417773983  1.0000
  N   N5        1.0  0.9066090365580807  0.35634200244466985  0.3993526927254509  1.0000
  N   N6        1.0  0.21454523199471962  0.6444947049320218  0.6013147062697328  1.0000
  N   N7        1.0  0.04318110892216959  0.39868082411783945  0.6132233791329043  1.0000
  N   N8        1.0  0.9569910507292222  0.6006473950746664  0.5072598437465033  1.0000
  N   N9        1.0  0.04318449324088652  0.6132274127738595  0.3986826626372563  1.0000
  N   N10       1.0  0.78546096384256  0.4299607940876126  0.38677323269603636  1.0000
  N   N11       1.0  0.09338321550466594  0.44972275040118587  0.4927351672998057  1.0000
  N   N12       1.0  0.043017956900499095  0.6436577040402864  0.5502687474702769  1.0000
  N   N13       1.0  0.9568105757704685  0.35549808428534385  0.5700407176675598  1.0000
  N   N14       1.0  0.21454349393280828  0.6013082774184964  0.6444987286055834  1.0000
  N   N15       1.0  0.9066094479980293  0.3993572644208212  0.3563393637439277  1.0000
  N   N16       1.0  0.09338318469779243  0.49273842383080774  0.4497226920230588  1.0000
  Zn  Zn1       1.0  0.8950457133165203  0.3950481751936221  0.49999740665806763  1.0000
  Zn  Zn2       1.0  0.10495073321000362  0.6049476228073373  0.4999950187373373  1.0000
  Zn  Zn3       1.0  0.8950505028801746  0.5000016092332444  0.3950525772503613  1.0000
  Zn  Zn4       1.0  0.10494682815392764  0.49999621524189297  0.6049489506237222  1.0000
