data_image0
_chemical_formula_structural       Cu2H36C36N4O6
_chemical_formula_sum              "Cu2 H36 C36 N4 O6"
_cell_length_a       5.427178073409489
_cell_length_b       9.094326111161502
_cell_length_c       15.824699982952067
_cell_angle_alpha    90.00024957361838
_cell_angle_beta     95.85769816765279
_cell_angle_gamma    90.00109407682604

_space_group_name_H-M_alt    "P 1"
_space_group_IT_number       1

loop_
  _space_group_symop_operation_xyz
  'x, y, z'

loop_
  _atom_site_type_symbol
  _atom_site_label
  _atom_site_symmetry_multiplicity
  _atom_site_fract_x
  _atom_site_fract_y
  _atom_site_fract_z
  _atom_site_occupancy
  Cu  Cu1       1.0  0.9177098017621501  0.3737689614475883  0.9177061928029674  1.0000
  Cu  Cu2       1.0  0.0822614046572454  0.8737776110177009  0.08228689816635179  1.0000
  H   H1        1.0  0.8505944970246873  0.6210134955602129  0.8335518919862182  1.0000
  H   H2        1.0  0.14937311882051324  0.12101458748473701  0.1664576277359728  1.0000
  H   H3        1.0  0.8885410601765358  0.4708280755514167  0.7760160638992275  1.0000
  H   H4        1.0  0.11143177555033651  0.970810943044327  0.2239816088353379  1.0000
  H   H5        1.0  0.41498616887975  0.17605750064751646  0.9765264868843531  1.0000
  H   H6        1.0  0.5850149961345609  0.6760601030351554  0.023478511321798103  1.0000
  H   H7        1.0  0.4154615550067718  0.9284499778698817  0.9244900901505702  1.0000
  H   H8        1.0  0.5845054337126001  0.4284559895139779  0.0755101923012376  1.0000
  H   H9        1.0  0.2595947443810687  0.052433074751007815  0.8501610276367373  1.0000
  H   H10       1.0  0.7403857858486164  0.5524369621283327  0.1498371639373772  1.0000
  H   H11       1.0  0.8739351912169228  0.8587079841251253  0.8981292269319637  1.0000
  H   H12       1.0  0.12605546268718373  0.3586813240010756  0.10187706897909979  1.0000
  H   H13       1.0  0.142246106055822  0.7895972449551465  0.7870787526985481  1.0000
  H   H14       1.0  0.8577496509463813  0.2895630197506875  0.21293246239437016  1.0000
  H   H15       1.0  0.014561463940729892  0.8493078589495654  0.6355734754671756  1.0000
  H   H16       1.0  0.9854606051748078  0.3492752182208889  0.3644342788932278  1.0000
  H   H17       1.0  0.611844348235053  0.974001315559626  0.5958851148547595  1.0000
  H   H18       1.0  0.3881773888956844  0.4739856176186878  0.4041219680234676  1.0000
  H   H19       1.0  0.3532117496817122  0.05537306760796671  0.7085614305428862  1.0000
  H   H20       1.0  0.6467912007595517  0.5553654637068988  0.2914391960279517  1.0000
  H   H21       1.0  0.4466652745635288  0.579942762378778  0.8493461132398963  1.0000
  H   H22       1.0  0.5532855772769523  0.0799362977874267  0.1506467732531149  1.0000
  H   H23       1.0  0.2278859010096923  0.5278830420440528  0.7086328295623758  1.0000
  H   H24       1.0  0.7721237372592995  0.02787725372632371  0.2913428200255623  1.0000
  H   H25       1.0  0.46143879501919827  0.6647748596336598  0.7072446900935175  1.0000
  H   H26       1.0  0.538583332233806  0.16477042835211356  0.2927482418681677  1.0000
  H   H27       1.0  0.268139711850651  0.28987565860187914  0.638843198115346  1.0000
  H   H28       1.0  0.7318579082038711  0.7898607892199294  0.36114719851412497  1.0000
  H   H29       1.0  0.44605469607176934  0.15647134701059437  0.522006150051098  1.0000
  H   H30       1.0  0.5539705221309531  0.6564921738703902  0.4780020754469945  1.0000
  H   H31       1.0  0.8276449184510284  0.2478869194436372  0.4659474942647464  1.0000
  H   H32       1.0  0.1724099109445305  0.7479235747407813  0.5340691953521102  1.0000
  H   H33       1.0  0.022882584704071  0.4815031922440697  0.5225535874568975  1.0000
  H   H34       1.0  0.9771774533228738  0.981522788411802  0.477446815252179  1.0000
  H   H35       1.0  0.8331098705553117  0.6193586240711754  0.6353680559903693  1.0000
  H   H36       1.0  0.1669471035215651  0.11935860402800812  0.36462850738301705  1.0000
  C   C1        1.0  0.7917093334570282  0.10654298325362531  0.9877328473975806  1.0000
  C   C2        1.0  0.2082778013000848  0.6065483763652395  0.012269645031878402  1.0000
  C   C3        1.0  0.5533026660833471  0.148458410679126  0.932081357110327  1.0000
  C   C4        1.0  0.44666478147466654  0.6484632393055634  0.0679223225671564  1.0000
  C   C5        1.0  0.4418754267161519  0.0173572503902335  0.8790841613477198  1.0000
  C   C6        1.0  0.5581011408844105  0.5173602548721022  0.120916015516535  1.0000
  C   C7        1.0  0.5966961483849927  0.9650429566032699  0.8113066050605724  1.0000
  C   C8        1.0  0.4032921543200345  0.46503720692012973  0.18869969932423908  1.0000
  C   C9        1.0  0.8174928514832658  0.8866920150972034  0.8321244729713513  1.0000
  C   C10       1.0  0.18248714677205413  0.3866838491563982  0.167882675182355  1.0000
  C   C11       1.0  0.9668495552467604  0.845795432431828  0.769368954522413  1.0000
  C   C12       1.0  0.0331500307598773  0.3457634846751532  0.2306357341495655  1.0000
  C   C13       1.0  0.8952980248968248  0.8788437223928512  0.6842793108762635  1.0000
  C   C14       1.0  0.10470190810612223  0.3788410398370416  0.3157245782994735  1.0000
  C   C15       1.0  0.6716907544643789  0.9514701726847078  0.6623431750640519  1.0000
  C   C16       1.0  0.32831572933493197  0.45145899628420955  0.33766175412282  1.0000
  C   C17       1.0  0.5254457819620839  0.9956908395801065  0.7254632270228071  1.0000
  C   C18       1.0  0.4745525422154487  0.49568688405511097  0.2745475874368779  1.0000
  C   C19       1.0  0.4370473969602244  0.35109205616939937  0.8342698205860868  1.0000
  C   C20       1.0  0.5629257195828005  0.8510811709552967  0.1657272315143956  1.0000
  C   C21       1.0  0.526850088085645  0.5023955433799614  0.8060321765122609  1.0000
  C   C22       1.0  0.47312181233409945  0.0023868134902756  0.1939591136894876  1.0000
  C   C23       1.0  0.42911477598067904  0.5462095534272181  0.7147074279001515  1.0000
  C   C24       1.0  0.5708978306855244  0.0462010666910757  0.2852783129391838  1.0000
  C   C25       1.0  0.5411003581588787  0.4624902364262056  0.6459342810304065  1.0000
  C   C26       1.0  0.45891838198807033  0.9624911436930008  0.3540614091802894  1.0000
  C   C27       1.0  0.4338547628084869  0.33134325407377224  0.6133590383924741  1.0000
  C   C28       1.0  0.5661673750927465  0.831352611824073  0.38663111119890203  1.0000
  C   C29       1.0  0.5350981810409223  0.2560357391054922  0.5483817697388602  1.0000
  C   C30       1.0  0.4649426145945981  0.7560387415562886  0.4516212534390291  1.0000
  C   C31       1.0  0.7484151336940885  0.3084830269180614  0.516114217118691  1.0000
  C   C32       1.0  0.2516470017078092  0.8085030206564524  0.4838928475918393  1.0000
  C   C33       1.0  0.8578281284121445  0.43864368789791547  0.5479609705865512  1.0000
  C   C34       1.0  0.1422169111943248  0.9386497171739591  0.4520430828020281  1.0000
  C   C35       1.0  0.7535306098400768  0.5150386547372252  0.6121793538611016  1.0000
  C   C36       1.0  0.2464958058317848  0.015047391808209905  0.3878208025711345  1.0000
  N   N1        1.0  0.6073992975855661  0.2785051585725355  0.8843150925966867  1.0000
  N   N2        1.0  0.3925507735266861  0.7784995331709227  0.11568240836573547  1.0000
  N   N3        1.0  0.7975458456439243  0.5138548503258988  0.824219928718385  1.0000
  N   N4        1.0  0.2024136814436233  0.0138527895309011  0.1757760524759249  1.0000
  O   O1        1.0  0.7953369915204009  0.9826201830379093  0.0248843395538074  1.0000
  O   O2        1.0  0.2046194929423919  0.482628061382016  0.9751147630103103  1.0000
  O   O3        1.0  0.9722118365994491  0.19775543574267118  0.9952404469598335  1.0000
  O   O4        1.0  0.027789098258594408  0.6977650535772142  0.004737877267516  1.0000
  O   O5        1.0  0.21488761864524267  0.31335412685486824  0.8138826247203212  1.0000
  O   O6        1.0  0.7850811677924625  0.8133588636083999  0.1861126244398648  1.0000
