data_image0
_chemical_formula_structural       Zn2H30C39S2N2O15
_chemical_formula_sum              "Zn2 H30 C39 S2 N2 O15"
_cell_length_a       14.668195707988943
_cell_length_b       16.115484694543717
_cell_length_c       16.04327137589333
_cell_angle_alpha    90.13201806715676
_cell_angle_beta     90.43669032534285
_cell_angle_gamma    91.46736872755378

_space_group_name_H-M_alt    "P 1"
_space_group_IT_number       1

loop_
  _space_group_symop_operation_xyz
  'x, y, z'

loop_
  _atom_site_type_symbol
  _atom_site_label
  _atom_site_symmetry_multiplicity
  _atom_site_fract_x
  _atom_site_fract_y
  _atom_site_fract_z
  _atom_site_occupancy
  Zn  Zn1       1.0  0.5971464335515007  0.49858557872602927  0.49788439813943347  1.0000
  Zn  Zn2       1.0  0.40764208253957424  0.4969211852992574  0.4983123571278796  1.0000
  H   H1        1.0  0.40273659780414295  0.9413413102797749  0.6129238926039164  1.0000
  H   H2        1.0  0.38340974073015827  0.41999623728836616  0.9205286276295156  1.0000
  H   H3        1.0  0.38010640812453284  0.4185029122991182  0.06657240443578868  1.0000
  H   H4        1.0  0.35677489752465863  0.525374720797018  0.0672404429800011  1.0000
  H   H5        1.0  0.6040067628671151  0.6011360243673423  0.9285351540194  1.0000
  H   H6        1.0  0.49001022953222406  0.6335163548461297  0.9259429456080781  1.0000
  H   H7        1.0  0.6006901147182402  0.5996151422864032  0.0744422858008136  1.0000
  H   H8        1.0  0.6379441373774029  0.4472920014027224  0.9277125503694349  1.0000
  H   H9        1.0  0.6345522020760582  0.4460096352693483  0.0737309282028917  1.0000
  H   H10       1.0  0.4868027939143501  0.6322134912565786  0.0718580647886284  1.0000
  H   H11       1.0  0.9179387531471122  0.5113238783238501  0.636410630097167  1.0000
  H   H12       1.0  0.5543626530181741  0.05270389545590601  0.6340908993808014  1.0000
  H   H13       1.0  0.0818023723544243  0.38094555657537654  0.5641283113830866  1.0000
  H   H14       1.0  0.9243831326241221  0.3778462130861869  0.5624947847795596  1.0000
  H   H15       1.0  0.9276811170253865  0.3726927076366806  0.4515415128308859  1.0000
  H   H16       1.0  0.08478504655844428  0.6101614851522896  0.42403027070427163  1.0000
  H   H17       1.0  0.0879653044335456  0.5121689008020597  0.37623703365908784  1.0000
  H   H18       1.0  0.9254264686754753  0.6047011764106713  0.4193403809313025  1.0000
  H   H19       1.0  0.9141840724089931  0.606600904687518  0.582978450911078  1.0000
  H   H20       1.0  0.3399130467277088  0.0405143781211876  0.4788539365327154  1.0000
  H   H21       1.0  0.9295733507637818  0.5076156360191179  0.3677855311499485  1.0000
  H   H22       1.0  0.44101344657287456  0.942864143765192  0.3664670720245908  1.0000
  H   H23       1.0  0.5928430277098115  0.0540333247380076  0.3876267623821264  1.0000
  H   H24       1.0  0.6556177209597747  0.9550555251889963  0.5218112430859351  1.0000
  H   H25       1.0  0.5443043113734376  0.3715839023245238  0.0705002878658192  1.0000
  H   H26       1.0  0.5475942624019579  0.37295874829867165  0.9245958883222797  1.0000
  H   H27       1.0  0.3602403649692078  0.526818197741747  0.9210763642106059  1.0000
  H   H28       1.0  0.0509481178245252  0.6176654153233443  0.7479016195815475  1.0000
  H   H29       1.0  0.17294808234836268  0.36487403165723015  0.43370317201466696  1.0000
  H   H30       1.0  0.9820784951995023  0.7435600669038109  0.5576890674438388  1.0000
  C   C1        1.0  0.5129642863953663  0.5002846839660081  0.6600206447389425  1.0000
  C   C2        1.0  0.5011961177311548  0.9125494648674036  0.500327135817983  1.0000
  C   C3        1.0  0.550788454198873  0.02806370926805361  0.43765935478833035  1.0000
  C   C4        1.0  0.4943813818649048  0.08288335522299661  0.5001007767017214  1.0000
  C   C5        1.0  0.4660957682082767  0.9682504051359191  0.42585755142807363  1.0000
  C   C6        1.0  0.40993681555472955  0.020630793619808695  0.48838775939135814  1.0000
  C   C7        1.0  0.5030771163508659  0.8248036137670594  0.4994410874618396  1.0000
  C   C8        1.0  0.49258807520568115  0.1706168439389728  0.5004633071410751  1.0000
  C   C9        1.0  0.5687589453838057  0.4336599712192353  0.9506155834517785  1.0000
  C   C10       1.0  0.4060866744353716  0.48021267428249814  0.9466421846546993  1.0000
  C   C11       1.0  0.40385376641728493  0.47925122596490866  0.0431297870747542  1.0000
  C   C12       1.0  0.503582223280567  0.6595028346804027  0.4969559456851655  1.0000
  C   C13       1.0  0.500530036889927  0.49719651197403897  0.24567193494608122  1.0000
  C   C14       1.0  0.5041415844980577  0.5002296565760462  0.9161072723363262  1.0000
  C   C15       1.0  0.566528020155225  0.43275609067889315  0.0469567897204044  1.0000
  C   C16       1.0  0.5002393733730841  0.49868740186754223  0.0794057759380635  1.0000
  C   C17       1.0  0.5328779100018934  0.5852380441581174  0.0477464576058821  1.0000
  C   C18       1.0  0.5350727479926932  0.5861757306499201  0.9513464091474548  1.0000
  C   C19       1.0  0.49951372765841034  0.498000984102795  0.1699032515243815  1.0000
  C   C20       1.0  0.5074954105315753  0.5011624346188057  0.8257228233593281  1.0000
  C   C21       1.0  0.5111882196601485  0.5012689070265279  0.7500696950265393  1.0000
  C   C22       1.0  0.0492574483126091  0.5516633631222164  0.5867491383214868  1.0000
  C   C23       1.0  0.5017119744773524  0.49641119586362953  0.3357944242615574  1.0000
  C   C24       1.0  0.055564658986938284  0.41210861891845946  0.5081988774989271  1.0000
  C   C25       1.0  0.950763396611954  0.4086700843610772  0.5064104577007313  1.0000
  C   C26       1.0  0.09124674545015667  0.5051657962236292  0.5104986171774968  1.0000
  C   C27       1.0  0.9442637228765348  0.5450654810585931  0.5819748046468619  1.0000
  C   C28       1.0  0.9146654757635914  0.49768538920044153  0.5016925205080938  1.0000
  C   C29       1.0  0.9528706816706033  0.5421399921377485  0.42333891333040446  1.0000
  C   C30       1.0  0.058037340182558184  0.5462691706991835  0.42820339185193024  1.0000
  C   C31       1.0  0.8157630599490489  0.49552766179722607  0.4976125064026746  1.0000
  C   C32       1.0  0.1905660500854367  0.5057324642873553  0.5115078094241101  1.0000
  C   C33       1.0  0.49147684930623825  0.33589491564653434  0.4999061390285108  1.0000
  C   C34       1.0  0.5293631110121381  0.027261125796272302  0.5746891762443839  1.0000
  C   C35       1.0  0.44473050025168  0.9673452168806947  0.562870906620418  1.0000
  C   C36       1.0  0.5040753021333514  0.749201898764724  0.4980765112982438  1.0000
  C   C37       1.0  0.4916335326126315  0.24623534115516324  0.500460700130624  1.0000
  C   C38       1.0  0.5855482621293858  0.974826961213111  0.5121834254728626  1.0000
  C   C39       1.0  0.09702086550659317  0.36611996578702133  0.43430079692361556  1.0000
  S   S1        1.0  0.08910125010471147  0.506823050012315  0.6884466221892467  1.0000
  S   S2        1.0  0.09110519333150792  0.6631307493738705  0.5891347829397873  1.0000
  N   N1        1.0  0.7369129224086064  0.49530920052167465  0.4946831633179728  1.0000
  N   N2        1.0  0.26853756437535026  0.49965846186061924  0.5046142886099644  1.0000
  O   O1        1.0  0.5907458686456833  0.49472346452853344  0.6257059408641084  1.0000
  O   O2        1.0  0.43599383140836767  0.5048933268571004  0.6232660076150012  1.0000
  O   O3        1.0  0.5806878458082778  0.6252616854150262  0.5041825527505637  1.0000
  O   O4        1.0  0.42584195094693905  0.623246792760128  0.48892355339452825  1.0000
  O   O5        1.0  0.5796966454576943  0.5042435222887391  0.371011522888665  1.0000
  O   O6        1.0  0.42476523147689693  0.4880168513164734  0.37159181730712737  1.0000
  O   O7        1.0  0.5690871140685445  0.37272512767149374  0.4939210452653242  1.0000
  O   O8        1.0  0.4140588576879764  0.3696508046097691  0.505278019184459  1.0000
  O   O9        1.0  0.0522176011621127  0.4236536031869207  0.6934140924434473  1.0000
  O   O10       1.0  0.184874479003291  0.5254280900592933  0.6953592078289148  1.0000
  O   O11       1.0  0.03235609524576689  0.5580800237698328  0.7538967823654943  1.0000
  O   O12       1.0  0.05146445718994389  0.3308129668408881  0.3806346053725633  1.0000
  O   O13       1.0  0.07216192198576009  0.6969117778875997  0.6710308449756823  1.0000
  O   O14       1.0  0.1795588180848569  0.6689609651840343  0.5532118006802449  1.0000
  O   O15       1.0  0.021816456550993697  0.7077284503814668  0.5254414831965519  1.0000
