data_image0
_chemical_formula_structural       Ag4H28C32S4N12
_chemical_formula_sum              "Ag4 H28 C32 S4 N12"
_cell_length_a       7.916112985824047
_cell_length_b       10.564748125294825
_cell_length_c       11.465241424206233
_cell_angle_alpha    84.45424217542451
_cell_angle_beta     72.23704251404439
_cell_angle_gamma    79.79598788180863

_space_group_name_H-M_alt    "P 1"
_space_group_IT_number       1

loop_
  _space_group_symop_operation_xyz
  'x, y, z'

loop_
  _atom_site_type_symbol
  _atom_site_label
  _atom_site_symmetry_multiplicity
  _atom_site_fract_x
  _atom_site_fract_y
  _atom_site_fract_z
  _atom_site_occupancy
  Ag  Ag1       1.0  0.6350686498095969  0.8534362967527399  0.5524296912872658  1.0000
  Ag  Ag2       1.0  0.3649340085209829  0.14656359671476338  0.4475691505464924  1.0000
  Ag  Ag3       1.0  0.8610747021944575  0.8790371605060655  0.7135866101287859  1.0000
  Ag  Ag4       1.0  0.1389213133871223  0.12096278232840517  0.2864136434027102  1.0000
  H   H1        1.0  0.28330768221047725  0.6970494321754757  0.568273379188426  1.0000
  H   H2        1.0  0.7166927063440623  0.30294854974301433  0.43172525636107656  1.0000
  H   H3        1.0  0.4996020080588366  0.37131730945230856  0.7513863526144818  1.0000
  H   H4        1.0  0.5003953360725432  0.6286826235087658  0.24861361857746542  1.0000
  H   H5        1.0  0.705381701902482  0.565935435422098  0.7251563180879685  1.0000
  H   H6        1.0  0.29461584177607153  0.43406354078938136  0.2748445738574148  1.0000
  H   H7        1.0  0.161683655156267  0.4960482975273309  0.5731128845105431  1.0000
  H   H8        1.0  0.8383142797694418  0.5039487533205573  0.42688810729489296  1.0000
  H   H9        1.0  0.27872868220062946  0.34899089681510276  0.6147309925536888  1.0000
  H   H10       1.0  0.7212703856513016  0.6510071068411916  0.3852696669821682  1.0000
  H   H11       1.0  0.014220249895785703  0.6361862686368553  0.8044900190423904  1.0000
  H   H12       1.0  0.9857837369845939  0.3638136149572517  0.19550854045181862  1.0000
  H   H13       1.0  0.7564799290406654  0.6127806933177097  0.9888131284878696  1.0000
  H   H14       1.0  0.24352194679561018  0.38722305087698305  0.011185513625783025  1.0000
  H   H15       1.0  0.6575047602832454  0.40122860922066644  0.05394891677894981  1.0000
  H   H16       1.0  0.34249559137965246  0.5987761075292184  0.9460499577442291  1.0000
  H   H17       1.0  0.07776682599628514  0.23113252449044094  0.7479766338458022  1.0000
  H   H18       1.0  0.9222329953055137  0.7688683751344669  0.25202620603064924  1.0000
  H   H19       1.0  0.8633350352617197  0.13237079280993666  0.026361885502979077  1.0000
  H   H20       1.0  0.13666326186670835  0.8676310793701559  0.9736411867829915  1.0000
  H   H21       1.0  0.8756225669549664  0.10121377944926017  0.8742390223299736  1.0000
  H   H22       1.0  0.12438010314641443  0.898786131814852  0.1257624319740103  1.0000
  H   H23       1.0  0.5612491603744373  0.18399619847389906  0.18222557352358143  1.0000
  H   H24       1.0  0.43874744207786887  0.8160008563151777  0.8177748297979903  1.0000
  H   H25       1.0  0.225247002766011  0.13645711824656104  0.9715241220567634  1.0000
  H   H26       1.0  0.7747562424353021  0.8635398871755483  0.028474869567077083  1.0000
  H   H27       1.0  0.5737991248144708  0.1398492732185375  0.8169698530583602  1.0000
  H   H28       1.0  0.42620181764275605  0.8601525614181609  0.18303004207830043  1.0000
  C   C1        1.0  0.09029888026173438  0.8378906083739963  0.43117508413461547  1.0000
  C   C2        1.0  0.9096966010351435  0.1621055114032828  0.5688282639267542  1.0000
  C   C3        1.0  0.23394020626283665  0.9780595469293869  0.7136776639280313  1.0000
  C   C4        1.0  0.7660402579682851  0.021938589022205704  0.2863260775380851  1.0000
  C   C5        1.0  0.3734092644390402  0.6372479972257351  0.613265713881475  1.0000
  C   C6        1.0  0.6265911162682938  0.3627499728283468  0.386731180021215  1.0000
  C   C7        1.0  0.4877220250948398  0.4676524062837117  0.709449974320073  1.0000
  C   C8        1.0  0.5122770466806871  0.5323456033047831  0.2905515560391976  1.0000
  C   C9        1.0  0.5881862329540867  0.5649213046209451  0.695233212202794  1.0000
  C   C10       1.0  0.4118122284091186  0.4350795574197192  0.3047629434259563  1.0000
  C   C11       1.0  0.21376939524834876  0.4453472409007376  0.6463750367855354  1.0000
  C   C12       1.0  0.7862309972297864  0.5546507469499603  0.35362446958737337  1.0000
  C   C13       1.0  0.06255994012146003  0.43473515868210905  0.763279271290429  1.0000
  C   C14       1.0  0.9374434638117959  0.5652676188895993  0.2367200092371107  1.0000
  C   C15       1.0  0.9716955349322942  0.5421244927076003  0.8317583030611502  1.0000
  C   C16       1.0  0.028305798772080937  0.45787541656549974  0.1682416919355632  1.0000
  C   C17       1.0  0.826321789526929  0.529117865026407  0.9355492832162755  1.0000
  C   C18       1.0  0.17368087665084886  0.47088204030549713  0.06445130026430232  1.0000
  C   C19       1.0  0.771008122329924  0.40967856716108736  0.9722643333994796  1.0000
  C   C20       1.0  0.2289926166565337  0.5903242182929985  0.02773377016034572  1.0000
  C   C21       1.0  0.8620467078860655  0.30127323279418755  0.9054955044283518  1.0000
  C   C22       1.0  0.13795670389438186  0.698729556641929  0.09450551774600771  1.0000
  C   C23       1.0  0.00681629097640272  0.31498566797139194  0.8010959133507072  1.0000
  C   C24       1.0  0.9931857922542517  0.6850171313381139  0.19890539116319425  1.0000
  C   C25       1.0  0.8134377631160489  0.16898134523421496  0.9477462912301463  1.0000
  C   C26       1.0  0.18656165909140301  0.8310214678898756  0.05225470713944703  1.0000
  C   C27       1.0  0.5132322586471149  0.17201147555499569  0.10565143578397596  1.0000
  C   C28       1.0  0.486768137754616  0.8279865182279026  0.8943489414123391  1.0000
  C   C29       1.0  0.34579415723149515  0.1478768868557196  0.9928889396943745  1.0000
  C   C30       1.0  0.6542073642492596  0.8521220478711767  0.007109363585556125  1.0000
  C   C31       1.0  0.5158591474382701  0.15163219253607  0.9147288498686167  1.0000
  C   C32       1.0  0.4841408655635036  0.8483677384748346  0.08527316911445129  1.0000
  S   S1        1.0  0.963086599241926  0.7429762995847895  0.52838254703898  1.0000
  S   S2        1.0  0.03691433536810251  0.2570255231874938  0.47161560645086814  1.0000
  S   S3        1.0  0.4092956464733888  0.0528926802162459  0.6573911247656739  1.0000
  S   S4        1.0  0.5906992401055644  0.9471063157420263  0.3426103318588005  1.0000
  N   N1        1.0  0.18453973207659405  0.9030232476187261  0.3599381163960659  1.0000
  N   N2        1.0  0.815470091516893  0.09698040174237826  0.640053606739869  1.0000
  N   N3        1.0  0.11115761616390074  0.9219165632668193  0.7592871011430944  1.0000
  N   N4        1.0  0.888838162978871  0.07809107114862708  0.24071247060864212  1.0000
  N   N5        1.0  0.5152637557202695  0.6704391503774261  0.635087643739439  1.0000
  N   N6        1.0  0.4847335844875076  0.3295607766514408  0.36491145662910907  1.0000
  N   N7        1.0  0.35232172499797076  0.514967039556936  0.6566429900324948  1.0000
  N   N8        1.0  0.647679988182766  0.48503092655595736  0.34335449235405247  1.0000
  N   N9        1.0  0.34587657725973747  0.1606106591373617  0.111819936066091  1.0000
  N   N10       1.0  0.6541215493659466  0.8393854230965233  0.8881802348459686  1.0000
  N   N11       1.0  0.6203533230403122  0.1661851094257472  0.988078583726285  1.0000
  N   N12       1.0  0.37964383331468815  0.833815798081531  0.011923079182445005  1.0000
