data_image0
_chemical_formula_structural       Cd4H44C44N8O16
_chemical_formula_sum              "Cd4 H44 C44 N8 O16"
_cell_length_a       7.66641515
_cell_length_b       8.294154618851687
_cell_length_c       18.0279
_cell_angle_alpha    97.67134293749062
_cell_angle_beta     90.0
_cell_angle_gamma    90.0

_space_group_name_H-M_alt    "P 1"
_space_group_IT_number       1

loop_
  _space_group_symop_operation_xyz
  'x, y, z'

loop_
  _atom_site_type_symbol
  _atom_site_label
  _atom_site_symmetry_multiplicity
  _atom_site_fract_x
  _atom_site_fract_y
  _atom_site_fract_z
  _atom_site_occupancy
  Cd  Cd1       1.0  0.295450997067384  0.20476226659360466  0.2218961131752479  1.0000
  Cd  Cd2       1.0  0.7954513133821093  0.2952424363703443  0.27810559013347813  1.0000
  Cd  Cd3       1.0  0.7045496355620671  0.7952386234391042  0.7781039969560624  1.0000
  Cd  Cd4       1.0  0.2045480148567194  0.7047584536623575  0.7218945199978322  1.0000
  H   H1        1.0  0.3718348073023421  0.13930666309415335  0.03296662859334281  1.0000
  H   H2        1.0  0.8718338192264454  0.3606992564262441  0.4670340400391524  1.0000
  H   H3        1.0  0.628165825327109  0.8606966600514596  0.967033076272834  1.0000
  H   H4        1.0  0.1281655090123834  0.6393016336064579  0.532966070092158  1.0000
  H   H5        1.0  0.269857548739715  0.8560287329340073  0.9407932875623856  1.0000
  H   H6        1.0  0.7698552562732031  0.6439732103932769  0.5592088564274533  1.0000
  H   H7        1.0  0.7301404751084988  0.14396972398579075  0.059208891921386515  1.0000
  H   H8        1.0  0.2301440719656327  0.3560288961958804  0.4407918831149473  1.0000
  H   H9        1.0  0.0474393824080863  0.867342707964575  0.1574716988764067  1.0000
  H   H10       1.0  0.5474344811603371  0.6326641015885244  0.3425318533662747  1.0000
  H   H11       1.0  0.9525625546119798  0.1326666979633089  0.8425322624368192  1.0000
  H   H12       1.0  0.4525648470784915  0.3673392215570886  0.6574689608914497  1.0000
  H   H13       1.0  0.1127006538381892  0.5744421427699182  0.1291086133435186  1.0000
  H   H14       1.0  0.6127009701529147  0.9255573674444548  0.37089504530301554  1.0000
  H   H15       1.0  0.8872986744006395  0.4255599638192393  0.87089268089467  1.0000
  H   H16       1.0  0.3872957493046769  0.0744435225882469  0.6291050648282948  1.0000
  H   H17       1.0  0.007078927887178598  0.6985309011697254  0.907829926225297  1.0000
  H   H18       1.0  0.5070779398112819  0.8014686090446477  0.5921737324212302  1.0000
  H   H19       1.0  0.992919095961035  0.3014651226371541  0.0921743226109371  1.0000
  H   H20       1.0  0.4929213884275469  0.1985310644316058  0.4078274123863039  1.0000
  H   H21       1.0  0.930914887905594  0.8991520095908498  0.4160120154122708  1.0000
  H   H22       1.0  0.4309119628096312  0.6008450675106118  0.0839865015416166  1.0000
  H   H23       1.0  0.0690896578957094  0.1008476638853963  0.5839863559163803  1.0000
  H   H24       1.0  0.5690860610385826  0.3991509562962676  0.9160116456410706  1.0000
  H   H25       1.0  0.1292611971320099  0.979767123074801  0.4522012736238993  1.0000
  H   H26       1.0  0.6292615134467352  0.5202360368089316  0.0477981716023805  1.0000
  H   H27       1.0  0.8707407398880562  0.020236200070805  0.5477978765464968  1.0000
  H   H28       1.0  0.3707391191827156  0.4797648532237702  0.9522002744415944  1.0000
  H   H29       1.0  0.2922865454266486  0.7918906600752182  0.3536620578003706  1.0000
  H   H30       1.0  0.7922842529601368  0.7081076335826992  0.1463376432603951  1.0000
  H   H31       1.0  0.7077127828121872  0.2081065802881241  0.6463367187934141  1.0000
  H   H32       1.0  0.2077124664974619  0.2918896067806358  0.8536622427249442  1.0000
  H   H33       1.0  0.1777793105816841  0.6901512603083761  0.4182988181680685  1.0000
  H   H34       1.0  0.6777744093339351  0.809848249905997  0.0817015123038018  1.0000
  H   H35       1.0  0.8222226264383818  0.3098484131678703  0.581701771943699  1.0000
  H   H36       1.0  0.3222210057330415  0.1901502070137937  0.9182984483968611  1.0000
  H   H37       1.0  0.0608928672483913  0.7289472456551425  0.2591357745419103  1.0000
  H   H38       1.0  0.5608892703912574  0.7710559142285973  0.2408669988590262  1.0000
  H   H39       1.0  0.9391051565998223  0.2710512112646556  0.740865850246081  1.0000
  H   H40       1.0  0.439104840285097  0.22894497580410444  0.7591347753596125  1.0000
  H   H41       1.0  0.9283908920585944  0.6420802485494548  0.3219817878106568  1.0000
  H   H42       1.0  0.4283944889157211  0.8579277775601071  0.1780201750600199  1.0000
  H   H43       1.0  0.0716071317896194  0.357920641483247  0.6780194317122081  1.0000
  H   H44       1.0  0.5716100568855822  0.1420791952548726  0.8219803086478947  1.0000
  C   C1        1.0  0.2893855806908689  0.039347085420836  0.0442311494324983  1.0000
  C   C2        1.0  0.7893845926149722  0.4606515347608352  0.4557696256038355  1.0000
  C   C3        1.0  0.7106150519385819  0.9606538046118658  0.9557711794819141  1.0000
  C   C4        1.0  0.2106147356238566  0.5393457056025002  0.5442313697730583  1.0000
  C   C5        1.0  0.2406222418048927  0.9007493482161311  0.9987176305393745  1.0000
  C   C6        1.0  0.7406173405571437  0.5992513785546976  0.5012849934309216  1.0000
  C   C7        1.0  0.7593809996057956  0.0992491087036598  0.0012839942486237998  1.0000
  C   C8        1.0  0.2593793789004479  0.4007495114780113  0.49871456200460784  1.0000
  C   C9        1.0  0.1272967848603912  0.9006471574739197  0.11235243300277631  1.0000
  C   C10       1.0  0.6272918836126422  0.5993608686356353  0.3876495298679004  1.0000
  C   C11       1.0  0.8727038477690598  0.0993598153410531  0.8876491600967  1.0000
  C   C12       1.0  0.3727074446261867  0.40064610417934443  0.6123509538400143  1.0000
  C   C13       1.0  0.0617185465099652  0.5431778584354419  0.0727079491376728  1.0000
  C   C14       1.0  0.5617240803871653  0.9568277345612091  0.4272960830854728  1.0000
  C   C15       1.0  0.9382729553851519  0.4568278978230822  0.9272952333338154  1.0000
  C   C16       1.0  0.438280465414138  0.043176805140859614  0.5727042511918016  1.0000
  C   C17       1.0  0.0673378612949236  0.654934384051927  0.021046126038683603  1.0000
  C   C18       1.0  0.5673460039533609  0.8450748586140833  0.4789586850261998  1.0000
  C   C19       1.0  0.9326562493814305  0.34507988810177903  0.9789575794400491  1.0000
  C   C20       1.0  0.4326585418479425  0.15493211420089645  0.5210423533774957  1.0000
  C   C21       1.0  0.0060158495330143  0.6117685279191605  0.9481051374921848  1.0000
  C   C22       1.0  0.5060252965820666  0.8882285491823012  0.5518933794617099  1.0000
  C   C23       1.0  0.9939743479714878  0.3882323621135413  0.0518949726391256  1.0000
  C   C24       1.0  0.493981858000474  0.1117686911810409  0.4481037330447464  1.0000
  C   C25       1.0  0.0656473710532097  0.04727903350678281  0.34613332226090415  1.0000
  C   C26       1.0  0.5656476873679352  0.4527110707796994  0.153863601593514  1.0000
  C   C27       1.0  0.9343532615762413  0.9527121240742815  0.6538639713647143  1.0000
  C   C28       1.0  0.4343529452615158  0.5472788702449094  0.8461330626210142  1.0000
  C   C29       1.0  0.0668878465315075  0.9208505105204452  0.4005013006281146  1.0000
  C   C30       1.0  0.5668842496743736  0.5791477831374721  0.0994984004326511  1.0000
  C   C31       1.0  0.9331140904885655  0.0791479463993454  0.5994981053767674  1.0000
  C   C32       1.0  0.4331137741738402  0.4208494572258702  0.9005003761611405  1.0000
  C   C33       1.0  0.16107267553857693  0.762857540279022  0.3721924906882705  1.0000
  C   C34       1.0  0.6610690786814499  0.7371407533788883  0.1278083197640498  1.0000
  C   C35       1.0  0.8389292614814889  0.23713970008431326  0.6278073952970686  1.0000
  C   C36       1.0  0.3389276407761486  0.2628552704279912  0.8721914915059658  1.0000
  C   C37       1.0  0.0655769339598038  0.6619794624822504  0.3079303581140991  1.0000
  C   C38       1.0  0.5655798590557666  0.8380200477321156  0.19207108174931883  1.0000
  C   C39       1.0  0.93442108988841  0.3380177778810847  0.6920711919585685  1.0000
  C   C40       1.0  0.4344233823549217  0.16197719263121976  0.807929913627575  1.0000
  C   C41       1.0  0.1470648246853656  0.49828814180607855  0.2818758782783561  1.0000
  C   C42       1.0  0.6470677497813284  0.0017165611578633  0.21812471563881533  1.0000
  C   C43       1.0  0.852934503553463  0.5017115316701677  0.7181247118334043  1.0000
  C   C44       1.0  0.3529354916293599  0.998285545431294  0.7818754692078187  1.0000
  N   N1        1.0  0.2173884361062832  0.0379334468202401  0.1144941768546701  1.0000
  N   N2        1.0  0.7173835348585342  0.462073689256613  0.3855065664931416  1.0000
  N   N3        1.0  0.7826148053044051  0.962069876325373  0.8855071920988352  1.0000
  N   N4        1.0  0.2826131845990645  0.5379308504454559  0.614492658392578  1.0000
  N   N5        1.0  0.1385588934614361  0.8125563045746065  0.04286384034847401  1.0000
  N   N6        1.0  0.6385605141667838  0.687441989083311  0.45713752479962727  1.0000
  N   N7        1.0  0.8614365216055404  0.1874385026758247  0.9571375602935532  1.0000
  N   N8        1.0  0.3614453360251417  0.3125576843929352  0.5428625106163594  1.0000
  O   O1        1.0  0.2986284926143057  0.4641856312623177  0.3024152648540834  1.0000
  O   O2        1.0  0.7986314177102685  0.0358178551451687  0.1975824808688742  1.0000
  O   O3        1.0  0.7013734444057604  0.5358164753268397  0.6975827012094342  1.0000
  O   O4        1.0  0.2013731280910349  0.9641793852181664  0.8024151863333557  1.0000
  O   O5        1.0  0.058426264588604185  0.3951083391966393  0.23616396791548064  1.0000
  O   O6        1.0  0.5584331028564264  0.10489514721085413  0.26383710598214805  1.0000
  O   O7        1.0  0.9415717592596096  0.6048925508360625  0.7638372516073844  1.0000
  O   O8        1.0  0.4415740517261213  0.8951057428218476  0.7361618947576076  1.0000
  O   O9        1.0  0.9605023803074386  0.1660903700052359  0.3610749872617731  1.0000
  O   O10       1.0  0.46050467277395046  0.3338985177247906  0.1389224165731022  1.0000
  O   O11       1.0  0.0394956435407749  0.8338995710193731  0.6389227863443028  1.0000
  O   O12       1.0  0.5394972642461153  0.6660902067433627  0.861074727621876  1.0000
  O   O13       1.0  0.1722447811869401  0.025949149183020406  0.2916612952386615  1.0000
  O   O14       1.0  0.672249010673525  0.4740409551034688  0.20833285513686667  1.0000
  O   O15       1.0  0.8277519382706515  0.9740456580674106  0.7083334490540382  1.0000
  O   O16       1.0  0.32775423073716325  0.5259477693646915  0.7916609608834477  1.0000
