data_image0
_chemical_formula_structural       Hg2H16C20I4N8
_chemical_formula_sum              "Hg2 H16 C20 I4 N8"
_cell_length_a       5.4517277271922815
_cell_length_b       8.310239634591472
_cell_length_c       15.969969991775885
_cell_angle_alpha    101.63123870877055
_cell_angle_beta     91.12398007175642
_cell_angle_gamma    91.16727423084994

_space_group_name_H-M_alt    "P 1"
_space_group_IT_number       1

loop_
  _space_group_symop_operation_xyz
  'x, y, z'

loop_
  _atom_site_type_symbol
  _atom_site_label
  _atom_site_symmetry_multiplicity
  _atom_site_fract_x
  _atom_site_fract_y
  _atom_site_fract_z
  _atom_site_occupancy
  Hg  Hg1       1.0  0.9225682272548641  0.24871408877932313  0.753117961417253  1.0000
  Hg  Hg2       1.0  0.0774304713579497  0.7512857977544486  0.24688217957935887  1.0000
  H   H1        1.0  0.2737754677425457  0.39482312596224745  0.28963507224515445  1.0000
  H   H2        1.0  0.7262232267295161  0.6051767637413974  0.7103663214049124  1.0000
  H   H3        1.0  0.7121967919828904  0.3724284760704536  0.9515808076536276  1.0000
  H   H4        1.0  0.2878000700026746  0.6275714140268815  0.04841994686444911  1.0000
  H   H5        1.0  0.5196503950800279  0.8724962555783052  0.38762586707431995  1.0000
  H   H6        1.0  0.48034835414772914  0.12750485830983396  0.6123737760449119  1.0000
  H   H7        1.0  0.8580846706610502  0.777396262815671  0.47322596816573553  1.0000
  H   H8        1.0  0.1419139814775789  0.22260239319385994  0.5267734180548163  1.0000
  H   H9        1.0  0.5923054651261026  0.2797500210802681  0.3768567212000421  1.0000
  H   H10       1.0  0.407693233486718  0.7202498654535034  0.6231434197965771  1.0000
  H   H11       1.0  0.16146261115826377  0.8911906891836523  0.8513206312307063  1.0000
  H   H12       1.0  0.838534206423482  0.10880796880450559  0.1486787421845861  1.0000
  H   H13       1.0  0.6137598560724769  0.6963759024947436  0.9494436523304091  1.0000
  H   H14       1.0  0.3862405779377127  0.3036215257667294  0.05055687089951281  1.0000
  H   H15       1.0  0.5018756192335161  0.9716562084802404  0.7627035000695133  1.0000
  H   H16       1.0  0.4981250110253086  0.0283461339535194  0.23729691063103794  1.0000
  C   C1        1.0  0.4052739828719822  0.47506938115136427  0.33189202573260007  1.0000
  C   C2        1.0  0.5947247136704589  0.5249305069673441  0.6681087415907359  1.0000
  C   C3        1.0  0.5864639678536748  0.26678073002138086  0.9322429598631461  1.0000
  C   C4        1.0  0.41353651470107866  0.7332179271793964  0.06775769181611224  1.0000
  C   C5        1.0  0.5442352796421445  0.741885486629812  0.3862611324179782  1.0000
  C   C6        1.0  0.45576346958561237  0.25811562725832715  0.6137385107012536  1.0000
  C   C7        1.0  0.7306620066109559  0.6895713200757143  0.43409146233057794  1.0000
  C   C8        1.0  0.2693366920018576  0.31042856645805733  0.5659086786660341  1.0000
  C   C9        1.0  0.5817405299807489  0.41142132163483325  0.3795166052066393  1.0000
  C   C10       1.0  0.41825816863207177  0.5885785648989384  0.6204835357899727  1.0000
  C   C11       1.0  0.7483439713391035  0.5203276023404513  0.4312135968513786  1.0000
  C   C12       1.0  0.2516547272737101  0.47967228419332036  0.5687865441452332  1.0000
  C   C13       1.0  0.25151705588208983  0.0925105185888953  0.9577553868574359  1.0000
  C   C14       1.0  0.7484797596292836  0.9074881409841921  0.0422446128845877  1.0000
  C   C15       1.0  0.2807902519876251  0.9977509422746066  0.8755040540734457  1.0000
  C   C16       1.0  0.7192102811820719  0.0022489422805378  0.12449609972842524  1.0000
  C   C17       1.0  0.4074273656830201  0.22915260863769052  0.9867673285169333  1.0000
  C   C18       1.0  0.5925731189421128  0.77084604697815  0.013232696835601099  1.0000
  C   C19       1.0  0.46780976883373876  0.042737462224266706  0.8265677672777516  1.0000
  C   C20       1.0  0.5321889762532663  0.9572636548337456  0.17343312849492787  1.0000
  I   I1        1.0  0.9544880909592308  0.9455527825666294  0.652569811811013  1.0000
  I   I2        1.0  0.045519928142042  0.05445077930699681  0.347430152233173  1.0000
  I   I3        1.0  0.1128837065887041  0.5304813537607489  0.8469931486441599  1.0000
  I   I4        1.0  0.887116877195929  0.46951975814877045  0.15300650728032394  1.0000
  N   N1        1.0  0.38595305757341686  0.6371188971222991  0.3358649534094766  1.0000
  N   N2        1.0  0.614043804412141  0.3628809929750361  0.6641358011086071  1.0000
  N   N3        1.0  0.6168674971106114  0.17451169138296047  0.8541138458814717  1.0000
  N   N4        1.0  0.3831311973614505  0.8254881983206841  0.14588754776858792  1.0000
  N   N5        1.0  0.9227410452646796  0.4490849404797999  0.4788314618257347  1.0000
  N   N6        1.0  0.077259534379202  0.5509161745995925  0.5211694467522038  1.0000
  N   N7        1.0  0.07640447689066582  0.056598635053290984  0.0161443557716083  1.0000
  N   N8        1.0  0.9235942237925273  0.943401249895544  0.9838551588982869  1.0000
