data_image0
_chemical_formula_structural       Tm2H54C42N2O16
_chemical_formula_sum              "Tm2 H54 C42 N2 O16"
_cell_length_a       9.9125990486967
_cell_length_b       12.541174260432639
_cell_length_c       13.077086511719786
_cell_angle_alpha    72.62922324463793
_cell_angle_beta     80.55369246193294
_cell_angle_gamma    79.82137656066509

_space_group_name_H-M_alt    "P 1"
_space_group_IT_number       1

loop_
  _space_group_symop_operation_xyz
  'x, y, z'

loop_
  _atom_site_type_symbol
  _atom_site_label
  _atom_site_symmetry_multiplicity
  _atom_site_fract_x
  _atom_site_fract_y
  _atom_site_fract_z
  _atom_site_occupancy
  Tm  Tm1       1.0  0.4683147195188653  0.3650145924727184  0.6267790918942068  1.0000
  Tm  Tm2       1.0  0.5316921998080559  0.6349836974884512  0.37322532927192476  1.0000
  H   H1        1.0  0.8367374575266666  0.043844570600853706  0.5024410356039652  1.0000
  H   H2        1.0  0.16323841897053623  0.9561493164628132  0.49756505041292337  1.0000
  H   H3        1.0  0.7485471037007585  0.05065619106807868  0.6303975094114802  1.0000
  H   H4        1.0  0.2514318444768264  0.9493300431982662  0.36960982288857014  1.0000
  H   H5        1.0  0.7333832986944202  0.16989891673214433  0.5175238584873655  1.0000
  H   H6        1.0  0.2666058626354014  0.8300932083125687  0.48248973899640624  1.0000
  H   H7        1.0  0.310739268047719  0.24614207275387665  0.3609627064196701  1.0000
  H   H8        1.0  0.6892575192840553  0.7538532528615458  0.6390184766434998  1.0000
  H   H9        1.0  0.1900358806572413  0.14806112393647203  0.4071259255584252  1.0000
  H   H10       1.0  0.8099656302759612  0.8519366741666161  0.592856281365151  1.0000
  H   H11       1.0  0.3087704956184538  0.14556722977737016  0.29116859326654776  1.0000
  H   H12       1.0  0.6912326265369869  0.8544240570131121  0.7088246152831275  1.0000
  H   H13       1.0  0.703678935992194  0.5615484951726941  0.6657544647536112  1.0000
  H   H14       1.0  0.2963255500369896  0.4384478212060827  0.3342378191129568  1.0000
  H   H15       1.0  0.8356460421746089  0.6049567550853466  0.7149282008209425  1.0000
  H   H16       1.0  0.16435383387295127  0.39504233258720234  0.2850690907628035  1.0000
  H   H17       1.0  0.8113159315755922  0.4615074303587932  0.7536716142772377  1.0000
  H   H18       1.0  0.18868530205602946  0.5384891055001475  0.2463263117507708  1.0000
  H   H19       1.0  0.8160329998267102  0.3496713564025669  0.3975964420273285  1.0000
  H   H20       1.0  0.18397064401808902  0.6503385035450009  0.6023948430117301  1.0000
  H   H21       1.0  0.9915251860157425  0.30303190156970317  0.3608612871489996  1.0000
  H   H22       1.0  0.00847665639872733  0.6969679600226542  0.6391347882990173  1.0000
  H   H23       1.0  0.9088374683575893  0.43198133780025233  0.28361728268495046  1.0000
  H   H24       1.0  0.09116951806671378  0.5680191416966383  0.7163742184589877  1.0000
  H   H25       1.0  0.7375994935641826  0.11308290039671222  0.7843454802565333  1.0000
  H   H26       1.0  0.2623835569803673  0.8869222560870754  0.21567549935897287  1.0000
  H   H27       1.0  0.7839018093524716  0.9648692504258067  0.8121229980094709  1.0000
  H   H28       1.0  0.21609069159615754  0.03514234598206661  0.1878926848637761  1.0000
  H   H29       1.0  0.8360267878127345  0.03743165331169959  0.8922312031118124  1.0000
  H   H30       1.0  0.16396817775429887  0.9625848854211084  0.1077811668038179  1.0000
  H   H31       1.0  0.255164395102355  0.2228136880652372  0.8863003978378214  1.0000
  H   H32       1.0  0.7448420601566569  0.7771986716953097  0.1137227148262523  1.0000
  H   H33       1.0  0.20884693139252167  0.19443974384663684  0.027479610875182848  1.0000
  H   H34       1.0  0.7911649917003202  0.8055775503083211  0.9725421599801648  1.0000
  H   H35       1.0  0.1618474528206661  0.1085586727929382  0.9578010516146448  1.0000
  H   H36       1.0  0.8381594259352025  0.8914579188376307  0.04222224822064652  1.0000
  H   H37       1.0  0.25382653449240417  0.21841096311939617  0.5782139485475424  1.0000
  H   H38       1.0  0.7461847457467667  0.781580175593234  0.4217799484129614  1.0000
  H   H39       1.0  0.9862780929056426  0.18590054915301835  0.8463970953705129  1.0000
  H   H40       1.0  0.013736973759300454  0.8140937592777606  0.1535915928416428  1.0000
  H   H41       1.0  0.8850433521057395  0.285110288582338  0.7493614397538266  1.0000
  H   H42       1.0  0.11497092049036436  0.7148816002516227  0.25063113678953636  1.0000
  H   H43       1.0  0.03378067061399289  0.3242200012737086  0.7852981209927634  1.0000
  H   H44       1.0  0.9662360136756404  0.6757707857419603  0.2146868799193555  1.0000
  H   H45       1.0  0.09759289559747232  0.12009635082630869  0.5774852114831714  1.0000
  H   H46       1.0  0.9024183534338022  0.8798872276393725  0.4225110059357388  1.0000
  H   H47       1.0  0.9239438649650678  0.17835441511722644  0.6146045466514422  1.0000
  H   H48       1.0  0.07607275999721708  0.821627337857713  0.3853908805131922  1.0000
  H   H49       1.0  0.009820613418774786  0.06132519794191182  0.7076231821011519  1.0000
  H   H50       1.0  0.9901967774929119  0.9386575008360509  0.2923764625263841  1.0000
  H   H51       1.0  0.42143491825305546  0.5926135270748248  0.6902570814096974  1.0000
  H   H52       1.0  0.5785345191788238  0.4073928228874166  0.30973517375142023  1.0000
  H   H53       1.0  0.44215751121065233  0.47352329865454823  0.7863610211534607  1.0000
  H   H54       1.0  0.5578250616573398  0.5264768247141022  0.21363018366195516  1.0000
  C   C1        1.0  0.5299800129410952  0.23726521566506886  0.4253056219615701  1.0000
  C   C2        1.0  0.4699935469666342  0.762738028050805  0.5747001436690482  1.0000
  C   C3        1.0  0.5159510954100172  0.1133684125670911  0.4616294888886685  1.0000
  C   C4        1.0  0.4840358554056365  0.8866359744074824  0.5383660539585405  1.0000
  C   C5        1.0  0.6165449474852666  0.037859879246667595  0.5205897352174347  1.0000
  C   C6        1.0  0.38344462339446045  0.96213114926676  0.47941497253582793  1.0000
  C   C7        1.0  0.7397917435279382  0.07786329035670998  0.5436216445553868  1.0000
  C   C8        1.0  0.26019351947719116  0.9221363420440909  0.4563847202783649  1.0000
  C   C9        1.0  0.40011060978681445  0.07695492178702068  0.44011728761567775  1.0000
  C   C10       1.0  0.5998778481221834  0.9230467864441539  0.5598743216895982  1.0000
  C   C11       1.0  0.2971968116435946  0.1585824065520143  0.3720206673126256  1.0000
  C   C12       1.0  0.7027957924046435  0.8414214171759511  0.6279583661758678  1.0000
  C   C13       1.0  0.735021212249478  0.42238930438317374  0.5518054968207196  1.0000
  C   C14       1.0  0.2649850969270203  0.5776154942470981  0.44818857976893867  1.0000
  C   C15       1.0  0.8738821668791984  0.46153725137980217  0.524509842416208  1.0000
  C   C16       1.0  0.12612209031726002  0.5384675948474181  0.4754844427362599  1.0000
  C   C17       1.0  0.909582945097263  0.5202275721927948  0.5902973057544185  1.0000
  C   C18       1.0  0.09042607924735081  0.4797721228102604  0.4096980397237644  1.0000
  C   C19       1.0  0.8102978205042389  0.5386017840601482  0.6857691954607856  1.0000
  C   C20       1.0  0.18970767745524603  0.46139377162326406  0.314227037021432  1.0000
  C   C21       1.0  0.9612280389453572  0.44029400662391527  0.43472287338972376  1.0000
  C   C22       1.0  0.038784500925906705  0.5597105857506364  0.5652682935184075  1.0000
  C   C23       1.0  0.9170207500666759  0.37791108725033234  0.36639238040482514  1.0000
  C   C24       1.0  0.0829839633148879  0.6220911251869339  0.6335988368181446  1.0000
  C   C25       1.0  0.4942181805573896  0.1887159669293368  0.8077490122916942  1.0000
  C   C26       1.0  0.5057771710089226  0.8112896620246416  0.19226742438093677  1.0000
  C   C27       1.0  0.49782878085569127  0.0914908776451568  0.9080439290216233  1.0000
  C   C28       1.0  0.5021700006241333  0.908520470197075  0.09196732150802223  1.0000
  C   C29       1.0  0.6204385237089127  0.0163922194340671  0.9260233033541923  1.0000
  C   C30       1.0  0.3795629448195896  0.9836125509871463  0.07399732185808715  1.0000
  C   C31       1.0  0.7504844229665295  0.0347458744924936  0.8493535694710416  1.0000
  C   C32       1.0  0.2495047572323513  0.9652689947579419  0.15065535063060026  1.0000
  C   C33       1.0  0.3771819397133739  0.0763035007076027  0.9812031579714995  1.0000
  C   C34       1.0  0.6228128107273535  0.9236965495123499  0.018825765310218383  1.0000
  C   C35       1.0  0.2447136113322586  0.15498129789288842  0.9612976728254238  1.0000
  C   C36       1.0  0.7552863595938106  0.8450352276223824  0.03871798233834054  1.0000
  C   C37       1.0  0.19745982681630636  0.2540770422187464  0.6430679579995697  1.0000
  C   C38       1.0  0.8025524576959029  0.7459155887991287  0.35691925154748805  1.0000
  C   C39       1.0  0.9899387601901637  0.255958009601251  0.7720209450135654  1.0000
  C   C40       1.0  0.010071322832722295  0.7440347959433495  0.22797104108250466  1.0000
  C   C41       1.0  0.023939890106319688  0.13987519612084748  0.6436146447309739  1.0000
  C   C42       1.0  0.976075643602222  0.860115720468116  0.356374267117715  1.0000
  N   N1        1.0  0.07661622325214522  0.21789770615631454  0.6850520520902419  1.0000
  N   N2        1.0  0.9233965532218773  0.7820915118647777  0.3149346197623046  1.0000
  O   O1        1.0  0.4715750952290703  0.29518613066024807  0.49065696869826786  1.0000
  O   O2        1.0  0.5284396410966394  0.7048054628875491  0.5093563057434735  1.0000
  O   O3        1.0  0.4369600708678901  0.5054405234778586  0.7093689681031987  1.0000
  O   O4        1.0  0.5630387823908761  0.4945600829419163  0.2906210832988804  1.0000
  O   O5        1.0  0.5956925003919054  0.27881053825738183  0.3351334215372006  1.0000
  O   O6        1.0  0.40425511269314984  0.7212002921267313  0.6648514176826125  1.0000
  O   O7        1.0  0.712596988264707  0.3359368014360413  0.6297649220331605  1.0000
  O   O8        1.0  0.28740920261040503  0.6640756843709567  0.3702314020842792  1.0000
  O   O9        1.0  0.6355260516410793  0.47802754046409035  0.4978240423126508  1.0000
  O   O10       1.0  0.36448071372052465  0.5219746243762274  0.5021669663475095  1.0000
  O   O11       1.0  0.5067213678655023  0.170232480420637  0.715589714335394  1.0000
  O   O12       1.0  0.493281095445127  0.8297647059551638  0.2844331270538871  1.0000
  O   O13       1.0  0.47593496566004484  0.29031725830093086  0.8146334293774657  1.0000
  O   O14       1.0  0.524067194175977  0.709683929883795  0.18538056749204654  1.0000
  O   O15       1.0  0.24744947184319696  0.3234670183592243  0.6736461039965106  1.0000
  O   O16       1.0  0.7525556198803754  0.6765265372998145  0.3263385439543569  1.0000
