data_image0
_chemical_formula_structural       Cu4P4H16C20N4O12
_chemical_formula_sum              "Cu4 P4 H16 C20 N4 O12"
_cell_length_a       4.78480338166171
_cell_length_b       8.937433082968642
_cell_length_c       15.156952784894006
_cell_angle_alpha    106.07574130093127
_cell_angle_beta     89.97336209885454
_cell_angle_gamma    90.05608450972784

_space_group_name_H-M_alt    "P 1"
_space_group_IT_number       1

loop_
  _space_group_symop_operation_xyz
  'x, y, z'

loop_
  _atom_site_type_symbol
  _atom_site_label
  _atom_site_symmetry_multiplicity
  _atom_site_fract_x
  _atom_site_fract_y
  _atom_site_fract_z
  _atom_site_occupancy
  Cu  Cu1       1.0  0.9379365391646743  0.6671652214043107  0.010019606250082828  1.0000
  Cu  Cu2       1.0  0.43914971626917776  0.8331871094429815  0.4897236294767708  1.0000
  Cu  Cu3       1.0  0.062044422929538705  0.3328794939289352  0.989930148796439  1.0000
  Cu  Cu4       1.0  0.5608164879724741  0.16675040226753884  0.5102626037876304  1.0000
  P   P1        1.0  0.4376910832891241  0.5231552582639554  0.8874050248032501  1.0000
  P   P2        1.0  0.9380598977532274  0.9779454135950092  0.6125364498324402  1.0000
  P   P3        1.0  0.5623817648743454  0.47683963131856194  0.11257779232063568  1.0000
  P   P4        1.0  0.06189166634940339  0.021988376369087306  0.3874590468874643  1.0000
  H   H1        1.0  0.6260380929904983  0.2901337463139698  0.712895537716605  1.0000
  H   H2        1.0  0.12673922029350854  0.21033856657379602  0.7871358010327395  1.0000
  H   H3        1.0  0.3742522450305046  0.7099890530020048  0.2870675149285802  1.0000
  H   H4        1.0  0.8728551885128296  0.7898086519317361  0.212825529905615  1.0000
  H   H5        1.0  0.21587590106426546  0.42820710095069353  0.5095481632250198  1.0000
  H   H6        1.0  0.7163501238287254  0.0714228260051115  0.9903487545500551  1.0000
  H   H7        1.0  0.7839920970817362  0.5717662560603217  0.4904540893261212  1.0000
  H   H8        1.0  0.2839253756017541  0.9285244728890589  0.009672776354669618  1.0000
  H   H9        1.0  0.000537369155019  0.6589655939192623  0.6228515484674801  1.0000
  H   H10       1.0  0.5001588825587858  0.8410765566232357  0.8769728325539103  1.0000
  H   H11       1.0  0.9994246686137841  0.3410075453549481  0.3771612171372141  1.0000
  H   H12       1.0  0.49976558471907134  0.1589559692783951  0.12304940669661589  1.0000
  H   H13       1.0  0.089010345705816  0.6935084565766874  0.791597305281911  1.0000
  H   H14       1.0  0.5893192330613815  0.8066470246549075  0.70824526555608  1.0000
  H   H15       1.0  0.9108659748346356  0.30642856805231133  0.20840930584144246  1.0000
  H   H16       1.0  0.41079532707463773  0.19328962157545965  0.2917803982798333  1.0000
  C   C1        1.0  0.3673560205536432  0.49697666838984844  0.766072135352459  1.0000
  C   C2        1.0  0.8679719284607116  0.0033509641507763034  0.7338786989122992  1.0000
  C   C3        1.0  0.6326520067123482  0.5030138416732157  0.23394820887508416  1.0000
  C   C4        1.0  0.1320590543017843  0.9965976356859939  0.26613449420571555  1.0000
  C   C5        1.0  0.483339115787885  0.3743473230281822  0.6976229866251984  1.0000
  C   C6        1.0  0.984038043620636  0.1259654173245721  0.8023881368097816  1.0000
  C   C7        1.0  0.516792326884115  0.6257271001513516  0.30235821795044154  1.0000
  C   C8        1.0  0.015779904033657  0.8741065870440822  0.1975933379393099  1.0000
  C   C9        1.0  0.2553756625621162  0.4533824165333088  0.5827948539606778  1.0000
  C   C10       1.0  0.7557608776622332  0.04653043320488591  0.9171062740424316  1.0000
  C   C11       1.0  0.7446365799062705  0.5466227722640725  0.4171969825382503  1.0000
  C   C12       1.0  0.2442367443244535  0.9534977532746822  0.08290202322578473  1.0000
  C   C13       1.0  0.1342014251173183  0.5790792538038688  0.6463637534369651  1.0000
  C   C14       1.0  0.6341798203231123  0.9209722680420214  0.8534967109593481  1.0000
  C   C15       1.0  0.8658065982500033  0.42090091248208955  0.3536488878923976  1.0000
  C   C16       1.0  0.36571540143830106  0.07907543213699599  0.14652613954645224  1.0000
  C   C17       1.0  0.18682138355816139  0.599517779796294  0.739313863507668  1.0000
  C   C18       1.0  0.6871505373847456  0.9006719757793464  0.7605631024527568  1.0000
  C   C19       1.0  0.8131281097888206  0.4004495348421671  0.26069790939723697  1.0000
  C   C20       1.0  0.31290344148844446  0.0992916006140661  0.23945990181602633  1.0000
  N   N1        1.0  0.42465618033389047  0.3521854388035806  0.6081079670244234  1.0000
  N   N2        1.0  0.9254013946212468  0.14788428438059503  0.8918993314382532  1.0000
  N   N3        1.0  0.5754815041676977  0.6478574739890276  0.39187116085636114  1.0000
  N   N4        1.0  0.07443745246406759  0.8521888592886029  0.1080836557674516  1.0000
  O   O1        1.0  0.756539417135187  0.5477102777920067  0.8967968918556009  1.0000
  O   O2        1.0  0.256974760991298  0.9546792599270618  0.6024428412517934  1.0000
  O   O3        1.0  0.2435898522877977  0.45225826630618127  0.1031629519736299  1.0000
  O   O4        1.0  0.7429350172356947  0.04524922399889421  0.39752865974465107  1.0000
  O   O5        1.0  0.3450969797292558  0.3715523666448917  0.9077207863920618  1.0000
  O   O6        1.0  0.8450196830407322  0.1296919101942251  0.5925645830068544  1.0000
  O   O7        1.0  0.6550719786967677  0.6284406007474956  0.09229600632465214  1.0000
  O   O8        1.0  0.1549297888391621  0.8702452220724766  0.40743808220788214  1.0000
  O   O9        1.0  0.27631526604924517  0.6708532934113054  0.9386482880929703  1.0000
  O   O10       1.0  0.7767575342477784  0.8299485661556575  0.5613278864879873  1.0000
  O   O11       1.0  0.7239728377183995  0.32918115273047033  0.06139602607412093  1.0000
  O   O12       1.0  0.2230456333356727  0.17001217094906448  0.43871444635619367  1.0000
