data_image0
_chemical_formula_structural       Al2H14C24O10
_chemical_formula_sum              "Al2 H14 C24 O10"
_cell_length_a       6.6419080470865595
_cell_length_b       11.213690392282299
_cell_length_c       11.10702119454494
_cell_angle_alpha    82.39698460977245
_cell_angle_beta     73.54883650987377
_cell_angle_gamma    71.81475094471162

_space_group_name_H-M_alt    "P 1"
_space_group_IT_number       1

loop_
  _space_group_symop_operation_xyz
  'x, y, z'

loop_
  _atom_site_type_symbol
  _atom_site_label
  _atom_site_symmetry_multiplicity
  _atom_site_fract_x
  _atom_site_fract_y
  _atom_site_fract_z
  _atom_site_occupancy
  Al  Al1       1.0  0.49911597173194616  0.5005862141801387  0.5010210851861744  1.0000
  Al  Al2       1.0  0.9953454250974757  0.5047666081512574  0.5044004315612582  1.0000
  H   H1        1.0  0.20949291980632256  0.43699026057349505  0.6529977721198463  1.0000
  H   H2        1.0  0.6995045149794592  0.652715402829145  0.43661117344197464  1.0000
  H   H3        1.0  0.10387866023452122  0.36395801413802087  0.2317992182555741  1.0000
  H   H4        1.0  0.9820631354180305  0.2396223399303565  0.11569513284744912  1.0000
  H   H5        1.0  0.42560186404121225  0.32172175951655657  0.7721495508316069  1.0000
  H   H6        1.0  0.15105469627125245  0.21371264132481124  0.8848900851342378  1.0000
  H   H7        1.0  0.7914898038447902  0.5777201398838586  0.8897700577813056  1.0000
  H   H8        1.0  0.6737444999343294  0.5703391918034627  0.12466033840433972  1.0000
  H   H9        1.0  0.3021792624584805  0.23110119706391435  0.36369417893379824  1.0000
  H   H10       1.0  0.6634919027222279  0.1147395336116546  0.23847907462562296  1.0000
  H   H11       1.0  0.47940353753601495  0.7719287863075196  0.3207958412502877  1.0000
  H   H12       1.0  0.7497225982602201  0.8841304414803447  0.21227860784776462  1.0000
  H   H13       1.0  0.7408249569024148  0.890257939168649  0.5780754805090922  1.0000
  H   H14       1.0  0.6323678413714829  0.12503181468804309  0.5714284061199493  1.0000
  C   C1        1.0  0.8755613170320373  0.2759998275599714  0.4890247373754377  1.0000
  C   C2        1.0  0.6419518445438115  0.4935705611135291  0.7322481501304026  1.0000
  C   C3        1.0  0.13121320912178175  0.732237537779284  0.49306294355950087  1.0000
  C   C4        1.0  0.3613827379149796  0.48834064555629925  0.2760592638388816  1.0000
  C   C5        1.0  0.4327519788438179  0.47683727934926873  0.1367062659859856  1.0000
  C   C6        1.0  0.33916918309592586  0.4153147740306907  0.07046707380170152  1.0000
  C   C7        1.0  0.5996645646543967  0.5286504603320098  0.07173841451146501  1.0000
  C   C8        1.0  0.17546936266183613  0.3547045418610679  0.1315674547983576  1.0000
  C   C9        1.0  0.10688328667603739  0.28552590829399793  0.06592889545260053  1.0000
  C   C10       1.0  0.5788638929975676  0.4756219360854815  0.8720827471833205  1.0000
  C   C11       1.0  0.6686753622639259  0.530794859208605  0.9401053596547869  1.0000
  C   C12       1.0  0.4225989398793785  0.4092924753504192  0.9358517561901323  1.0000
  C   C13       1.0  0.35291144512017064  0.33341154138648227  0.8723229942480373  1.0000
  C   C14       1.0  0.20007601019857188  0.2721471513364762  0.9357684980499671  1.0000
  C   C15       1.0  0.9547931919396787  0.1366659397539749  0.4773109797096995  1.0000
  C   C16       1.0  0.175819809843837  0.07022214332025102  0.41521755311407565  1.0000
  C   C17       1.0  0.8007672735841425  0.07191053136290293  0.5293205047909596  1.0000
  C   C18       1.0  0.3394251190309702  0.13098156971536667  0.3543267955281593  1.0000
  C   C19       1.0  0.5423315540302411  0.0651745315306016  0.2846639994278917  1.0000
  C   C20       1.0  0.07316628324107911  0.8720987853837983  0.47537329074743445  1.0000
  C   C21       1.0  0.8605272562451917  0.940367036503787  0.5310604892015505  1.0000
  C   C22       1.0  0.2322938567451017  0.9356611074278691  0.4089032781059815  1.0000
  C   C23       1.0  0.44086291051355897  0.8719858105893223  0.3325484845383997  1.0000
  C   C24       1.0  0.5918357925347452  0.935146008676334  0.27109697379974307  1.0000
  O   O1        1.0  0.673249220844589  0.3289052208227475  0.4950262527571568  1.0000
  O   O2        1.0  0.8349597815924807  0.5022634804160121  0.6800522684865911  1.0000
  O   O3        1.0  0.9803371552841256  0.6805377732028717  0.5037564345677127  1.0000
  O   O4        1.0  0.5065435145828588  0.49091603899226033  0.32923503081615024  1.0000
  O   O5        1.0  0.3266355356352122  0.6745605561998786  0.4994326279063941  1.0000
  O   O6        1.0  0.16173839718674538  0.49824022186653855  0.3323305415436907  1.0000
  O   O7        1.0  0.01057822123245698  0.332676819608352  0.49551928595105477  1.0000
  O   O8        1.0  0.4961327077673801  0.502043487355074  0.6751512099063817  1.0000
  O   O9        1.0  0.24657958709772732  0.44965019171766585  0.5620431553153082  1.0000
  O   O10       1.0  0.7414399302251904  0.5617933527728171  0.44948956394269873  1.0000
