data_image0
_chemical_formula_structural       Zn2H14C30N4O8
_chemical_formula_sum              "Zn2 H14 C30 N4 O8"
_cell_length_a       9.787319583943844
_cell_length_b       11.023553566584113
_cell_length_c       16.10456599223704
_cell_angle_alpha    92.4499574720565
_cell_angle_beta     89.91795163819553
_cell_angle_gamma    88.9135179477731

_space_group_name_H-M_alt    "P 1"
_space_group_IT_number       1

loop_
  _space_group_symop_operation_xyz
  'x, y, z'

loop_
  _atom_site_type_symbol
  _atom_site_label
  _atom_site_symmetry_multiplicity
  _atom_site_fract_x
  _atom_site_fract_y
  _atom_site_fract_z
  _atom_site_occupancy
  Zn  Zn1       1.0  0.6362591243597464  0.48964445385482963  0.4922744872876875  1.0000
  Zn  Zn2       1.0  0.35218105199178507  0.49640127280227386  0.496505073646496  1.0000
  H   H1        1.0  0.7251340888169793  0.5380485091649448  0.9260768276753806  1.0000
  H   H2        1.0  0.8357022387775643  0.09441368279026822  0.5163360045384877  1.0000
  H   H3        1.0  0.8477865578725315  0.47546034191133674  0.6810817934935115  1.0000
  H   H4        1.0  0.1188454807577131  0.32842347533408406  0.6484948759329824  1.0000
  H   H5        1.0  0.7177106986800652  0.5134271359022761  0.07927503511893258  1.0000
  H   H6        1.0  0.28871512954594897  0.4933633308187524  0.9136982909623724  1.0000
  H   H7        1.0  0.2910643385898055  0.8881663908457471  0.44421667579906204  1.0000
  H   H8        1.0  0.7674364999187021  0.0916221174691287  0.6196851541585601  1.0000
  H   H9        1.0  0.1324891767834657  0.5600608017862144  0.3747369012756891  1.0000
  H   H10       1.0  0.8592229513935195  0.3232431546965203  0.6393193893047737  1.0000
  H   H11       1.0  0.10860487711266129  0.4808625432516038  0.690093893737469  1.0000
  H   H12       1.0  0.281464567615437  0.46879665570099155  0.0667111291470235  1.0000
  H   H13       1.0  0.2954311270961086  0.1136257471199613  0.456175241557247  1.0000
  H   H14       1.0  0.7532236178540473  0.8684587961139201  0.609874270617695  1.0000
  C   C1        1.0  0.5012390067947692  0.2591600442992004  0.5084340239658544  1.0000
  C   C2        1.0  0.6284245377709183  0.5224701579221077  0.9571677484430764  1.0000
  C   C3        1.0  0.4944340157122725  0.47352552174771745  0.16949493713062938  1.0000
  C   C4        1.0  0.5096163228055346  0.5259042754617056  0.8221815937161948  1.0000
  C   C5        1.0  0.5050490711780427  0.5302047985150866  0.7466565384601367  1.0000
  C   C6        1.0  0.4884317388087069  0.46235249616340474  0.24431998185917783  1.0000
  C   C7        1.0  0.6148488427129237  0.05177670142418832  0.5203453580750832  1.0000
  C   C8        1.0  0.5015092534465068  0.1237637223148838  0.5012883075939456  1.0000
  C   C9        1.0  0.38566519431979884  0.060449834924348515  0.4725767017726952  1.0000
  C   C10       1.0  0.3836141619205691  0.9337580118185544  0.465053832180608  1.0000
  C   C11       1.0  0.4987862030360689  0.8619333264454458  0.4845744236245437  1.0000
  C   C12       1.0  0.499466216176323  0.5260336772356524  0.6569758731424286  1.0000
  C   C13       1.0  0.6129529675309869  0.9257007734656642  0.511423490894586  1.0000
  C   C14       1.0  0.7553550100233863  0.9096619647660519  0.5487894758968608  1.0000
  C   C15       1.0  0.7581407269439779  0.054533046056477005  0.5555881974423896  1.0000
  C   C16       1.0  0.0624286981721767  0.4630088382396949  0.5564328776711989  1.0000
  C   C17       1.0  0.07197113869676029  0.5312013600140163  0.42688174376880983  1.0000
  C   C18       1.0  0.9284164640191362  0.528668728480298  0.4219110837322475  1.0000
  C   C19       1.0  0.9202351876204633  0.4603677013314425  0.5515262238506226  1.0000
  C   C20       1.0  0.9043081391885651  0.4135446943646742  0.6377276417978803  1.0000
  C   C21       1.0  0.0666008788662396  0.41676594433981523  0.6432136649561924  1.0000
  C   C22       1.0  0.49633740325366926  0.7266544815071471  0.4809772970118971  1.0000
  C   C23       1.0  0.4821513041165346  0.46152992713974333  0.3337000938489538  1.0000
  C   C24       1.0  0.6245901276430247  0.5084314888030407  0.04236387171209799  1.0000
  C   C25       1.0  0.4993733902507599  0.48803958081254  0.0826976911135944  1.0000
  C   C26       1.0  0.37810370528391957  0.4834929740055216  0.03535517069912689  1.0000
  C   C27       1.0  0.38220139193047936  0.4972784997670844  0.9502831205508426  1.0000
  C   C28       1.0  0.5074944212979133  0.516248072497753  0.9095750203701056  1.0000
  C   C29       1.0  0.8674321932418109  0.566103985255971  0.346370568256809  1.0000
  C   C30       1.0  0.8631171461733659  0.8500811047827596  0.4993527471277729  1.0000
  N   N1        1.0  0.1413721229395506  0.49741436041069426  0.49492399267234777  1.0000
  N   N2        1.0  0.8487942712151408  0.49185117550662505  0.48565647631424  1.0000
  N   N3        1.0  0.8297567340468885  0.5969208932381563  0.2817521517690551  1.0000
  N   N4        1.0  0.9538503584017521  0.8052691571881214  0.4614443498914937  1.0000
  O   O1        1.0  0.6160064614585891  0.3098172517541116  0.5212976608895017  1.0000
  O   O2        1.0  0.3864556033011652  0.3137541800111237  0.4999429948892811  1.0000
  O   O3        1.0  0.6128860740112785  0.5345989000303037  0.6186822449600269  1.0000
  O   O4        1.0  0.3818002820406932  0.5124863110253913  0.6243335933756312  1.0000
  O   O5        1.0  0.6116501662013861  0.6714461758772999  0.47339875957101185  1.0000
  O   O6        1.0  0.38044260512737077  0.6778392157238005  0.48789353122653256  1.0000
  O   O7        1.0  0.5943095494504363  0.4418618411605878  0.3715310749897398  1.0000
  O   O8        1.0  0.3656109220745448  0.4822277852748727  0.3672972509408438  1.0000
