data_image0
_chemical_formula_structural       Zn8H114C126N6O38
_chemical_formula_sum              "Zn8 H114 C126 N6 O38"
_cell_length_a       17.89447065177536
_cell_length_b       18.049049854486864
_cell_length_c       18.137074915962025
_cell_angle_alpha    64.8522075637307
_cell_angle_beta     64.72232520865569
_cell_angle_gamma    64.7123137298282

_space_group_name_H-M_alt    "P 1"
_space_group_IT_number       1

loop_
  _space_group_symop_operation_xyz
  'x, y, z'

loop_
  _atom_site_type_symbol
  _atom_site_label
  _atom_site_symmetry_multiplicity
  _atom_site_fract_x
  _atom_site_fract_y
  _atom_site_fract_z
  _atom_site_occupancy
  Zn  Zn1       1.0  0.9400797585692544  0.9794245411714044  0.9578109556651384  1.0000
  Zn  Zn2       1.0  0.110612390069484  0.007570082683081103  0.9445321640293257  1.0000
  Zn  Zn3       1.0  0.9705391464687024  0.9636768149385447  0.12615903831493805  1.0000
  Zn  Zn4       1.0  0.9256804077131232  0.14642456377688257  0.9894686656679853  1.0000
  Zn  Zn5       1.0  0.5362466341124161  0.5732403289638057  0.5549583141518255  1.0000
  Zn  Zn6       1.0  0.3628963854549949  0.5724827902758491  0.5434433676621637  1.0000
  Zn  Zn7       1.0  0.5240569783055945  0.40189329832159615  0.5523291387178871  1.0000
  Zn  Zn8       1.0  0.5345009914494979  0.5619010582345254  0.38317132640201373  1.0000
  H   H1        1.0  0.11662639194159394  0.9081687494804029  0.7206610944415032  1.0000
  H   H2        1.0  0.2090191632079126  0.9296053979260249  0.7133334385052024  1.0000
  H   H3        1.0  0.23311518241776238  0.7896545508165005  0.8365183508958508  1.0000
  H   H4        1.0  0.1544145211312865  0.7662888800579141  0.8218737651581945  1.0000
  H   H5        1.0  0.24459291784074108  0.7846325944645116  0.6650808493993453  1.0000
  H   H6        1.0  0.3419828477876761  0.6451659116098369  0.7914816313327862  1.0000
  H   H7        1.0  0.250868142664089  0.6412997036009929  0.7776339462740866  1.0000
  H   H8        1.0  0.37244206554728954  0.8026524351828713  0.7144364590349427  1.0000
  H   H9        1.0  0.41063736221670405  0.9717521972304156  0.458555969534494  1.0000
  H   H10       1.0  0.48885495835875736  0.8713687460896652  0.450843905528103  1.0000
  H   H11       1.0  0.5623200618552245  0.9758844092899536  0.3998088637190735  1.0000
  H   H12       1.0  0.6353362497429342  0.7744758893592305  0.4820488434768108  1.0000
  H   H13       1.0  0.758549286181754  0.6976085428997862  0.5436014130246888  1.0000
  H   H14       1.0  0.7940967068975268  0.7681311490328541  0.6093606811613128  1.0000
  H   H15       1.0  0.7036232149979752  0.9159739964225722  0.6198162323899081  1.0000
  H   H16       1.0  0.5909043570432785  0.0684270110552774  0.6154207308763587  1.0000
  H   H17       1.0  0.4727805523611579  0.20606178585527596  0.5923706510391186  1.0000
  H   H18       1.0  0.3744750577107965  0.22944164275376266  0.5156182689723748  1.0000
  H   H19       1.0  0.3945782046733512  0.1178967371556539  0.4572208421716652  1.0000
  H   H20       1.0  0.8624307430418409  0.7450744682009616  0.1307378004883402  1.0000
  H   H21       1.0  0.8922245677836212  0.732302173091533  0.21906061382452435  1.0000
  H   H22       1.0  0.7533241912229939  0.856995781341297  0.2516887770886241  1.0000
  H   H23       1.0  0.721483963019672  0.8454355837716035  0.1778284726964756  1.0000
  H   H24       1.0  0.743771964847397  0.6863681682417564  0.2642188082845326  1.0000
  H   H25       1.0  0.6073850582212756  0.8111385886038674  0.3651956831678475  1.0000
  H   H26       1.0  0.5987419465057328  0.7996532932463438  0.27638667454249327  1.0000
  H   H27       1.0  0.766766674627  0.7323820261339334  0.3902159190352564  1.0000
  H   H28       1.0  0.9449496736337719  0.47605754278007584  0.4180214432033936  1.0000
  H   H29       1.0  0.8420879992335202  0.4673022959550864  0.49009280831773305  1.0000
  H   H30       1.0  0.937108327313993  0.41070096447942456  0.5727141118032578  1.0000
  H   H31       1.0  0.7343493595268948  0.5093770131465405  0.6303646016591955  1.0000
  H   H32       1.0  0.6537532448318969  0.5727735266770323  0.7509512459311409  1.0000
  H   H33       1.0  0.7271094026383054  0.6248305278229864  0.7988414662946755  1.0000
  H   H34       1.0  0.8823728843652244  0.6197432692951638  0.7231615030027999  1.0000
  H   H35       1.0  0.04128504726013197  0.604919693432187  0.621685177749427  1.0000
  H   H36       1.0  0.18435426925211829  0.5749405565424651  0.5118006263834476  1.0000
  H   H37       1.0  0.20945199931072972  0.5023802392503214  0.4102034331057284  1.0000
  H   H38       1.0  0.0926404074896823  0.4572339086311459  0.41708086116045007  1.0000
  H   H39       1.0  0.7037079596124727  0.15741810813594975  0.8817080433749851  1.0000
  H   H40       1.0  0.6959852915058418  0.24825729748125977  0.90463768588603  1.0000
  H   H41       1.0  0.8231610677137127  0.27147785102143024  0.7671986719654385  1.0000
  H   H42       1.0  0.8089751797588675  0.19410801317754792  0.7421907331811893  1.0000
  H   H43       1.0  0.6493595328250023  0.284183845736834  0.7618045965453888  1.0000
  H   H44       1.0  0.7782254188117007  0.37860262186401167  0.6203041975476254  1.0000
  H   H45       1.0  0.7617766239658222  0.2885827242516327  0.618381475018218  1.0000
  H   H46       1.0  0.6993832641288477  0.4178878590388778  0.7678918859587256  1.0000
  H   H47       1.0  0.44310414739554455  0.45005223387863685  0.9435812135678177  1.0000
  H   H48       1.0  0.4332986061889698  0.5314532689152642  0.8462904084916688  1.0000
  H   H49       1.0  0.38433693138556163  0.5963734477506366  0.9568600768815898  1.0000
  H   H50       1.0  0.46272997638405383  0.677047381446407  0.755818250754615  1.0000
  H   H51       1.0  0.5216317732293946  0.8016978509046665  0.6836063297702709  1.0000
  H   H52       1.0  0.5863560644594442  0.8353864263946776  0.7570532092576272  1.0000
  H   H53       1.0  0.6006021044453077  0.7406103149768056  0.9016011370630748  1.0000
  H   H54       1.0  0.6042408724746762  0.6212587450565225  0.0478997847732644  1.0000
  H   H55       1.0  0.5905636944037341  0.49633412822097966  0.17810664226208656  1.0000
  H   H56       1.0  0.5198911350338022  0.3950189631733778  0.1949186764679708  1.0000
  H   H57       1.0  0.4552545679043547  0.42144183137176566  0.08583446149108194  1.0000
  H   H58       1.0  0.2772883551660783  0.9009754406499013  0.11099355314454572  1.0000
  H   H59       1.0  0.1854779713345989  0.9172550021647013  0.20128571894197478  1.0000
  H   H60       1.0  0.17827465446588053  0.7680332122205799  0.2248794715828595  1.0000
  H   H61       1.0  0.2845593126918473  0.750234397664137  0.15264415685617638  1.0000
  H   H62       1.0  0.33069594858493184  0.7843159533960956  0.24746430995674723  1.0000
  H   H63       1.0  0.24718558741685112  0.6388056278628368  0.3427960856396625  1.0000
  H   H64       1.0  0.3457444997211068  0.63354762344418  0.25595366319794277  1.0000
  H   H65       1.0  0.1571930647497196  0.781758899062865  0.37240660462476427  1.0000
  H   H66       1.0  0.1731234114406916  0.9893805764403326  0.4161629168022571  1.0000
  H   H67       1.0  0.21494675837386967  0.8929390790469398  0.49077361254225604  1.0000
  H   H68       1.0  0.08452273542959425  0.9778504963402382  0.5702445945666099  1.0000
  H   H69       1.0  0.1558792448468153  0.7801482397184855  0.6358267728043927  1.0000
  H   H70       1.0  0.07923700575892663  0.6704105168888433  0.7345700582505968  1.0000
  H   H71       1.0  0.9277000439079188  0.6984665490699555  0.7455469928621028  1.0000
  H   H72       1.0  0.8515040050171834  0.8325984152700556  0.6537863120416032  1.0000
  H   H73       1.0  0.8037661350261018  0.9810167421285598  0.5410679331453706  1.0000
  H   H74       1.0  0.7808934392406143  0.13003836051849757  0.44503376567821806  1.0000
  H   H75       1.0  0.89540146807974  0.20174692541674233  0.3835357748761791  1.0000
  H   H76       1.0  0.03536144695083719  0.12302611714211048  0.41749564646699616  1.0000
  H   H77       1.0  0.09426492092335079  0.3104805180808867  0.8891256014936744  1.0000
  H   H78       1.0  0.18833835745557073  0.22054249741820095  0.8983331294399833  1.0000
  H   H79       1.0  0.2031562050443938  0.21920870944932605  0.750267358711703  1.0000
  H   H80       1.0  0.12765327230176376  0.3234418248696613  0.7389958201032059  1.0000
  H   H81       1.0  0.22750731011102937  0.36924534323660657  0.7669908506292344  1.0000
  H   H82       1.0  0.3163391073157412  0.29126141730974814  0.6188595219145866  1.0000
  H   H83       1.0  0.22832965921767095  0.38869053713303  0.6190352460817506  1.0000
  H   H84       1.0  0.35257336314051446  0.19701398496160044  0.7614803927011734  1.0000
  H   H85       1.0  0.4007180033618241  0.21474283527588517  0.9646775719526417  1.0000
  H   H86       1.0  0.47720616137366506  0.25476193100922734  0.8688880121297515  1.0000
  H   H87       1.0  0.5567147267809673  0.1272031405349523  0.95381579088901  1.0000
  H   H88       1.0  0.6224384787483925  0.19483956974040242  0.7562447421062474  1.0000
  H   H89       1.0  0.7260122637787063  0.1152934280984752  0.6501812604966021  1.0000
  H   H90       1.0  0.7417292307532433  0.9630107684759112  0.6830478636891824  1.0000
  H   H91       1.0  0.6480183652075765  0.8887663611707238  0.8175565856168137  1.0000
  H   H92       1.0  0.5300294551990135  0.8447512597695237  0.9647374023429409  1.0000
  H   H93       1.0  0.43205324147722013  0.8249201443780904  0.11305880371250514  1.0000
  H   H94       1.0  0.36753351392408  0.9413237377056375  0.1807518632901834  1.0000
  H   H95       1.0  0.4006474998462792  0.08082140528738789  0.09894147982355861  1.0000
  H   H96       1.0  0.872896382043656  0.13228106725580346  0.28779727242937264  1.0000
  H   H97       1.0  0.8842432857190586  0.22339943757844338  0.19644552040445976  1.0000
  H   H98       1.0  0.7310613885468767  0.24434837526357708  0.19902632364279074  1.0000
  H   H99       1.0  0.718944601099011  0.16991813363750197  0.3027925342734647  1.0000
  H   H100      1.0  0.7553420052683534  0.2655947880606462  0.34599704346163673  1.0000
  H   H101      1.0  0.6014474319695963  0.356354850820466  0.27366689922081383  1.0000
  H   H102      1.0  0.6030000590286376  0.2694915100408579  0.37026885060779346  1.0000
  H   H103      1.0  0.7463808163563145  0.3909076733315046  0.1762752093318128  1.0000
  H   H104      1.0  0.9609595392738511  0.43293116603054216  0.1841970733826345  1.0000
  H   H105      1.0  0.8657463677713861  0.5085539186806188  0.22794168292985267  1.0000
  H   H106      1.0  0.9497295741274382  0.5878471267403141  0.09885640752682454  1.0000
  H   H107      1.0  0.7516028799486205  0.6554513698089224  0.17370776396049345  1.0000
  H   H108      1.0  0.6393283203198692  0.7602298268357686  0.10098256305437997  1.0000
  H   H109      1.0  0.6637002783461198  0.7759937125436452  0.951385719707254  1.0000
  H   H110      1.0  0.7953262553073087  0.6823607776727131  0.8729807249754914  1.0000
  H   H111      1.0  0.9423912857465737  0.5666579449735352  0.8228477709734464  1.0000
  H   H112      1.0  0.09296813153605396  0.46981150476955247  0.7954438131852298  1.0000
  H   H113      1.0  0.16953571760128475  0.40527301853448705  0.9053005125515342  1.0000
  H   H114      1.0  0.09390217331009147  0.43554448626662895  0.04549575071892777  1.0000
  C   C1        1.0  0.10701119079611486  0.9351964296534162  0.8292927399197935  1.0000
  C   C2        1.0  0.1589959945631279  0.8973937173476044  0.7558953465232037  1.0000
  C   C3        1.0  0.20304610002606438  0.8009762273912954  0.7892935715275087  1.0000
  C   C4        1.0  0.2723649130639671  0.7655532718745875  0.7163349186941373  1.0000
  C   C5        1.0  0.30642692069258703  0.6667314525501665  0.7459264870390571  1.0000
  C   C6        1.0  0.3637080951652294  0.6331779161934818  0.6698443638275721  1.0000
  C   C7        1.0  0.3643083084812487  0.847992101332629  0.5930735406704456  1.0000
  C   C8        1.0  0.4629914845249061  0.9202763043949389  0.48364447981581543  1.0000
  C   C9        1.0  0.5334027956060864  0.954696194351321  0.4700502405983683  1.0000
  C   C10       1.0  0.6058468139735423  0.8917552766194561  0.5087296530743332  1.0000
  C   C11       1.0  0.652846175132261  0.8075293245895877  0.5076749001780457  1.0000
  C   C12       1.0  0.7211408145540472  0.7636594351003724  0.5437180910588213  1.0000
  C   C13       1.0  0.7406873634546965  0.8035105262270078  0.5817762719006723  1.0000
  C   C14       1.0  0.6908816576868231  0.8863798234235388  0.5868201340520759  1.0000
  C   C15       1.0  0.6231472117884987  0.9306678525415321  0.5503043169127794  1.0000
  C   C16       1.0  0.5602434192225515  0.016188269830038803  0.5472799105746732  1.0000
  C   C17       1.0  0.5488499659125451  0.0788891087347139  0.5803638184711987  1.0000
  C   C18       1.0  0.4818348271577617  0.15578928670191772  0.568254545800606  1.0000
  C   C19       1.0  0.42672676162594303  0.16930845188525015  0.5244042708780158  1.0000
  C   C20       1.0  0.43799628991678924  0.10662109106431931  0.49119278445151326  1.0000
  C   C21       1.0  0.5049743193006221  0.0304272895775313  0.5024641718995325  1.0000
  C   C22       1.0  0.894709688088497  0.8508516134884446  0.12178907001484136  1.0000
  C   C23       1.0  0.8561382460483313  0.7776627592794443  0.17310767100654095  1.0000
  C   C24       1.0  0.7605932935943399  0.8110076601996781  0.22228471770242925  1.0000
  C   C25       1.0  0.726660953608032  0.7372875678068527  0.2916931137087956  1.0000
  C   C26       1.0  0.6272429340258155  0.7665454309679517  0.32925682289960906  1.0000
  C   C27       1.0  0.5947684353132556  0.6894679057765956  0.38555225162757284  1.0000
  C   C28       1.0  0.8161727299103346  0.61257322996466  0.37550089867461633  1.0000
  C   C29       1.0  0.890802966636357  0.49950300366113254  0.46976641322364543  1.0000
  C   C30       1.0  0.9212326218610155  0.4813170511092153  0.5439491740367046  1.0000
  C   C31       1.0  0.8561316592965935  0.5221605573464388  0.6137875010838345  1.0000
  C   C32       1.0  0.7684044446244581  0.5292684561817821  0.6528841259940704  1.0000
  C   C33       1.0  0.7225395673943353  0.566295880177293  0.7198710560407166  1.0000
  C   C34       1.0  0.7640781253165512  0.5964970116206417  0.7465100527801025  1.0000
  C   C35       1.0  0.8509843311555655  0.593029209308078  0.7047702229857509  1.0000
  C   C36       1.0  0.8970146474464754  0.556401957354943  0.6377826755804678  1.0000
  C   C37       1.0  0.9863968388687423  0.5468561174585176  0.5816235247710323  1.0000
  C   C38       1.0  0.05211264029747294  0.5720757555964084  0.5778629257543102  1.0000
  C   C39       1.0  0.13235915676219176  0.5556521055048761  0.5157808816518569  1.0000
  C   C40       1.0  0.14650417761004067  0.5147021799918576  0.4583477364984247  1.0000
  C   C41       1.0  0.08084951427932195  0.489111856392462  0.46214346522977223  1.0000
  C   C42       1.0  0.001008846576659948  0.5053554512069524  0.5237541196172869  1.0000
  C   C43       1.0  0.8121736838413792  0.1459029065291517  0.912326421185732  1.0000
  C   C44       1.0  0.7395815852476203  0.19854760717479536  0.8726328616807633  1.0000
  C   C45       1.0  0.7754696301935055  0.24216326005941366  0.7770771672683948  1.0000
  C   C46       1.0  0.7019604500140346  0.311273005292385  0.7415988865380002  1.0000
  C   C47       1.0  0.7311486487355906  0.3439451723099083  0.6432582287539006  1.0000
  C   C48       1.0  0.6528729793744075  0.4011872345592807  0.6120165946680414  1.0000
  C   C49       1.0  0.5789730151929504  0.4015889678575065  0.8260675075486645  1.0000
  C   C50       1.0  0.4679145561538435  0.5029921501890867  0.8942027332947617  1.0000
  C   C51       1.0  0.45556045072817153  0.5693511781360102  0.9321910075938292  1.0000
  C   C52       1.0  0.49183382605699677  0.643670366110662  0.8721976532710439  1.0000
  C   C53       1.0  0.48852141132237376  0.6933932927659114  0.789698715656655  1.0000
  C   C54       1.0  0.5228593762211843  0.7625928521494317  0.7485819274720527  1.0000
  C   C55       1.0  0.5606186173038096  0.7809328207401551  0.7898600571352007  1.0000
  C   C56       1.0  0.5677153387160556  0.7287299035657285  0.8710171503505181  1.0000
  C   C57       1.0  0.5338561102308005  0.6594781153097672  0.9120817178152338  1.0000
  C   C58       1.0  0.5350400299916487  0.592990971104612  0.9943207981234892  1.0000
  C   C59       1.0  0.5710252502388967  0.5785124151000147  0.055981343783066996  1.0000
  C   C60       1.0  0.5644589531959454  0.5073437147696254  0.12855216164409441  1.0000
  C   C61       1.0  0.5235652844122995  0.4510533796201769  0.13865506340944492  1.0000
  C   C62       1.0  0.4869390500921397  0.46574797783569716  0.07724934823430363  1.0000
  C   C63       1.0  0.4922462363229343  0.5370766696530821  0.0056431222425246  1.0000
  C   C64       1.0  0.15633639726578252  0.9138007163263281  0.1024955282415476  1.0000
  C   C65       1.0  0.2182484008760496  0.8827556247117202  0.15284793623345627  1.0000
  C   C66       1.0  0.23812310321748936  0.7862841486899086  0.1984517654862543  1.0000
  C   C67       1.0  0.27499351596140537  0.7602896338325139  0.27122523950342275  1.0000
  C   C68       1.0  0.30442328648056355  0.6617968541910243  0.30852319879647894  1.0000
  C   C69       1.0  0.3563377674586974  0.6341205793556101  0.3681150743555007  1.0000
  C   C70       1.0  0.22394369304017653  0.855715501465582  0.35993888113511463  1.0000
  C   C71       1.0  0.1602919155097311  0.9297915630416823  0.46406959670724035  1.0000
  C   C72       1.0  0.07444163165857987  0.9489374192378293  0.5336297777183175  1.0000
  C   C73       1.0  0.04470552053454205  0.8705454812854329  0.5936083729696833  1.0000
  C   C74       1.0  0.0886592067507834  0.7932366787608132  0.6413553390885056  1.0000
  C   C75       1.0  0.046105607346198986  0.7310219887796023  0.6957916539803791  1.0000
  C   C76       1.0  0.9607356072213304  0.7463669803555604  0.7009315525496689  1.0000
  C   C77       1.0  0.9174244970183378  0.8222479173919907  0.6503881852218216  1.0000
  C   C78       1.0  0.9598035305668089  0.8844502651335516  0.5962734981504739  1.0000
  C   C79       1.0  0.9309355291333359  0.9692934759452925  0.5379273374177345  1.0000
  C   C80       1.0  0.8537272789027879  0.012131684949110898  0.5162644213778264  1.0000
  C   C81       1.0  0.8416566185298391  0.09579307893771019  0.4610094285292662  1.0000
  C   C82       1.0  0.9062058056327655  0.1360426496746925  0.42613945664914626  1.0000
  C   C83       1.0  0.9847510327603143  0.09188929696364309  0.44575830803020733  1.0000
  C   C84       1.0  0.9968963000428203  0.008889297235981503  0.5014823537704557  1.0000
  C   C85       1.0  0.08599455813335767  0.1913880951477154  0.8993043836052196  1.0000
  C   C86       1.0  0.13622462365953683  0.2535169457373669  0.8678779740051538  1.0000
  C   C87       1.0  0.1771288399152624  0.2770449859161275  0.770882669213158  1.0000
  C   C88       1.0  0.2506493799144351  0.31494467853799785  0.7419270795439985  1.0000
  C   C89       1.0  0.2837274175794349  0.3467370783503653  0.6436686183438668  1.0000
  C   C90       1.0  0.34539022872544217  0.3972492343339482  0.6144462253849384  1.0000
  C   C91       1.0  0.34539279615975715  0.2644996103609287  0.8314667953061985  1.0000
  C   C92       1.0  0.4497105755146578  0.20099254224756888  0.9057960774826981  1.0000
  C   C93       1.0  0.5197132274247095  0.11604577151230437  0.9258444544207833  1.0000
  C   C94       1.0  0.5812928433893063  0.0846824110140574  0.8489191103779066  1.0000
  C   C95       1.0  0.629510532002726  0.1274399573130509  0.7711798761873966  1.0000
  C   C96       1.0  0.686776908187916  0.08318547763136762  0.7111392858442187  1.0000
  C   C97       1.0  0.6942888528727093  0.9972790541482298  0.7290888099568634  1.0000
  C   C98       1.0  0.6426745103075859  0.9552562474166563  0.805102857801643  1.0000
  C   C99       1.0  0.5855490591577278  0.9994072259356629  0.8651101622811053  1.0000
  C   C100      1.0  0.5256409972870909  0.972308573221362  0.9497120348005906  1.0000
  C   C101      1.0  0.5041552918440928  0.8956579735062106  0.9942330399733238  1.0000
  C   C102      1.0  0.4476469252682306  0.8853175648132919  0.0773646275480145  1.0000
  C   C103      1.0  0.4110781433559294  0.951141852707025  0.11544862517259699  1.0000
  C   C104      1.0  0.4302055926483987  0.0291907019033246  0.06956865389143017  1.0000
  C   C105      1.0  0.487258111529016  0.0395700084214923  0.987066052780925  1.0000
  C   C106      1.0  0.8791340238891364  0.1223551830616358  0.17159420426371952  1.0000
  C   C107      1.0  0.8509352869565702  0.17357118011013034  0.2314311575699577  1.0000
  C   C108      1.0  0.7530879679523749  0.21732057829282783  0.2559567805963924  1.0000
  C   C109      1.0  0.7278269820589144  0.2895910884900347  0.2933338190034718  1.0000
  C   C110      1.0  0.6284242176920003  0.32385849338324857  0.3275066417960558  1.0000
  C   C111      1.0  0.60047171209667  0.38507998592613296  0.3774162375835317  1.0000
  C   C112      1.0  0.8231010311295465  0.38008463794271546  0.23928060697391362  1.0000
  C   C113      1.0  0.9004365761130656  0.4821950133232847  0.17355799344054657  1.0000
  C   C114      1.0  0.9187850655007282  0.5524382627213738  0.08928864967812436  1.0000
  C   C115      1.0  0.8388736972214087  0.6146422464377467  0.06219816710465413  1.0000
  C   C116      1.0  0.7625483109327432  0.6629384000244158  0.10740521949090007  1.0000
  C   C117      1.0  0.6991457855939202  0.7207346889659051  0.06703964815506676  1.0000
  C   C118      1.0  0.7123177298086317  0.7284115150803814  0.982618279985864  1.0000
  C   C119      1.0  0.7867907525831868  0.6768977333574283  0.938195824575409  1.0000
  C   C120      1.0  0.8502771803547942  0.6195918014445354  0.978401267900921  1.0000
  C   C121      1.0  0.9348191838302355  0.5602994372016213  0.947867571433079  1.0000
  C   C122      1.0  0.9757158816726558  0.5401381398039292  0.8708246283214577  1.0000
  C   C123      1.0  0.06014329778276552  0.48448365203941535  0.8561910404428232  1.0000
  C   C124      1.0  0.10307111837064296  0.4477141574568718  0.9182279438837214  1.0000
  C   C125      1.0  0.060716921747527366  0.4653859962647076  0.9968375530779809  1.0000
  C   C126      1.0  0.9768841173805355  0.5214136585851463  0.011502372559661545  1.0000
  N   N1        1.0  0.34181321739351483  0.8043276733083573  0.6774969348637115  1.0000
  N   N2        1.0  0.7697335429847525  0.6970307890077692  0.3573488731510467  1.0000
  N   N3        1.0  0.6635039727146008  0.381161136654626  0.7787926702692758  1.0000
  N   N4        1.0  0.21176610655935948  0.7998392519738077  0.33711644834622223  1.0000
  N   N5        1.0  0.3202689455675269  0.252663042749333  0.777205850808727  1.0000
  N   N6        1.0  0.7645527449736914  0.3575552219702515  0.23027045007503244  1.0000
  O   O1        1.0  0.9868420777815174  0.024043376397770495  0.004335903041791753  1.0000
  O   O2        1.0  0.15104884890951803  0.9432564490186762  0.8638484324942868  1.0000
  O   O3        1.0  0.02486621461429192  0.953420313930465  0.8520127448593513  1.0000
  O   O4        1.0  0.32380951287198895  0.6358487999559089  0.6245432780933057  1.0000
  O   O5        1.0  0.44566863377539795  0.6079063798347873  0.655867609024547  1.0000
  O   O6        1.0  0.33247174223343723  0.8569149232883363  0.5405934037407576  1.0000
  O   O7        1.0  0.42840932978957375  0.881489063066354  0.5738927253709463  1.0000
  O   O8        1.0  0.9035446526630648  0.8850890938966031  0.16525983098695482  1.0000
  O   O9        1.0  0.9130497113167165  0.8736287655827439  0.04081812400221458  1.0000
  O   O10       1.0  0.5964795946575946  0.6446400861199706  0.345985123919995  1.0000
  O   O11       1.0  0.5714304363514485  0.6743089435124644  0.466377772651022  1.0000
  O   O12       1.0  0.8253845020792667  0.5618410863466109  0.34144921675061823  1.0000
  O   O13       1.0  0.85201795827907  0.590835384141954  0.4379815388428839  1.0000
  O   O14       1.0  0.8470876353302331  0.1885059529350883  0.922048179077436  1.0000
  O   O15       1.0  0.833987648553993  0.0645578049001472  0.9306800057221949  1.0000
  O   O16       1.0  0.6051277390506439  0.3623784952169585  0.616804024102052  1.0000
  O   O17       1.0  0.6392333770251496  0.48230216541801235  0.586912915028712  1.0000
  O   O18       1.0  0.5269849458292767  0.3646586695284952  0.8433385740021536  1.0000
  O   O19       1.0  0.5590067001630457  0.46995973216046133  0.8529856650056616  1.0000
  O   O20       1.0  0.08528373560300646  0.8950248157538708  0.14296300506082824  1.0000
  O   O21       1.0  0.17915127798730168  0.9566907450720235  0.023971919855782217  1.0000
  O   O22       1.0  0.4371110024582734  0.6244368493690686  0.33367933801202554  1.0000
  O   O23       1.0  0.3148802832182369  0.6245902220651801  0.4474351978845732  1.0000
  O   O24       1.0  0.2878272693143701  0.881250970780961  0.3277556250174669  1.0000
  O   O25       1.0  0.15282821186532658  0.8800874725376245  0.4241306068147851  1.0000
  O   O26       1.0  0.12743603410832796  0.12155585397235312  0.8793202699925332  1.0000
  O   O27       1.0  0.00657242808474477  0.21307811485568356  0.9431629498792163  1.0000
  O   O28       1.0  0.31134741729997717  0.4769760025817433  0.6070927119189734  1.0000
  O   O29       1.0  0.4260659722417372  0.3557327175744334  0.6016317869998957  1.0000
  O   O30       1.0  0.31517615735769766  0.32877873387657525  0.8551825522271486  1.0000
  O   O31       1.0  0.40925459767321115  0.19323239309964177  0.8564757977098196  1.0000
  O   O32       1.0  0.8570276820174456  0.16235248805642039  0.10318935354765571  1.0000
  O   O33       1.0  0.9229928413810169  0.0434814240550097  0.19340239060598932  1.0000
  O   O34       1.0  0.5922875015280553  0.35149920472905194  0.45683244591312894  1.0000
  O   O35       1.0  0.5886879491631871  0.4647906453343893  0.3359924308368676  1.0000
  O   O36       1.0  0.8507295481417501  0.3480893067572595  0.30103191502515597  1.0000
  O   O37       1.0  0.8473892683708967  0.44377230967567277  0.16819618260704047  1.0000
  O   O38       1.0  0.4896734846198853  0.5275732968684962  0.5084370023955105  1.0000
