data_image0
_chemical_formula_structural       Cd2H28C32O14
_chemical_formula_sum              "Cd2 H28 C32 O14"
_cell_length_a       5.971557786298887
_cell_length_b       7.9192313653607425
_cell_length_c       15.289115248176826
_cell_angle_alpha    81.23521883381137
_cell_angle_beta     90.73591916124944
_cell_angle_gamma    86.87108161840962

_space_group_name_H-M_alt    "P 1"
_space_group_IT_number       1

loop_
  _space_group_symop_operation_xyz
  'x, y, z'

loop_
  _atom_site_type_symbol
  _atom_site_label
  _atom_site_symmetry_multiplicity
  _atom_site_fract_x
  _atom_site_fract_y
  _atom_site_fract_z
  _atom_site_occupancy
  Cd  Cd1       1.0  0.22996933613215736  0.06662742309450918  0.0507386920605484  1.0000
  Cd  Cd2       1.0  0.7700128518445268  0.9333806456633769  0.9492511730941402  1.0000
  H   H1        1.0  0.9944285607648381  0.4266713920515031  0.1471985446972042  1.0000
  H   H2        1.0  0.005609503438456897  0.5733343184959238  0.8528172740834847  1.0000
  H   H3        1.0  0.1363284803359335  0.501137531603412  0.2360272980812823  1.0000
  H   H4        1.0  0.8637001504214653  0.49889132968871064  0.7639858101757185  1.0000
  H   H5        1.0  0.45214076782840357  0.7481186108730569  0.2488437553139562  1.0000
  H   H6        1.0  0.5478732062006985  0.25187932299182597  0.7511611896037848  1.0000
  H   H7        1.0  0.2833656709581334  0.6950275390721006  0.3950932492498538  1.0000
  H   H8        1.0  0.7166217204132579  0.30496185936448233  0.6049107307826347  1.0000
  H   H9        1.0  0.8475914643689111  0.34631602886197743  0.48831944148417256  1.0000
  H   H10       1.0  0.1523912934209761  0.6536618930482234  0.5116843231326698  1.0000
  H   H11       1.0  0.006962345843035695  0.39196291772495334  0.3435911307338557  1.0000
  H   H12       1.0  0.993040180495548  0.6080262248676219  0.6564134061505343  1.0000
  H   H13       1.0  0.6959955003631466  0.1337226190269476  0.2613374281819958  1.0000
  H   H14       1.0  0.3039984815317993  0.8662787102533186  0.7386503445167207  1.0000
  H   H15       1.0  0.5671565762613754  0.3169283518554096  0.1925873798465503  1.0000
  H   H16       1.0  0.432829397799324  0.683075968474192  0.8074060731318156  1.0000
  H   H17       1.0  0.03453185891721227  0.920322518972526  0.2453172152689973  1.0000
  H   H18       1.0  0.965479535204544  0.0796710008218753  0.7546750645515273  1.0000
  H   H19       1.0  0.8404182909262731  0.8687093984852652  0.386016123430565  1.0000
  H   H20       1.0  0.1595751668713135  0.13127557904681447  0.6139783958765221  1.0000
  H   H21       1.0  0.3132745355428312  0.17222814522935442  0.5004959579980266  1.0000
  H   H22       1.0  0.6867256682829466  0.8277632827598894  0.4995018409884864  1.0000
  H   H23       1.0  0.49856048997273933  0.22817628275955573  0.3607094096850361  1.0000
  H   H24       1.0  0.5014479832323104  0.7718162347463318  0.6392875680957887  1.0000
  H   H25       1.0  0.4367111587350792  0.34304178569892224  0.9643327738857012  1.0000
  H   H26       1.0  0.5633037678245714  0.6569727434569047  0.035670635441057585  1.0000
  H   H27       1.0  0.29235363410734294  0.4279370830352178  0.035008070161048  1.0000
  H   H28       1.0  0.7076528624105906  0.5720762652754346  0.9649942062398793  1.0000
  C   C1        1.0  0.15134702801410074  0.6675340460626343  0.11610038697195081  1.0000
  C   C2        1.0  0.8486476849617617  0.3324794944727216  0.8839013115714707  1.0000
  C   C3        1.0  0.0237670029854513  0.5404536194857668  0.1779971036315118  1.0000
  C   C4        1.0  0.9762568314527585  0.4595649834020108  0.8220143691410229  1.0000
  C   C5        1.0  0.740320916716712  0.5755173811378496  0.285236064074752  1.0000
  C   C6        1.0  0.2596887923842033  0.42447321765231993  0.7147748272556527  1.0000
  C   C7        1.0  0.5352422782711699  0.6585128681625322  0.3021044868216052  1.0000
  C   C8        1.0  0.4647623522131568  0.34147648616315956  0.6979052505773565  1.0000
  C   C9        1.0  0.4426039819964275  0.6278800855816797  0.3853288113050795  1.0000
  C   C10       1.0  0.5573833558208108  0.37210928241205476  0.614674517350231  1.0000
  C   C11       1.0  0.5499119787034273  0.5155613752579952  0.4557136060765856  1.0000
  C   C12       1.0  0.4500749306806356  0.4844277491929816  0.5442845115613508  1.0000
  C   C13       1.0  0.7555814128063221  0.43492498988484846  0.4372079760011687  1.0000
  C   C14       1.0  0.24440586938153078  0.5650656571166267  0.5627952353396709  1.0000
  C   C15       1.0  0.8496807805282814  0.46170397699489024  0.3535582543579423  1.0000
  C   C16       1.0  0.1503283374017741  0.5382875963745591  0.6464460058862542  1.0000
  C   C17       1.0  0.7173297832092584  0.12247547678322945  0.1237920198587403  1.0000
  C   C18       1.0  0.2826591632470539  0.8775311857283156  0.8761979205991893  1.0000
  C   C19       1.0  0.5897211435800642  0.1761691171308613  0.2019565915458514  1.0000
  C   C20       1.0  0.4102743965429596  0.8238386667069832  0.7980325382091991  1.0000
  C   C21       1.0  0.2781833504540003  0.07844861934606229  0.29234582206874654  1.0000
  C   C22       1.0  0.7218230700842199  0.9215450263201389  0.7076471406373699  1.0000
  C   C23       1.0  0.09132105722256512  0.977988733405624  0.3014177669707223  1.0000
  C   C24       1.0  0.9086788601553337  0.022014327424649614  0.6985815816942066  1.0000
  C   C25       1.0  0.9838558218244629  0.9488153126852765  0.38205616922677876  1.0000
  C   C26       1.0  0.016142487921690908  0.0511786442434072  0.6179401028792456  1.0000
  C   C27       1.0  0.0577130475724843  0.016315400408764398  0.4570368253897925  1.0000
  C   C28       1.0  0.9422869997413271  0.983673317350771  0.5429579513398083  1.0000
  C   C29       1.0  0.24649858122295853  0.11551367033888478  0.4458076740061685  1.0000
  C   C30       1.0  0.7534949176773439  0.8844791943395479  0.5541907010542815  1.0000
  C   C31       1.0  0.355388813157994  0.14803683087893663  0.3650879615904116  1.0000
  C   C32       1.0  0.6446115534054683  0.8519533789882631  0.634911257464921  1.0000
  O   O1        1.0  0.8161227935209185  0.6164977157176637  0.20137726522630567  1.0000
  O   O2        1.0  0.1838996578783281  0.3835053577869941  0.7986310661825299  1.0000
  O   O3        1.0  0.3772551736983304  0.09974093945628229  0.2103455988795346  1.0000
  O   O4        1.0  0.6227261564046742  0.9002584515998604  0.78965030899667  1.0000
  O   O5        1.0  0.0900164850885119  0.8250300993525315  0.11094595559060849  1.0000
  O   O6        1.0  0.9099750948292921  0.17498100767234354  0.8890573013417225  1.0000
  O   O7        1.0  0.3165861880103193  0.604318902592084  0.07856770641742367  1.0000
  O   O8        1.0  0.6834043062978736  0.3957007617299624  0.921426261410332  1.0000
  O   O9        1.0  0.9108074558201764  0.17677609063997582  0.1141643445061504  1.0000
  O   O10       1.0  0.0891699192354167  0.8232321953182479  0.8858281576656566  1.0000
  O   O11       1.0  0.6229814447061486  0.02715276190727419  0.07560264047641851  1.0000
  O   O12       1.0  0.37701777854307045  0.972848593715419  0.9243877062225607  1.0000
  O   O13       1.0  0.2928024323533691  0.33551995823249564  0.9969061762093503  1.0000
  O   O14       1.0  0.7072094188528483  0.6644895489545277  0.003098374758103308  1.0000
