data_image0
_chemical_formula_structural       ZnCrH18C14N4O4
_chemical_formula_sum              "Zn1 Cr1 H18 C14 N4 O4"
_cell_length_a       6.792328937640081
_cell_length_b       9.37946753935829
_cell_length_c       9.37947134345333
_cell_angle_alpha    84.33713937844742
_cell_angle_beta     88.33147761419343
_cell_angle_gamma    88.33137030482433

_space_group_name_H-M_alt    "P 1"
_space_group_IT_number       1

loop_
  _space_group_symop_operation_xyz
  'x, y, z'

loop_
  _atom_site_type_symbol
  _atom_site_label
  _atom_site_symmetry_multiplicity
  _atom_site_fract_x
  _atom_site_fract_y
  _atom_site_fract_z
  _atom_site_occupancy
  Zn  Zn1       1.0  0.5000014296819587  0.8851637048771008  0.11483619846671193  1.0000
  Cr  Cr1       1.0  2.6632855850044203e-06  0.809132068303853  0.19086826918872649  1.0000
  H   H1        1.0  0.296882714113778  0.7094894186191708  0.39726315139839846  1.0000
  H   H2        1.0  0.7031111732751824  0.6027362653855945  0.290513039323649  1.0000
  H   H3        1.0  0.508080434369198  0.671936759686197  0.5038425003481706  1.0000
  H   H4        1.0  0.4919112812270328  0.49615775943109236  0.328062540788693  1.0000
  H   H5        1.0  0.2637980672566371  0.9687256510676148  0.39500960813866476  1.0000
  H   H6        1.0  0.7362020689040065  0.6049901704152701  0.03127695837048351  1.0000
  H   H7        1.0  0.4819754094948011  0.06984256779494297  0.3825670937035426  1.0000
  H   H8        1.0  0.5180248454779175  0.6174322063059066  0.9301562318965394  1.0000
  H   H9        1.0  0.12553275987387025  0.9325480449229531  0.6294611933483267  1.0000
  H   H10       1.0  0.8744685960893506  0.37054281880745077  0.0674573073499118  1.0000
  H   H11       1.0  0.1682956363103898  0.8972962812403508  0.8974026876059967  1.0000
  H   H12       1.0  0.8317060894392297  0.1025986062371018  0.10271137896307181  1.0000
  H   H13       1.0  0.773376119138625  0.90521484797771  0.8514318389996092  1.0000
  H   H14       1.0  0.22662430971410435  0.14856491998298788  0.0947806502881008  1.0000
  H   H15       1.0  0.7585656580201244  0.9427054628389087  0.5816864183834767  1.0000
  H   H16       1.0  0.24143704674676064  0.4183115285903013  0.057291101412857905  1.0000
  H   H17       1.0  0.6744296575634081  0.8576268513108187  0.36215970399581476  1.0000
  H   H18       1.0  0.32556753650623443  0.6378399864905262  0.14237109413832627  1.0000
  C   C1        1.0  0.4590261808014163  0.7086848716330252  0.3948562551324457  1.0000
  C   C2        1.0  0.5409670317000845  0.6051439431531946  0.2913152145531441  1.0000
  C   C3        1.0  0.4199448548578176  0.9661456934369923  0.4233287148670327  1.0000
  C   C4        1.0  0.5800550990763327  0.5766691633556958  0.0338552835500892  1.0000
  C   C5        1.0  0.43864276307715494  0.9442707867136659  0.5840395455383387  1.0000
  C   C6        1.0  0.5613576566241606  0.41596080720408674  0.05572933221680639  1.0000
  C   C7        1.0  0.27196984573036787  0.9292421283984709  0.674626828221072  1.0000
  C   C8        1.0  0.728031540861828  0.32537509684289023  0.0707609781484919  1.0000
  C   C9        1.0  0.29400539876449744  0.9083311742355205  0.8223576554032447  1.0000
  C   C10       1.0  0.7059974027031544  0.17763934015288638  0.0916729236611218  1.0000
  C   C11       1.0  0.6337304138963233  0.9135391680081425  0.7960143760105894  1.0000
  C   C12       1.0  0.3662720888032425  0.20398486857666137  0.0864577451761619  1.0000
  C   C13       1.0  0.623423366658045  0.9351642878340768  0.6477190377162927  1.0000
  C   C14       1.0  0.37657592642669613  0.35228012520639135  0.0648337472341254  1.0000
  N   N1        1.0  0.5235320788506712  0.8548591301188326  0.3479524849212652  1.0000
  N   N2        1.0  0.47646547161465247  0.65204876544977  0.145141035126386  1.0000
  N   N3        1.0  0.47178952853376194  0.9008900746716932  0.8825009234451997  1.0000
  N   N4        1.0  0.5282096241341776  0.11749903112500701  0.0991119483807523  1.0000
  O   O1        1.0  0.19108906112086296  0.9119422256213594  0.13948174551818943  1.0000
  O   O2        1.0  0.8089169278932502  0.860517614027273  0.08805851719428402  1.0000
  O   O3        1.0  0.9403810023433223  0.8289258444825264  0.35955628188862226  1.0000
  O   O4        1.0  0.059624388456605  0.6404428227035835  0.171073122938239  1.0000
