data_image0
_chemical_formula_structural       Zn2H56C36S4N8O20F8
_chemical_formula_sum              "Zn2 H56 C36 S4 N8 O20 F8"
_cell_length_a       8.89665102927715
_cell_length_b       9.651322453
_cell_length_c       16.2216
_cell_angle_alpha    90.0
_cell_angle_beta     105.16055842540446
_cell_angle_gamma    90.0

_space_group_name_H-M_alt    "P 1"
_space_group_IT_number       1

loop_
  _space_group_symop_operation_xyz
  'x, y, z'

loop_
  _atom_site_type_symbol
  _atom_site_label
  _atom_site_symmetry_multiplicity
  _atom_site_fract_x
  _atom_site_fract_y
  _atom_site_fract_z
  _atom_site_occupancy
  Zn  Zn1       1.0  0.4999989119623081  0.0  0.999999689825181  1.0000
  Zn  Zn2       1.0  0.0  0.49999987291896986  0.5  1.0000
  H   H1        1.0  0.2072057910973086  0.9444229062273946  0.0579551140526888  1.0000
  H   H2        1.0  0.2927919563164707  0.44442303330842486  0.442044408739072  1.0000
  H   H3        1.0  0.7927920328273075  0.0555778757379812  0.942044882059669  1.0000
  H   H4        1.0  0.7072058676081454  0.555577748656951  0.5579555873732858  1.0000
  H   H5        1.0  0.0648595304570634  0.9276055217922163  0.2264578306219391  1.0000
  H   H6        1.0  0.4351382169567088  0.42760461274581013  0.27354230863183204  1.0000
  H   H7        1.0  0.9351394580160814  0.0723952601731597  0.7735417160618355  1.0000
  H   H8        1.0  0.564860771516436  0.5723951330921294  0.7264590874379522  1.0000
  H   H9        1.0  0.0142063275347084  0.9317521037963842  0.1124521496796476  1.0000
  H   H10       1.0  0.4857925844275925  0.4317522308774144  0.3875481566075365  1.0000
  H   H11       1.0  0.9857938254869651  0.0682476420415554  0.8875481804995431  1.0000
  H   H12       1.0  0.5142064040455523  0.5682475149605252  0.612453239462248  1.0000
  H   H13       1.0  0.9840644709178151  0.0808189762385894  0.17142870519320755  1.0000
  H   H14       1.0  0.5159334295176379  0.5808198852850026  0.3285705313157479  1.0000
  H   H15       1.0  0.0159345175553298  0.9191797334719068  0.828570841490567  1.0000
  H   H16       1.0  0.4840643944069782  0.4191798605529371  0.6714294647966172  1.0000
  H   H17       1.0  0.3075933681507337  0.07617298080963758  0.3035678325016917  1.0000
  H   H18       1.0  0.1924043792630457  0.5761738898560438  0.1964316902900691  1.0000
  H   H19       1.0  0.6924044557738824  0.9238257289008658  0.6964327800726693  1.0000
  H   H20       1.0  0.807595773758635  0.42382585598189587  0.8035680234271184  1.0000
  H   H21       1.0  0.2280593616493292  0.2249681337012106  0.24268780986170677  1.0000
  H   H22       1.0  0.2719395503129789  0.7249680066201805  0.2573118799634742  1.0000
  H   H23       1.0  0.7719396268238157  0.7750326482641654  0.7573123532840712  1.0000
  H   H24       1.0  0.7280594381601659  0.2750317392177593  0.7426882831823036  1.0000
  H   H25       1.0  0.4119310938227088  0.1562272949994892  0.23622626722035994  1.0000
  H   H26       1.0  0.0880678181395993  0.6562282040458953  0.263773422604821  1.0000
  H   H27       1.0  0.5880678946504362  0.8437724508384505  0.7637745123874141  1.0000
  H   H28       1.0  0.9119311703335455  0.3437715417920444  0.7362261240789536  1.0000
  H   H29       1.0  0.6381947216365944  0.1888590925105191  0.1568115640786516  1.0000
  H   H30       1.0  0.8618043433473872  0.6888579293020527  0.3431878394637168  1.0000
  H   H31       1.0  0.3618042668365504  0.8111416894548569  0.843187982605123  1.0000
  H   H32       1.0  0.1381946451257576  0.311141816535887  0.6568110907580548  1.0000
  H   H33       1.0  0.9694202731352916  0.3447838382983122  0.25437165892405744  1.0000
  H   H34       1.0  0.5305799563972187  0.8447826750898457  0.24562791165172373  1.0000
  H   H35       1.0  0.0305798798863819  0.6552169436670638  0.7456274383311268  1.0000
  H   H36       1.0  0.4694190320759262  0.15521707074809396  0.754371635032051  1.0000
  H   H37       1.0  0.7715809458761456  0.3232002676514441  0.2547334127869831  1.0000
  H   H38       1.0  0.7284192836563719  0.8232001405704139  0.2452661577888051  1.0000
  H   H39       1.0  0.2284192071455351  0.6767994781864956  0.7452663009302115  1.0000
  H   H40       1.0  0.2715808693653017  0.17680064139496207  0.7547335559283896  1.0000
  H   H41       1.0  0.834365250850233  0.4806336149879726  0.21444576720711686  1.0000
  H   H42       1.0  0.6656361432308203  0.9806334879069424  0.2855539704020842  1.0000
  H   H43       1.0  0.1656349021714476  0.5193661308499671  0.7855539465100706  1.0000
  H   H44       1.0  0.3343628452423317  0.0193662579309972  0.7144455762816904  1.0000
  H   H45       1.0  0.921331406079112  0.4632473965897006  0.07918128765764718  1.0000
  H   H46       1.0  0.5786676589048696  0.9632483056361139  0.42081749942272495  1.0000
  H   H47       1.0  0.0786675823940328  0.5367523492482391  0.9208176425641312  1.0000
  H   H48       1.0  0.421332494116804  0.0367524763292693  0.5791815978324664  1.0000
  H   H49       1.0  0.8618148242841741  0.3122204251981415  0.0139591805116552  1.0000
  H   H50       1.0  0.6381842406998147  0.8122213342445477  0.48604022303071304  1.0000
  H   H51       1.0  0.1381841641889707  0.6877782845123618  0.9860403661721193  1.0000
  H   H52       1.0  0.3618159123218661  0.1877794477208283  0.5139594906864744  1.0000
  H   H53       1.0  0.0296773547745346  0.30605546694607  0.1015522607490738  1.0000
  H   H54       1.0  0.4703227217363022  0.8060563759924761  0.3984463631855206  1.0000
  H   H55       1.0  0.9703216336986102  0.6939432427644333  0.8984466694727047  1.0000
  H   H56       1.0  0.5296785958339072  0.19394440597289986  0.6015529011030836  1.0000
  C   C1        1.0  0.6130928780419822  0.6072338820446603  0.030294183919949112  1.0000
  C   C2        1.0  0.8869120096846645  0.1072340091256905  0.4697048218654914  1.0000
  C   C3        1.0  0.3869061104311626  0.3927668999207157  0.9697053627638255  1.0000
  C   C4        1.0  0.1130939660796741  0.8927647005848129  0.5302957270187747  1.0000
  C   C5        1.0  0.6014602027616931  0.5393592458805401  0.9527256526153138  1.0000
  C   C6        1.0  0.8985388622222885  0.03935937296157019  0.547275600313057  1.0000
  C   C7        1.0  0.3985387857114517  0.46064257221227217  0.0472732776064575  1.0000
  C   C8        1.0  0.1014624553479138  0.9606403728763695  0.4527267462855491  1.0000
  C   C9        1.0  0.5083673577090408  0.5648697395148544  0.07618273100956692  1.0000
  C   C10       1.0  0.9916363654690699  0.0648667582135758  0.4238198065144658  1.0000
  C   C11       1.0  0.4916339598611685  0.4351341508328304  0.9238177662030366  1.0000
  C   C12       1.0  0.0083672811982041  0.9351319514969275  0.5761834906129764  1.0000
  C   C13       1.0  0.280447741883485  0.009540661442862598  0.10842187939547192  1.0000
  C   C14       1.0  0.2195523346273518  0.5095426066167121  0.3915761280771192  1.0000
  C   C15       1.0  0.7195512465896599  0.9904590843950771  0.8915752014402969  1.0000
  C   C16       1.0  0.7804478183943218  0.49045921147610727  0.6084223527160688  1.0000
  C   C17       1.0  0.061442745065896504  0.9926038681903292  0.17043685750672213  1.0000
  C   C18       1.0  0.4385550023478757  0.4926039952713595  0.3295626652850387  1.0000
  C   C19       1.0  0.9385550788587196  0.0073958776476104  0.8295637550676389  1.0000
  C   C20       1.0  0.5614439861252691  0.507394714439144  0.6704381143227351  1.0000
  C   C21       1.0  0.2961423624413442  0.12978532279901597  0.2425588692841956  1.0000
  C   C22       1.0  0.2038553849724352  0.6297872679728584  0.2574418864315717  1.0000
  C   C23       1.0  0.7038542969347361  0.8702113146566148  0.7574421927187558  1.0000
  C   C24       1.0  0.7961436035007097  0.3702124778650813  0.7425588931762024  1.0000
  C   C25       1.0  0.7014250486982121  0.2144659459965084  0.10881060768856798  1.0000
  C   C26       1.0  0.7985751808343056  0.7144647827880418  0.39118896288721333  1.0000
  C   C27       1.0  0.2985739397749327  0.7855348359688676  0.8911889389952068  1.0000
  C   C28       1.0  0.2014249721873753  0.2855349630498978  0.6088107508299743  1.0000
  C   C29       1.0  0.8487532479558411  0.36786150470979345  0.2192391587915239  1.0000
  C   C30       1.0  0.6512481461252051  0.8678603415013271  0.280759962355674  1.0000
  C   C31       1.0  0.1512480696143683  0.6321382411281461  0.7807607219590764  1.0000
  C   C32       1.0  0.3487508423479397  0.13214044046404888  0.7192395843281005  1.0000
  C   C33       1.0  0.912176890073674  0.3498888381819967  0.07888848259419487  1.0000
  C   C34       1.0  0.5878221749103076  0.8498887111009665  0.42111030448617737  1.0000
  C   C35       1.0  0.0878209338509421  0.650110907655943  0.9211102805941638  1.0000
  C   C36       1.0  0.4121768135628372  0.1501120708644095  0.5788886257356012  1.0000
  S   S1        1.0  0.7542804128934648  0.7420734344829398  0.07406423936462402  1.0000
  S   S2        1.0  0.7457221457361101  0.2420725254365337  0.42593504881599403  1.0000
  S   S3        1.0  0.24571857557968  0.2579263113549999  0.925935923781154  1.0000
  S   S4        1.0  0.2542826654796926  0.7579251481465332  0.5740665659588586  1.0000
  N   N1        1.0  0.2168855184904146  0.0413580627881629  0.17194891080066552  1.0000
  N   N2        1.0  0.2831145580204222  0.5413568995796965  0.3280509460579282  1.0000
  N   N3        1.0  0.783114634531259  0.9586427191772131  0.8280514193785251  1.0000
  N   N4        1.0  0.7168844304527227  0.4586428462582433  0.6719486006258464  1.0000
  N   N5        1.0  0.8147507599356345  0.3076231277587382  0.13392985398409962  1.0000
  N   N6        1.0  0.6852494695968829  0.8076219645502718  0.3660697165916886  1.0000
  N   N7        1.0  0.1852482285375103  0.6923776542066378  0.8660696926996752  1.0000
  N   N8        1.0  0.3147506834247977  0.1923777812876679  0.633929997125506  1.0000
  O   O1        1.0  0.6574691643800179  0.8623066984372798  0.083509038406639  1.0000
  O   O2        1.0  0.8425310651524995  0.36230682551830984  0.41648991570714605  1.0000
  O   O3        1.0  0.3425274949960695  0.1376930474006599  0.9164914071343091  1.0000
  O   O4        1.0  0.1574737460633031  0.6376908480647571  0.5835110826057105  1.0000
  O   O5        1.0  0.8401693607307905  0.6880404247540071  0.15699671122241202  1.0000
  O   O6        1.0  0.6598320333502556  0.1880395157076009  0.34300302638678193  1.0000
  O   O7        1.0  0.1598284631938185  0.3119593210839327  0.8430026684279428  1.0000
  O   O8        1.0  0.3401704487684896  0.8119591940029025  0.656999487245244  1.0000
  O   O9        1.0  0.846556909425594  0.7627752606806408  0.013368578215221315  1.0000
  O   O10       1.0  0.6534433201069163  0.2627743516342349  0.4866309923605669  1.0000
  O   O11       1.0  0.1534397499504863  0.23722759353960746  0.9866306344017275  1.0000
  O   O12       1.0  0.3465614911088863  0.7372253942037048  0.513371855338292  1.0000
  O   O13       1.0  0.4140668758293202  0.04745981726655659  0.10526257148848832  1.0000
  O   O14       1.0  0.0859320361329878  0.5474596901855264  0.3947371183366926  1.0000
  O   O15       1.0  0.5859309480952959  0.9525420008262555  0.8947368081618663  1.0000
  O   O16       1.0  0.914066952340157  0.4525410917798495  0.6052630448090852  1.0000
  O   O17       1.0  0.666681907812027  0.1586777363887535  0.035974593227344094  1.0000
  O   O18       1.0  0.8333183217204907  0.6586786454351595  0.4640249773484372  1.0000
  O   O19       1.0  0.3333170806611179  0.8413220094491861  0.9640249534564305  1.0000
  O   O20       1.0  0.1666829958497189  0.3413231726576527  0.5359742869401671  1.0000
  F   F1        1.0  0.6964850338279549  0.5703891903734756  0.9022980621999253  1.0000
  F   F2        1.0  0.8035140311560269  0.0703882813270695  0.5977001084184437  1.0000
  F   F3        1.0  0.3035116255481256  0.42961159159190027  0.09770053395501321  1.0000
  F   F4        1.0  0.19648845096271125  0.929607320001125  0.4022999393655766  1.0000
  F   F5        1.0  0.5099336754837935  0.6255028810195354  0.15165767452531043  1.0000
  F   F6        1.0  0.9900723767913816  0.125504044228002  0.34834273121754933  1.0000
  F   F7        1.0  0.49006531298935124  0.37449686481840416  0.8483418721584641  1.0000
  F   F8        1.0  0.0099335989729568  0.8744957016099376  0.6516578176667168  1.0000
