data_image0
_chemical_formula_structural       Cu12H48C72N36
_chemical_formula_sum              "Cu12 H48 C72 N36"
_cell_length_a       27.051141456006114
_cell_length_b       27.264436757895393
_cell_length_c       27.503604978290383
_cell_angle_alpha    90.70245454738829
_cell_angle_beta     92.04612106164846
_cell_angle_gamma    95.48104122865404

_space_group_name_H-M_alt    "P 1"
_space_group_IT_number       1

loop_
  _space_group_symop_operation_xyz
  'x, y, z'

loop_
  _atom_site_type_symbol
  _atom_site_label
  _atom_site_symmetry_multiplicity
  _atom_site_fract_x
  _atom_site_fract_y
  _atom_site_fract_z
  _atom_site_occupancy
  Cu  Cu1       1.0  0.34156368769911444  0.3829788023453488  0.4243546345830539  1.0000
  Cu  Cu2       1.0  0.39639453848722167  0.30935693647614926  0.35875199287374937  1.0000
  Cu  Cu3       1.0  0.36641147735957696  0.4089961405400543  0.3173393361519176  1.0000
  Cu  Cu4       1.0  0.8358188145290056  0.6436832825710184  0.08103333032146048  1.0000
  Cu  Cu5       1.0  0.9347475371896506  0.6886355218393516  0.13510426844771933  1.0000
  Cu  Cu6       1.0  0.8820362220150243  0.5865352284871364  0.1695405687023026  1.0000
  Cu  Cu7       1.0  0.1655856474654627  0.8582104444714459  0.5919152346018706  1.0000
  Cu  Cu8       1.0  0.053239032602917305  0.8388655674797576  0.6120654843001392  1.0000
  Cu  Cu9       1.0  0.1299011500569094  0.8976166317813107  0.6897273389916593  1.0000
  Cu  Cu10      1.0  0.685742288599975  0.13771185832037244  0.9184619819078891  1.0000
  Cu  Cu11      1.0  0.5886667103155928  0.1757541074352743  0.8698239827930936  1.0000
  Cu  Cu12      1.0  0.6288735147581547  0.07802255998834076  0.8298368236219533  1.0000
  H   H1        1.0  0.35854586923646536  0.3353945589602744  0.5285242523326374  1.0000
  H   H2        1.0  0.4033903565124459  0.22171351096147154  0.43265617381022287  1.0000
  H   H3        1.0  0.2831293947895687  0.4811036758381775  0.29168610638235043  1.0000
  H   H4        1.0  0.25719931755305936  0.4539979869094565  0.4440795707636483  1.0000
  H   H5        1.0  0.4597563202946659  0.27307556207956196  0.270589591717453  1.0000
  H   H6        1.0  0.4438487460178066  0.42477121807748114  0.2327875013055802  1.0000
  H   H7        1.0  0.8189951856686476  0.7281733166381343  0.004907705637577898  1.0000
  H   H8        1.0  0.9684183264249311  0.7736131461813328  0.0606705891106571  1.0000
  H   H9        1.0  0.8021786811872217  0.4932226180308419  0.17377858840799834  1.0000
  H   H10       1.0  0.7499649477749128  0.5633572176592452  0.043736419039589705  1.0000
  H   H11       1.0  0.015094123081873117  0.7109433106597933  0.22155824612556782  1.0000
  H   H12       1.0  0.9563797690921869  0.5626985907239329  0.2567548023696986  1.0000
  H   H13       1.0  0.17779915236726399  0.7718434748479124  0.515778738982938  1.0000
  H   H14       1.0  0.017538288765429386  0.7609730049818494  0.525410825710118  1.0000
  H   H15       1.0  0.22289115193849088  0.9757158802872753  0.7217743748147145  1.0000
  H   H16       1.0  0.26032894000123  0.9335793622706985  0.5761164891540603  1.0000
  H   H17       1.0  0.9521943656149144  0.8549836606247964  0.6624339986725192  1.0000
  H   H18       1.0  0.059000667546278876  0.9013668618540219  0.7790116762362446  1.0000
  H   H19       1.0  0.7142283493928686  0.22291445266474597  0.9979438037366181  1.0000
  H   H20       1.0  0.5704188367760421  0.26133454223133157  0.9448123460177202  1.0000
  H   H21       1.0  0.6982305508617654  0.9916407189266747  0.8165129321780357  1.0000
  H   H22       1.0  0.7659180553240714  0.06386548796395887  0.9469521587131171  1.0000
  H   H23       1.0  0.5012747350681436  0.18779933372602634  0.7915080379794264  1.0000
  H   H24       1.0  0.5425552829743195  0.0433237769105617  0.7517015556623363  1.0000
  H   H25       1.0  0.9382479617316262  0.8121872443890154  0.9652107876841359  1.0000
  H   H26       1.0  0.8268023293867799  0.8241290992256932  0.9742654175816412  1.0000
  H   H27       1.0  0.3965568370390499  0.24905019736369371  0.5752940708643877  1.0000
  H   H28       1.0  0.3634139368988513  0.16439903527123073  0.5025426789215716  1.0000
  H   H29       1.0  0.6813795284565884  0.3134455941517514  0.03761593995975691  1.0000
  H   H30       1.0  0.5673809585480214  0.2939346026443487  0.0391720668616884  1.0000
  H   H31       1.0  0.05776142737479969  0.7032763777182678  0.4465666810186377  1.0000
  H   H32       1.0  0.16062766133550346  0.6809200724272981  0.48759249121286535  1.0000
  H   H33       1.0  0.7916263153770017  0.9651540080103445  0.9271161570067578  1.0000
  H   H34       1.0  0.7951120924279563  0.9570924639560513  0.8155517830003518  1.0000
  H   H35       1.0  0.19529779377589307  0.5179896123594785  0.3283129404693811  1.0000
  H   H36       1.0  0.21424405857032983  0.5363651833401163  0.43847970520784685  1.0000
  H   H37       1.0  0.31286992833343413  0.026165597859751692  0.68585338648429  1.0000
  H   H38       1.0  0.3017843155846761  0.02311489737822819  0.5738940056195787  1.0000
  H   H39       1.0  0.7090068482769566  0.4594759279931678  0.06086623319881571  1.0000
  H   H40       1.0  0.6993730551972631  0.4649548079472297  0.1719574207716121  1.0000
  H   H41       1.0  0.912192409708403  0.8934648364223388  0.7509601200193005  1.0000
  H   H42       1.0  0.9823031510568185  0.8624277357494278  0.8333088908975912  1.0000
  H   H43       1.0  0.5052439796076128  0.31005768534556916  0.1784597467644886  1.0000
  H   H44       1.0  0.5386813976261777  0.41748139124967304  0.2093072347291809  1.0000
  H   H45       1.0  0.04753237554044182  0.6734316476386156  0.31528084825015407  1.0000
  H   H46       1.0  0.0523370865389765  0.5623895781940718  0.2966692614805951  1.0000
  H   H47       1.0  0.4515596315340388  0.06861985629721089  0.7085008818585621  1.0000
  H   H48       1.0  0.4593146883070388  0.1814201403522588  0.6981248115633534  1.0000
  C   C1        1.0  0.36898455425642124  0.3129012065215234  0.4984209932700027  1.0000
  C   C2        1.0  0.3827177208094241  0.2644257923537907  0.4985247521561008  1.0000
  C   C3        1.0  0.39059247717972306  0.2543062680948153  0.4492377852547308  1.0000
  C   C4        1.0  0.28323849251939487  0.4692553016463847  0.3292228275026332  1.0000
  C   C5        1.0  0.2525716734226862  0.4813051365009073  0.3669670153512783  1.0000
  C   C6        1.0  0.27063645059368463  0.45629786022013247  0.40739752413014685  1.0000
  C   C7        1.0  0.4498988091508662  0.31059322389056376  0.2673425600680517  1.0000
  C   C8        1.0  0.4670345852879406  0.347465701605003  0.23500143778261426  1.0000
  C   C9        1.0  0.44274409690003563  0.38855362594488685  0.24887931534101432  1.0000
  C   C10       1.0  0.8542926191656334  0.7337918504519293  0.0251686162358027  1.0000
  C   C11       1.0  0.8955750190415582  0.7679326884660326  0.017353817345686195  1.0000
  C   C12       1.0  0.931138048734844  0.7562633561661725  0.05288050513576079  1.0000
  C   C13       1.0  0.7951446696239088  0.517415668672072  0.1437775065857636  1.0000
  C   C14       1.0  0.759183527959557  0.5108648536509293  0.1054503875376938  1.0000
  C   C15       1.0  0.7692417240572166  0.5525790472477468  0.0766104016439542  1.0000
  C   C16       1.0  0.9948063841598153  0.6747511045155861  0.2236652326332376  1.0000
  C   C17       1.0  0.0015590193535359917  0.636699370254348  0.2566179176043804  1.0000
  C   C18       1.0  0.9655681179292869  0.5985489593504453  0.24094584246090286  1.0000
  C   C19       1.0  0.13946789242071125  0.7749491744822802  0.5247272679372301  1.0000
  C   C20       1.0  0.09568285485360659  0.7488905158500073  0.5051320868646414  1.0000
  C   C21       1.0  0.0574631540098736  0.7701452370057069  0.5287892910281329  1.0000
  C   C22       1.0  0.2254953469926803  0.959039809938481  0.6860259103573085  1.0000
  C   C23       1.0  0.2594634536170942  0.9715288326016845  0.6495140892082818  1.0000
  C   C24       1.0  0.24411937887884955  0.9381587082259201  0.6112168618382725  1.0000
  C   C25       1.0  0.9848607779961184  0.8658725244496424  0.6855494730564972  1.0000
  C   C26       1.0  0.9880213380945333  0.8796823367368983  0.7350813017940467  1.0000
  C   C27       1.0  0.03947673191989759  0.8883135893494936  0.745479861477378  1.0000
  C   C28       1.0  0.6789071379915865  0.2261419494139715  0.9788363362869604  1.0000
  C   C29       1.0  0.6428172712551968  0.25873415989088494  0.9877334017770637  1.0000
  C   C30       1.0  0.6049016581483  0.24506492236351812  0.9524008973097509  1.0000
  C   C31       1.0  0.7099640019283411  0.015976083068864  0.8471461812929277  1.0000
  C   C32       1.0  0.7471019401147956  0.011392705737570497  0.8834925661009906  1.0000
  C   C33       1.0  0.7436795082746173  0.0522870928781813  0.9144687560617513  1.0000
  C   C34       1.0  0.5183788532278227  0.15368629403120335  0.7870824804935241  1.0000
  C   C35       1.0  0.5044839882342059  0.11329676862610676  0.7555271965626887  1.0000
  C   C36       1.0  0.5389563414919251  0.07943760516551632  0.7675094275358703  1.0000
  C   C37       1.0  0.8695832509809802  0.8595409745579801  0.9173721447288161  1.0000
  C   C38       1.0  0.835944028216474  0.9122128154095818  0.8647882127753519  1.0000
  C   C39       1.0  0.9077980956595082  0.8800886599384865  0.8470589137283044  1.0000
  C   C40       1.0  0.37976731809192893  0.1499503981148536  0.5779543345871332  1.0000
  C   C41       1.0  0.40861943955074037  0.1314673283486698  0.6534994501099192  1.0000
  C   C42       1.0  0.35293471790772185  0.0770422320122535  0.6121697502832859  1.0000
  C   C43       1.0  0.6084735516425964  0.34935477666927284  0.08568412687914422  1.0000
  C   C44       1.0  0.651063850138918  0.413508262592778  0.127381888400464  1.0000
  C   C45       1.0  0.5753725022685144  0.3817757803405613  0.15245661225998222  1.0000
  C   C46       1.0  0.12549529180635227  0.6395930979831802  0.42653786903831303  1.0000
  C   C47       1.0  0.09327429421974638  0.6016999067420625  0.3566981635231414  1.0000
  C   C48       1.0  0.1576981020140238  0.5710340541575788  0.3979240812462379  1.0000
  C   C49       1.0  0.9011783786076533  0.8041427896951346  0.9794813173478332  1.0000
  C   C50       1.0  0.86389006537253  0.8277860736710634  0.9594954562107604  1.0000
  C   C51       1.0  0.38661354921652696  0.23217641391785543  0.5395608454386007  1.0000
  C   C52       1.0  0.37727123677526453  0.18263136968339203  0.5365715996440984  1.0000
  C   C53       1.0  0.6446817809412123  0.2966859137750076  0.025141072420616705  1.0000
  C   C54       1.0  0.6046875388877593  0.3118905876992102  0.04697515003187651  1.0000
  C   C55       1.0  0.09174176184274069  0.7092252532240834  0.4694529293729773  1.0000
  C   C56       1.0  0.1276869756556991  0.6787447890822449  0.46325117036361263  1.0000
  C   C57       1.0  0.7805920625976199  0.9734535868603583  0.8896744468692362  1.0000
  C   C58       1.0  0.8005523144156326  0.9482556581268182  0.8538592669063763  1.0000
  C   C59       1.0  0.21253975508049897  0.5126606198071286  0.36419478465187893  1.0000
  C   C60       1.0  0.1960741160148771  0.5371907073761902  0.40246397928569894  1.0000
  C   C61       1.0  0.29868414291004797  0.0114116271321834  0.6503636077251542  1.0000
  C   C62       1.0  0.31706074833459746  0.03358540871428059  0.6102119664216374  1.0000
  C   C63       1.0  0.7195187488974994  0.4715245339482265  0.09820553302039771  1.0000
  C   C64       1.0  0.6932866009533073  0.45077351556720646  0.1347178071505013  1.0000
  C   C65       1.0  0.9474109206344963  0.8838426284833786  0.7672072213120487  1.0000
  C   C66       1.0  0.9495052090831065  0.8757232987442833  0.8155716894815301  1.0000
  C   C67       1.0  0.5034162971773383  0.34502540755173067  0.19789841724535515  1.0000
  C   C68       1.0  0.5365997769578001  0.38341934850653553  0.18773790631263415  1.0000
  C   C69       1.0  0.03678288585899743  0.6376998937158619  0.29750233887864413  1.0000
  C   C70       1.0  0.058034269438785174  0.598326127133454  0.31499759306269226  1.0000
  C   C71       1.0  0.4651786780829353  0.10662479191632457  0.7184636185739494  1.0000
  C   C72       1.0  0.4452479709199863  0.1427336911327757  0.6933563373272449  1.0000
  N   N1        1.0  0.3821146550171051  0.293589181974383  0.4221421529519986  1.0000
  N   N2        1.0  0.36805471190434236  0.32988643547570706  0.45263275769235634  1.0000
  N   N3        1.0  0.30889367174840726  0.43148395909977205  0.3945389527133329  1.0000
  N   N4        1.0  0.31708137294832267  0.4399153977966037  0.3460457639993422  1.0000
  N   N5        1.0  0.41358905540726437  0.3769124292316305  0.28642556179976714  1.0000
  N   N6        1.0  0.4185568090225188  0.3286629232681121  0.2984881963911691  1.0000
  N   N7        1.0  0.9122356540984881  0.7186535478054948  0.07992166551566979  1.0000
  N   N8        1.0  0.8647382120589595  0.7041361986251642  0.062124889424943305  1.0000
  N   N9        1.0  0.8076316675144779  0.581967806863396  0.09671203855337752  1.0000
  N   N10       1.0  0.824249164234402  0.5596978643836507  0.1380083864183703  1.0000
  N   N11       1.0  0.9395096577871697  0.6129947294217785  0.2019393804250811  1.0000
  N   N12       1.0  0.9582001534580938  0.6601051339971846  0.1907113979527466  1.0000
  N   N13       1.0  0.07709368058333871  0.8055090040446231  0.5603828517768151  1.0000
  N   N14       1.0  0.12805646235788967  0.8087923002270044  0.5573276194883334  1.0000
  N   N15       1.0  0.20426456979303956  0.9085505696403614  0.6240034207443301  1.0000
  N   N16       1.0  0.19220883482919496  0.9217919273661077  0.6703394078640842  1.0000
  N   N17       1.0  0.0647253907306791  0.8802894144899865  0.7052984863419101  1.0000
  N   N18       1.0  0.030730329824272942  0.8656344809106005  0.6681119298104079  1.0000
  N   N19       1.0  0.617591521668764  0.20743272578106084  0.9248572031959341  1.0000
  N   N20       1.0  0.6632902874823187  0.19510416955404247  0.9417542602097487  1.0000
  N   N21       1.0  0.7077848179321291  0.07927229865286729  0.8975649829991499  1.0000
  N   N22       1.0  0.6863240189071573  0.05624126736223189  0.8561136096671762  1.0000
  N   N23       1.0  0.5711359169293145  0.09848560507523271  0.8028007904543488  1.0000
  N   N24       1.0  0.5578634589026804  0.14436446371173867  0.8154764869406677  1.0000
  N   N25       1.0  0.8329783473966896  0.8885724763561454  0.9076341557104473  1.0000
  N   N26       1.0  0.8702482817195756  0.9060849034786713  0.8315134712900589  1.0000
  N   N27       1.0  0.9097823262278123  0.8570241788900931  0.8900071145900486  1.0000
  N   N28       1.0  0.4064184360008411  0.16564592710761863  0.6185933850373503  1.0000
  N   N29       1.0  0.38112864215634784  0.08748839389312477  0.6529774332212243  1.0000
  N   N30       1.0  0.35399468576451903  0.1052381018034652  0.5720992096166171  1.0000
  N   N31       1.0  0.6495319297066898  0.3817617961798661  0.0893684142113358  1.0000
  N   N32       1.0  0.6152759536667887  0.4149401785318716  0.16016117623298953  1.0000
  N   N33       1.0  0.5700400545722742  0.34816413223453685  0.1157890928542429  1.0000
  N   N34       1.0  0.09210344887241459  0.6391850694240445  0.3889553267961788  1.0000
  N   N35       1.0  0.12534175434503678  0.5667395622926816  0.3592665262468344  1.0000
  N   N36       1.0  0.15857947909395884  0.6059650561695734  0.4331965657268811  1.0000
