data_image0
_chemical_formula_structural       Hg2H28C28I4N8O4
_chemical_formula_sum              "Hg2 H28 C28 I4 N8 O4"
_cell_length_a       5.095671669000432
_cell_length_b       8.625001308502885
_cell_length_c       20.96588660491307
_cell_angle_alpha    99.32322850270991
_cell_angle_beta     90.00004647964532
_cell_angle_gamma    90.00000021890372

_space_group_name_H-M_alt    "P 1"
_space_group_IT_number       1

loop_
  _space_group_symop_operation_xyz
  'x, y, z'

loop_
  _atom_site_type_symbol
  _atom_site_label
  _atom_site_symmetry_multiplicity
  _atom_site_fract_x
  _atom_site_fract_y
  _atom_site_fract_z
  _atom_site_occupancy
  Hg  Hg1       1.0  0.014232937669866899  0.7500001558835194  0.7500001163767962  1.0000
  Hg  Hg2       1.0  0.9857664410186331  0.2499997008760459  0.2499999532135107  1.0000
  H   H1        1.0  0.3588289297032361  0.13032640686011376  0.5195487657746796  1.0000
  H   H2        1.0  0.3588296980591679  0.3696743900224675  0.9804515033222359  1.0000
  H   H3        1.0  0.6411704489853989  0.8696746248401296  0.48045138244459196  1.0000
  H   H4        1.0  0.6411716430791614  0.6303254667371833  0.01954856626827  1.0000
  H   H5        1.0  0.657802450398016  0.781841536773527  0.6242046469282911  1.0000
  H   H6        1.0  0.6578048316187831  0.7181588278627657  0.8757957165066229  1.0000
  H   H7        1.0  0.3421969282904839  0.21815831998603838  0.3757954226620228  1.0000
  H   H8        1.0  0.3421965095204769  0.28184220303854357  0.12420490862476902  1.0000
  H   H9        1.0  0.3343513384632644  0.6456350528805926  0.5458312160560935  1.0000
  H   H10       1.0  0.3343539816295547  0.8543652843852314  0.9541695586118594  1.0000
  H   H11       1.0  0.665646077776195  0.3543648030798821  0.4541693304459358  1.0000
  H   H12       1.0  0.6656473595096983  0.14563574651607789  0.0458310665195327  1.0000
  H   H13       1.0  0.4167665388313467  0.23783810866061825  0.641110870230122  1.0000
  H   H14       1.0  0.4167669015865769  0.26216151804083404  0.8588893320024056  1.0000
  H   H15       1.0  0.5832348023069825  0.7621617480990253  0.35888919936039093  1.0000
  H   H16       1.0  0.5832344395516172  0.7378371637781386  0.1411106589591355  1.0000
  H   H17       1.0  0.7321519773408481  0.39471531230027784  0.7166660307900514  1.0000
  H   H18       1.0  0.7321481624996977  0.10528434110889148  0.7833337585712526  1.0000
  H   H19       1.0  0.2678513262465144  0.6052845452584564  0.2833335618887389  1.0000
  H   H20       1.0  0.26784925373883783  0.8947143407099177  0.21666623238989047  1.0000
  H   H21       1.0  0.9474854519635798  0.37112421441358373  0.5618726581513656  1.0000
  H   H22       1.0  0.9474880401958145  0.1288754558864653  0.9381276518474025  1.0000
  H   H23       1.0  0.0525119642750838  0.6288756423459033  0.4381274114387423  1.0000
  H   H24       1.0  0.0525133009425147  0.8711244008731782  0.06187241774310338  1.0000
  H   H25       1.0  0.14988882078487356  0.3998624928315238  0.49620264184588336  1.0000
  H   H26       1.0  0.1498879997657099  0.1001380143949504  0.0037976503914194  1.0000
  H   H27       1.0  0.8501105579036261  0.6001373639280414  0.5037974277444234  1.0000
  H   H28       1.0  0.85011137892279  0.899861842364615  0.9962024191988873  1.0000
  C   C1        1.0  0.5972844256737275  0.6613378311071542  0.6263254534212024  1.0000
  C   C2        1.0  0.5972848381851108  0.8386637034981846  0.8736749763538896  1.0000
  C   C3        1.0  0.4027169154646018  0.3386620256524893  0.3736746161693105  1.0000
  C   C4        1.0  0.40271846540318273  0.1613373282022152  0.1263251718657799  1.0000
  C   C5        1.0  0.4171196834975391  0.5837117847528931  0.5825898612294722  1.0000
  C   C6        1.0  0.4171222046453238  0.9162885601113473  0.9174104533332113  1.0000
  C   C7        1.0  0.5828796951917495  0.4162880712076599  0.4174106852727562  1.0000
  C   C8        1.0  0.5828791364930055  0.0837112966483033  0.08258961625729459  1.0000
  C   C9        1.0  0.34662652977814895  0.4289264151829357  0.586875153793187  1.0000
  C   C10       1.0  0.3466270718996114  0.07107320575653378  0.913125034196959  1.0000
  C   C11       1.0  0.6533728489104859  0.5710746165173006  0.41312499442608436  1.0000
  C   C12       1.0  0.6533723067887535  0.9289254760623608  0.08687495676438318  1.0000
  C   C13       1.0  0.462157994474623  0.35846514852949707  0.6355116989592844  1.0000
  C   C14       1.0  0.4621583750741252  0.14153565684153346  0.8644885911192475  1.0000
  C   C15       1.0  0.5378413842138768  0.6415347082300683  0.3644883706310225  1.0000
  C   C16       1.0  0.5378410036143747  0.8584641999180318  0.1355114784710594  1.0000
  C   C17       1.0  0.6391337531088652  0.4448210706731714  0.6776875490705621  1.0000
  C   C18       1.0  0.6391320302084366  0.055178574295645405  0.8223126983148958  1.0000
  C   C19       1.0  0.3608656255796348  0.5551787860863939  0.3223125205197447  1.0000
  C   C20       1.0  0.3608673484800633  0.9448212824639204  0.177687371275411  1.0000
  C   C21       1.0  0.14475708865168002  0.3480551366624383  0.5408451988948784  1.0000
  C   C22       1.0  0.14475974707322337  0.15194564263423874  0.9591550267335195  1.0000
  C   C23       1.0  0.8552403275879142  0.6519458942387146  0.45915542623611566  1.0000
  C   C24       1.0  0.8552415940644451  0.8480553898650882  0.04084464457403669  1.0000
  C   C25       1.0  0.9652062857418217  0.08716525225595723  0.509487804546211  1.0000
  C   C26       1.0  0.9652051254449248  0.41283442029870093  0.9905120321385895  1.0000
  C   C27       1.0  0.03479309294654339  0.9128334295629301  0.49051218641513117  1.0000
  C   C28       1.0  0.0347942532437102  0.5871666114015355  0.00948811608068209  1.0000
  I   I1        1.0  0.12363351463564239  0.9823554624316273  0.681259449161999  1.0000
  I   I2        1.0  0.12363374203779641  0.5176448583226616  0.8187408058061293  1.0000
  I   I3        1.0  0.8763678265026869  0.0176443943280162  0.3187406204285068  1.0000
  I   I4        1.0  0.8763675991006679  0.482356173377653  0.1812593424133411  1.0000
  N   N1        1.0  0.7066459448009184  0.5931066579334467  0.6729734806226872  1.0000
  N   N2        1.0  0.7066442399477991  0.9068948864548503  0.8270264944468549  1.0000
  N   N3        1.0  0.2933553963366151  0.406893199625209  0.327026112055897  1.0000
  N   N4        1.0  0.2933531762902106  0.09310614604431323  0.1729731768603031  1.0000
  N   N5        1.0  0.1747060089735939  0.1792903379436197  0.5252513404986061  1.0000
  N   N6        1.0  0.1747067580092292  0.3207092688726051  0.9747488125819573  1.0000
  N   N7        1.0  0.8252933697156948  0.8207095180169403  0.47474920600362225  1.0000
  N   N8        1.0  0.8252945831291001  0.6792905878870387  0.0252512570085486  1.0000
  O   O1        1.0  0.7343495760659238  0.13491467670396426  0.5099702727411568  1.0000
  O   O2        1.0  0.7343484138435414  0.3650861518265245  0.990029595695617  1.0000
  O   O3        1.0  0.2656517650725405  0.8650863549963577  0.4900298754783136  1.0000
  O   O4        1.0  0.2656529272947878  0.6349137049331259  0.009970473894895793  1.0000
