data_image0
_chemical_formula_structural       Cu2P4H36C36N4O12
_chemical_formula_sum              "Cu2 P4 H36 C36 N4 O12"
_cell_length_a       9.924094976827579
_cell_length_b       9.866157865027478
_cell_length_c       11.2884977651246
_cell_angle_alpha    109.69183479910956
_cell_angle_beta     108.52745120612744
_cell_angle_gamma    91.09681607066481

_space_group_name_H-M_alt    "P 1"
_space_group_IT_number       1

loop_
  _space_group_symop_operation_xyz
  'x, y, z'

loop_
  _atom_site_type_symbol
  _atom_site_label
  _atom_site_symmetry_multiplicity
  _atom_site_fract_x
  _atom_site_fract_y
  _atom_site_fract_z
  _atom_site_occupancy
  Cu  Cu1       1.0  0.2492520903461397  0.13039186458231455  0.043166194983100994  1.0000
  Cu  Cu2       1.0  0.7507475461666147  0.8696011833046028  0.9568310273069258  1.0000
  P   P1        1.0  0.31878749107225696  0.41607810616037705  0.3508085190277725  1.0000
  P   P2        1.0  0.6812170090775281  0.5839192998328215  0.6491887018912196  1.0000
  P   P3        1.0  0.06570236161601871  0.9865244044837305  0.1659937952681572  1.0000
  P   P4        1.0  0.9342986436329569  0.013470829016519293  0.8340026905205137  1.0000
  H   H1        1.0  0.0978389468602288  0.22241541062273734  0.2170376124131863  1.0000
  H   H2        1.0  0.9021620552156902  0.7775798367458789  0.7829571048995804  1.0000
  H   H3        1.0  0.5251457654639609  0.5538261849344436  0.4130413535028198  1.0000
  H   H4        1.0  0.4748567617448458  0.44617232853234856  0.5869538806853855  1.0000
  H   H5        1.0  0.1834687390942307  0.2888574739476225  0.8498934723866115  1.0000
  H   H6        1.0  0.8165251690664447  0.7111475363977602  0.15010840726647243  1.0000
  H   H7        1.0  0.3296591047749331  0.39712828625422947  0.7470164244072849  1.0000
  H   H8        1.0  0.6703349581958803  0.6028778115101827  0.2529858243846377  1.0000
  H   H9        1.0  0.5935212918772378  0.39637419448638406  0.8219112956680308  1.0000
  H   H10       1.0  0.406472303490105  0.6036286548893058  0.17808807723147166  1.0000
  H   H11       1.0  0.7058521208458118  0.2838599139235427  0.9944886652809047  1.0000
  H   H12       1.0  0.29414253363748344  0.7161429462274141  0.005509232839564453  1.0000
  H   H13       1.0  0.782551284183299  0.19222164544904521  0.14689562860456107  1.0000
  H   H14       1.0  0.21744596089498452  0.8077844638386222  0.8531048485641008  1.0000
  H   H15       1.0  0.8449604374756347  0.08686286529961508  0.32294443297514874  1.0000
  H   H16       1.0  0.15503846299069585  0.9131399963473258  0.6770528714568655  1.0000
  H   H17       1.0  0.6485019898790512  0.9965070402697902  0.38608939228458883  1.0000
  H   H18       1.0  0.3515025395853186  0.0034979460787880967  0.6139145400991667  1.0000
  H   H19       1.0  0.3929488093952074  0.015612969315988295  0.2621122989701234  1.0000
  H   H20       1.0  0.607053732092389  0.9843854817431461  0.7378908933596193  1.0000
  H   H21       1.0  0.20085208192938347  0.852832218241481  0.29574584480155147  1.0000
  H   H22       1.0  0.7991468328157366  0.14717058099779476  0.7042594177720148  1.0000
  H   H23       1.0  0.2616378018287903  0.04450930002267478  0.3692843795105603  1.0000
  H   H24       1.0  0.7383536753066338  0.9554935278024812  0.6307179429470154  1.0000
  H   H25       1.0  0.99846298275839  0.75357890626168  0.34332368755067216  1.0000
  H   H26       1.0  0.0015321242925807966  0.24641955951496183  0.6566783331389914  1.0000
  H   H27       1.0  0.8528202304940534  0.7870157023932831  0.49066728186722486  1.0000
  H   H28       1.0  0.1471760936560784  0.21298384770928885  0.5093354016581415  1.0000
  H   H29       1.0  0.3146823374242301  0.6552871165754011  0.4972852738850762  1.0000
  H   H30       1.0  0.6853264118816469  0.3447102770454008  0.5027131218213583  1.0000
  H   H31       1.0  0.19112746227734326  0.6147574722635479  0.3321836713831202  1.0000
  H   H32       1.0  0.8088796348135574  0.3852431551296219  0.6678196655358521  1.0000
  H   H33       1.0  0.2519416692532417  0.5642047299995523  0.6556613931799403  1.0000
  H   H34       1.0  0.7480683034979165  0.43579372021044094  0.3443412023139914  1.0000
  H   H35       1.0  0.05691204815445867  0.5065566299508074  0.732770474643246  1.0000
  H   H36       1.0  0.9430970171178146  0.4934429107713141  0.26723219629266737  1.0000
  C   C1        1.0  0.2995964874038108  0.294009517555601  0.8792352093945582  1.0000
  C   C2        1.0  0.7003972675332689  0.705994398436573  0.1207671853576357  1.0000
  C   C3        1.0  0.3813072074037152  0.35245305582536435  0.8233825034314748  1.0000
  C   C4        1.0  0.6186885157147372  0.6475497734957684  0.17661922533765304  1.0000
  C   C5        1.0  0.5292675304256633  0.3503834245505856  0.8652502499562118  1.0000
  C   C6        1.0  0.47072712881723777  0.6496194147978256  0.13475030087810314  1.0000
  C   C7        1.0  0.591178508076723  0.29049308585253186  0.9619666275380612  1.0000
  C   C8        1.0  0.40881796612395493  0.7095075724716221  0.03803377241229803  1.0000
  C   C9        1.0  0.5031013392430735  0.2342759873367796  0.014478061858490269  1.0000
  C   C10       1.0  0.4968921013141384  0.7657257746198808  0.9855209419021734  1.0000
  C   C11       1.0  0.5543882059708237  0.1679575694199683  0.11623608626719324  1.0000
  C   C12       1.0  0.4456094821559445  0.8320441870984822  0.8837632080429714  1.0000
  C   C13       1.0  0.6977986293042163  0.15593402173193732  0.1758425681867735  1.0000
  C   C14       1.0  0.3021978401368627  0.844066657394769  0.8241551790497326  1.0000
  C   C15       1.0  0.7332245468323748  0.09498467115620457  0.2748201533743427  1.0000
  C   C16       1.0  0.26677526587243244  0.9050170791760548  0.725179728329543  1.0000
  C   C17       1.0  0.6247162149566919  0.04569783690661919  0.3100814452884181  1.0000
  C   C18       1.0  0.3752837541447888  0.9543049939104831  0.689919689792255  1.0000
  C   C19       1.0  0.48327340791632156  0.056911307681630795  0.24345943549239019  1.0000
  C   C20       1.0  0.516727159043775  0.9430882577852839  0.7565408858686312  1.0000
  C   C21       1.0  0.1662628589609482  0.9609734513436472  0.3225099667956071  1.0000
  C   C22       1.0  0.8337314906616768  0.03902721316669748  0.6774898457610236  1.0000
  C   C23       1.0  0.08305522466242364  0.9803510527060192  0.4157089591158538  1.0000
  C   C24       1.0  0.9169363859012095  0.019645247511860496  0.5842914422055473  1.0000
  C   C25       1.0  0.9983083668302086  0.8623165528032785  0.41133046153913716  1.0000
  C   C26       1.0  0.001683398543569594  0.13768083483363108  0.5886703089211025  1.0000
  C   C27       1.0  0.9161355226859983  0.8808114895635626  0.4939264502006253  1.0000
  C   C28       1.0  0.083855490019026  0.11918807600450516  0.5060747648404345  1.0000
  C   C29       1.0  0.23059267045415063  0.5723452181014251  0.41355682094177143  1.0000
  C   C30       1.0  0.7694154841661742  0.42765542700119125  0.5864441569602195  1.0000
  C   C31       1.0  0.11135383979978998  0.5353747922887493  0.4572048394339276  1.0000
  C   C32       1.0  0.8886569054155161  0.46462910195057805  0.5427987175162557  1.0000
  C   C33       1.0  0.14093408238382918  0.5359822241328018  0.5873444097680292  1.0000
  C   C34       1.0  0.8590767946731575  0.46401514943343597  0.41265634180803107  1.0000
  C   C35       1.0  0.03158284583881249  0.5025002186087519  0.6298973476820039  1.0000
  C   C36       1.0  0.968429712747742  0.49750150154049755  0.37010517414627475  1.0000
  N   N1        1.0  0.3594142408318034  0.23629471689059744  0.9719610116210333  1.0000
  N   N2        1.0  0.6405822333688677  0.7637059414335565  0.02803938832932558  1.0000
  N   N3        1.0  0.4494563388439373  0.11636448786349969  0.1493489151854988  1.0000
  N   N4        1.0  0.5505440748925565  0.8836339832501989  0.8506519212746325  1.0000
  O   O1        1.0  0.9320763391570493  0.8718223673233748  0.09586760630585896  1.0000
  O   O2        1.0  0.06792119733264458  0.12817828790767993  0.9041330873413641  1.0000
  O   O3        1.0  0.17014378580061154  0.9769305610192158  0.08922149494684097  1.0000
  O   O4        1.0  0.8298599205031038  0.023053785918342798  0.9107724742408791  1.0000
  O   O5        1.0  0.21353958489058297  0.315506460714701  0.2150887566785826  1.0000
  O   O6        1.0  0.7864609804829783  0.6844931116863929  0.7849106804444901  1.0000
  O   O7        1.0  0.02105492401352649  0.14319246454100204  0.2104217938813946  1.0000
  O   O8        1.0  0.9789450094272352  0.8568028136574454  0.7895690927827133  1.0000
  O   O9        1.0  0.44801917437521865  0.4827515314105922  0.3232140791744769  1.0000
  O   O10       1.0  0.5519835076437262  0.5172480694752223  0.676781524152567  1.0000
  O   O11       1.0  0.3716003298830941  0.3483160323499844  0.4574192888446121  1.0000
  O   O12       1.0  0.6284064528279387  0.6516824410076721  0.5425806570828372  1.0000
