data_image0
_chemical_formula_structural       Cd2H36C38N8Cl4O8
_chemical_formula_sum              "Cd2 H36 C38 N8 Cl4 O8"
_cell_length_a       9.824217292595659
_cell_length_b       10.099651954968454
_cell_length_c       12.072439275192934
_cell_angle_alpha    84.55730148436677
_cell_angle_beta     67.89234093952733
_cell_angle_gamma    71.20124405899404

_space_group_name_H-M_alt    "P 1"
_space_group_IT_number       1

loop_
  _space_group_symop_operation_xyz
  'x, y, z'

loop_
  _atom_site_type_symbol
  _atom_site_label
  _atom_site_symmetry_multiplicity
  _atom_site_fract_x
  _atom_site_fract_y
  _atom_site_fract_z
  _atom_site_occupancy
  Cd  Cd1       1.0  0.5530727911326281  0.026280673095598707  0.8145377140564564  1.0000
  Cd  Cd2       1.0  0.4469258076277854  0.9737226901741919  0.18546439392297737  1.0000
  H   H1        1.0  0.18180224580412133  0.12163119125177246  0.7159427773188369  1.0000
  H   H2        1.0  0.8181978222624268  0.8783711526678031  0.28406062086960293  1.0000
  H   H3        1.0  0.2695104273868054  0.9598626742277857  0.7660896928538605  1.0000
  H   H4        1.0  0.730488897750618  0.0401417447669417  0.2339120977861527  1.0000
  H   H5        1.0  0.49118972949256096  0.733981114017716  0.3635577605246709  1.0000
  H   H6        1.0  0.5088081619009017  0.2660180715122493  0.6364474165256979  1.0000
  H   H7        1.0  0.7749933436072921  0.8794518168497445  0.9682344681165631  1.0000
  H   H8        1.0  0.2250081906538099  0.12054630663811851  0.031765530419505736  1.0000
  H   H9        1.0  0.007476632904278789  0.8150173093270111  0.037636553089448924  1.0000
  H   H10       1.0  0.9925285889648591  0.18497034214816915  0.9623623879085771  1.0000
  H   H11       1.0  0.17472431233840535  0.8588873003274882  0.9425176301180542  1.0000
  H   H12       1.0  0.8252834478365257  0.14110243685902188  0.05747702841763669  1.0000
  H   H13       1.0  0.140707835204772  0.7085533184658174  0.9089912053154947  1.0000
  H   H14       1.0  0.8592933244801916  0.29144264147812743  0.09100329958498309  1.0000
  H   H15       1.0  0.3839479585238904  0.6971023752626592  0.6980529533794596  1.0000
  H   H16       1.0  0.6160462777121295  0.3028978283835215  0.30195326796694394  1.0000
  H   H17       1.0  0.4660989946914852  0.5962452870729534  0.5631528150678734  1.0000
  H   H18       1.0  0.5338967010188327  0.40375386208229713  0.436851389112917  1.0000
  H   H19       1.0  0.2625575362684814  0.6524863200533488  0.6398568449103054  1.0000
  H   H20       1.0  0.7374366975095867  0.3475138748076532  0.3601485495924379  1.0000
  H   H21       1.0  0.34845325697997964  0.21828835930809018  0.38901997322332704  1.0000
  H   H22       1.0  0.6515453503050354  0.7817086545097779  0.6109777160952774  1.0000
  H   H23       1.0  0.2587978783575195  0.24060276410907017  0.547433921479346  1.0000
  H   H24       1.0  0.7412003532006324  0.7593984619723384  0.452565173395456  1.0000
  H   H25       1.0  0.15078587094972562  0.22960700254726865  0.4615689824934677  1.0000
  H   H26       1.0  0.8492116384937203  0.7703899930832422  0.5384282203903511  1.0000
  H   H27       1.0  0.7759679091159768  0.18927804465381118  0.6504650027271524  1.0000
  H   H28       1.0  0.22403033473198525  0.8107232253534774  0.3495382263659224  1.0000
  H   H29       1.0  0.9629313271894231  0.08979643948861592  0.5549076983312987  1.0000
  H   H30       1.0  0.037066185365596076  0.9102037572233922  0.44509419441389764  1.0000
  H   H31       1.0  0.941335259386385  0.22834583093257513  0.6457837462268827  1.0000
  H   H32       1.0  0.05866407492926142  0.7716554309065413  0.3542174887700257  1.0000
  H   H33       1.0  0.193366307248219  0.36371533600024714  0.08719456181181329  1.0000
  H   H34       1.0  0.8066366582988777  0.6362880121672063  0.9128012234702467  1.0000
  H   H35       1.0  0.36107398728113077  0.7171038092637616  0.12600542722233143  1.0000
  H   H36       1.0  0.6389363100488766  0.2828943894415303  0.8739918480428203  1.0000
  C   C1        1.0  0.1972961122016557  0.008836848858266001  0.7133372135873872  1.0000
  C   C2        1.0  0.8027043174976001  0.9911644223830294  0.286663681000654  1.0000
  C   C3        1.0  0.04263189133829585  0.9853032052886942  0.7722489697664088  1.0000
  C   C4        1.0  0.9573681785325902  0.014695955119741195  0.22775139224795998  1.0000
  C   C5        1.0  0.31223607718035146  0.03382002130971529  0.4813948631859333  1.0000
  C   C6        1.0  0.687764000064419  0.9661791654542496  0.518607979359402  1.0000
  C   C7        1.0  0.910900403544275  0.04484422666213559  0.741227015689539  1.0000
  C   C8        1.0  0.08910039516158731  0.9551559982564084  0.25877385582906237  1.0000
  C   C9        1.0  0.08394648117416642  0.8170826371446225  0.9443652985332279  1.0000
  C   C10       1.0  0.9160536095111311  0.18291021773777774  0.05563477903858433  1.0000
  C   C11       1.0  0.35652886530839095  0.8145104903615986  0.5471957629782623  1.0000
  C   C12       1.0  0.6434679092334291  0.18549179899591184  0.45280617590581335  1.0000
  C   C13       1.0  0.3676357577139839  0.6833065079599618  0.6153453438171823  1.0000
  C   C14       1.0  0.6323581095154366  0.3166947420089699  0.3846609005986608  1.0000
  C   C15       1.0  0.9966885613737873  0.9043644197635388  0.871503537707774  1.0000
  C   C16       1.0  0.003313708442547606  0.09563160229364338  0.1284955878457623  1.0000
  C   C17       1.0  0.265206834669911  0.18855548154277807  0.46901163918044386  1.0000
  C   C18       1.0  0.7347884846599226  0.8114446875796942  0.5309901075388268  1.0000
  C   C19       1.0  0.8962178167068371  0.14276008009063187  0.6432516988880154  1.0000
  C   C20       1.0  0.1037818841574492  0.8572401266405547  0.35674868619579314  1.0000
  C   C21       1.0  0.5035688848914147  0.7734879319850163  0.8998281090419696  1.0000
  C   C22       1.0  0.4964319039826037  0.22651225779281958  0.10016945510201232  1.0000
  C   C23       1.0  0.2834699883913104  0.9549700918355837  0.5861110089417493  1.0000
  C   C24       1.0  0.7165289793757025  0.04503222511146279  0.41389107596824465  1.0000
  C   C25       1.0  0.14235753508084056  0.40852442504122166  0.9264224056507331  1.0000
  C   C26       1.0  0.8576494644621417  0.5914768938279664  0.0735756196404723  1.0000
  C   C27       1.0  0.9681940619415456  0.5139995878409849  0.12137071795512355  1.0000
  C   C28       1.0  0.031801964755239005  0.486004759021327  0.878627959693212  1.0000
  C   C29       1.0  0.10884183937504596  0.4235563045927719  0.04869573833819628  1.0000
  C   C30       1.0  0.8911560305503913  0.5764459941669173  0.9513058601370119  1.0000
  C   C31       1.0  0.2945214858091987  0.30787407391494526  0.8511774718049382  1.0000
  C   C32       1.0  0.7054683664344097  0.6921260833373494  0.1488292843332601  1.0000
  C   C33       1.0  0.5018213676794758  0.6314942989200104  0.9483317246075701  1.0000
  C   C34       1.0  0.4981838076449137  0.3685059460368905  0.05166613158827002  1.0000
  C   C35       1.0  0.42243760851069817  0.621590703172437  0.07068668006850494  1.0000
  C   C36       1.0  0.5775672094432807  0.37840743973678304  0.9293114703973231  1.0000
  C   C37       1.0  0.5799150001737202  0.5072999799420755  0.8776781087463518  1.0000
  C   C38       1.0  0.4200905392413503  0.4926992011217238  0.12231807069273515  1.0000
  N   N1        1.0  0.7917191400997936  0.003133218744757495  0.8170981225208891  1.0000
  N   N2        1.0  0.20828240153518596  0.996864931098635  0.18290435654613907  1.0000
  N   N3        1.0  0.3977985115520467  0.9464898663062372  0.3848175099962106  1.0000
  N   N4        1.0  0.602199370009572  0.053509284083020185  0.6151843596795459  1.0000
  N   N5        1.0  0.4227524104852236  0.8149774611199873  0.42676589273225574  1.0000
  N   N6        1.0  0.5772388969703713  0.18502481636733847  0.5732410555707546  1.0000
  N   N7        1.0  0.8465015664846405  0.917687719632319  0.8950139554003657  1.0000
  N   N8        1.0  0.1534985174803935  0.08230830119086359  0.10498750465820453  1.0000
  Cl  Cl1       1.0  0.9334019351581732  0.5314489865646762  0.27190030681897065  1.0000
  Cl  Cl2       1.0  0.0665999490994622  0.46855121261533844  0.7280969169161509  1.0000
  Cl  Cl3       1.0  0.685008241469518  0.5080713202781482  0.7264344245944088  1.0000
  Cl  Cl4       1.0  0.31499839152482406  0.4919310536989627  0.2735644506098894  1.0000
  O   O1        1.0  0.527540836737394  0.8552949368347101  0.9608663211329829  1.0000
  O   O2        1.0  0.4724617788131765  0.144706335640592  0.03913223895002457  1.0000
  O   O3        1.0  0.4844514155793646  0.8082790715090907  0.8022191106231419  1.0000
  O   O4        1.0  0.5155490067460206  0.19172217337667521  0.19777930343393285  1.0000
  O   O5        1.0  0.38948567699651454  0.3545416414213349  0.7696733838588585  1.0000
  O   O6        1.0  0.6105132239084482  0.6454700064297042  0.2303171384819933  1.0000
  O   O7        1.0  0.31281475081289756  0.17907161603980626  0.8806333248077467  1.0000
  O   O8        1.0  0.6871896717505308  0.8209306688515383  0.11935961646504023  1.0000
