data_image0
_chemical_formula_structural       Na6B10H4C2O22
_chemical_formula_sum              "Na6 B10 H4 C2 O22"
_cell_length_a       6.370385401617732
_cell_length_b       6.511402548995916
_cell_length_c       11.976867258007724
_cell_angle_alpha    90.00009281484678
_cell_angle_beta     90.00003730276066
_cell_angle_gamma    117.72572790091232

_space_group_name_H-M_alt    "P 1"
_space_group_IT_number       1

loop_
  _space_group_symop_operation_xyz
  'x, y, z'

loop_
  _atom_site_type_symbol
  _atom_site_label
  _atom_site_symmetry_multiplicity
  _atom_site_fract_x
  _atom_site_fract_y
  _atom_site_fract_z
  _atom_site_occupancy
  Na  Na1       1.0  0.9256460505601323  0.3275312362887277  0.950633700970343  1.0000
  Na  Na2       1.0  0.07435306296112294  0.6724686783692564  0.45063400756066585  1.0000
  Na  Na3       1.0  0.4231686598888442  0.8508781257597916  0.9346597163486763  1.0000
  Na  Na4       1.0  0.5768319714976897  0.1491217207657911  0.43465890301282434  1.0000
  Na  Na5       1.0  0.8035577468864332  0.913120372214273  0.17081064927229056  1.0000
  Na  Na6       1.0  0.1964412445838022  0.08688001172281191  0.6708107130473878  1.0000
  B   B1        1.0  0.3120428963870977  0.4966637947215915  0.1228078452255517  1.0000
  B   B2        1.0  0.6879559332517787  0.503336372090594  0.6228076104382438  1.0000
  B   B3        1.0  0.921628724638225  0.41316136605220066  0.20982900079414432  1.0000
  B   B4        1.0  0.07836957706338413  0.5868374594086704  0.7098294625350761  1.0000
  B   B5        1.0  0.492443360945657  0.24154091990640578  0.17520794454014782  1.0000
  B   B6        1.0  0.5075556453488588  0.7584594839200278  0.6752078710978467  1.0000
  B   B7        1.0  0.2288235253956827  0.8109209855463391  0.1942615451650269  1.0000
  B   B8        1.0  0.7711755451331539  0.18907950446159558  0.6942610633570397  1.0000
  B   B9        1.0  0.4568510589263184  0.3282752083248397  0.9754723355155689  1.0000
  B   B10       1.0  0.5431465666118384  0.6717248145576917  0.47547196933907543  1.0000
  H   H1        1.0  0.4983033352811859  0.4030572286664622  0.8075954210217305  1.0000
  H   H2        1.0  0.501697689049209  0.5969437780933263  0.3075958097306994  1.0000
  H   H3        1.0  0.9056239505699679  0.8285738166251735  0.8320678542782076  1.0000
  H   H4        1.0  0.0943771562629649  0.1714273008261031  0.3320677278954278  1.0000
  C   C1        1.0  0.9139805583748243  0.8271559826044383  0.9245845354818485  1.0000
  C   C2        1.0  0.08602003904662328  0.17284381835106194  0.4245844074407543  1.0000
  O   O1        1.0  0.4977257299087157  0.28965910690858016  0.8658852381761193  1.0000
  O   O2        1.0  0.5022739192131737  0.7103421593824562  0.3658857266520812  1.0000
  O   O3        1.0  0.5342850649326889  0.22346111090375584  0.0531501495807447  1.0000
  O   O4        1.0  0.4657111368399072  0.776537001749894  0.5531500774783566  1.0000
  O   O5        1.0  0.05643098635852079  0.34226892977013534  0.14859410885077304  1.0000
  O   O6        1.0  0.9435695019333609  0.6577313578008559  0.6485940984097739  1.0000
  O   O7        1.0  0.012416655265475585  0.6450295928143461  0.24244515321422713  1.0000
  O   O8        1.0  0.9875833281130113  0.35496938429584196  0.742444892228626  1.0000
  O   O9        1.0  0.695954356948043  0.2520558986221459  0.2397958256552144  1.0000
  O   O10       1.0  0.3040464388114685  0.7479448014700907  0.7397965072370667  1.0000
  O   O11       1.0  0.3703224372161954  0.7431978507356831  0.1358063542800423  1.0000
  O   O12       1.0  0.6296780079624111  0.2568023789913454  0.6358050478442722  1.0000
  O   O13       1.0  0.46846282814489365  0.45101275859524753  0.1946680459592187  1.0000
  O   O14       1.0  0.5315369941636376  0.5489860024116027  0.6946677969239446  1.0000
  O   O15       1.0  0.3445176101408193  0.4579545887469364  0.0023890324494289  1.0000
  O   O16       1.0  0.6554823852539826  0.5420450375169638  0.502389655313003  1.0000
  O   O17       1.0  0.2773464411737763  0.033819468439069994  0.2119110699008573  1.0000
  O   O18       1.0  0.7226534392637233  0.9661793705578888  0.711909583668053  1.0000
  O   O19       1.0  0.8224136393503585  0.9372265028342853  0.9754559674821195  1.0000
  O   O20       1.0  0.177583164823254  0.06277178501325412  0.47545660954231295  1.0000
  O   O21       1.0  0.00871494288109902  0.715470598683922  0.9704794692708705  1.0000
  O   O22       1.0  0.9912842375457415  0.2845294057395407  0.4704797537238293  1.0000
