data_image0
_chemical_formula_structural       U2H30C46N6O12
_chemical_formula_sum              "U2 H30 C46 N6 O12"
_cell_length_a       10.176802524672734
_cell_length_b       10.176847213176254
_cell_length_c       11.732549520407117
_cell_angle_alpha    107.0816371521346
_cell_angle_beta     107.08210146811278
_cell_angle_gamma    103.45447571637462

_space_group_name_H-M_alt    "P 1"
_space_group_IT_number       1

loop_
  _space_group_symop_operation_xyz
  'x, y, z'

loop_
  _atom_site_type_symbol
  _atom_site_label
  _atom_site_symmetry_multiplicity
  _atom_site_fract_x
  _atom_site_fract_y
  _atom_site_fract_z
  _atom_site_occupancy
  U   U1        1.0  0.3152751267208985  0.6847143885836858  0.7499977896408508  1.0000
  U   U2        1.0  0.6847204814726666  0.3152836387303494  0.25000354086998294  1.0000
  H   H1        1.0  0.4577100666405231  0.9030025639360706  0.06791887507405657  1.0000
  H   H2        1.0  0.09699347123871861  0.5422889397552028  0.4320791317793322  1.0000
  H   H3        1.0  0.5422904194809632  0.09699774830658468  0.9320825958889427  1.0000
  H   H4        1.0  0.9030073841736695  0.45771247461536296  0.5679218658725914  1.0000
  H   H5        1.0  0.6244983315134364  0.9477988966769217  0.28674465687567613  1.0000
  H   H6        1.0  0.05219935096068439  0.37550364316473406  0.21325331905886455  1.0000
  H   H7        1.0  0.37550252389895183  0.05220251769364379  0.7132563407762403  1.0000
  H   H8        1.0  0.9478021753472916  0.6244966945986192  0.7867475740849555  1.0000
  H   H9        1.0  0.7827926765913418  0.7896881668319934  0.3101739155133102  1.0000
  H   H10       1.0  0.21031203843320873  0.2172120070752968  0.18982784704506628  1.0000
  H   H11       1.0  0.21720780953015154  0.21031214541066126  0.689827555449696  1.0000
  H   H12       1.0  0.7896912452432121  0.7827905390545811  0.810174920008471  1.0000
  H   H13       1.0  0.7626284498924961  0.5985599340553807  0.11318756479731466  1.0000
  H   H14       1.0  0.4014408275089779  0.23737423783222059  0.38681344996850686  1.0000
  H   H15       1.0  0.23737137603333033  0.40144146549948095  0.8868123114982536  1.0000
  H   H16       1.0  0.5985596586125083  0.7626260744104342  0.6131880209944922  1.0000
  H   H17       1.0  0.7485679194802516  0.45721736028087906  0.9554267252480102  1.0000
  H   H18       1.0  0.5427835168080649  0.2514340795589903  0.5445759816981379  1.0000
  H   H19       1.0  0.25143190109561436  0.5427840339214784  0.044574000635321874  1.0000
  H   H20       1.0  0.4572135008628991  0.7485650754036542  0.45542429768243403  1.0000
  H   H21       1.0  0.7230771449815806  0.27692758723939187  0.7500019910938958  1.0000
  H   H22       1.0  0.2769233464898663  0.72307273035576  0.24999863028133962  1.0000
  H   H23       1.0  0.14859871354459392  0.030330401132381706  0.8687529005995315  1.0000
  H   H24       1.0  0.9696621176323605  0.8513912429926762  0.6312363987482  1.0000
  H   H25       1.0  0.8513961079175021  0.9696653737533298  0.1312570228233626  1.0000
  H   H26       1.0  0.03033878779299221  0.14860700826984197  0.36874675008694163  1.0000
  H   H27       1.0  0.013049498689667914  0.8198360703471366  0.10359461533899149  1.0000
  H   H28       1.0  0.18016442405425442  0.9869506971364714  0.39640213670992336  1.0000
  H   H29       1.0  0.9869467375997804  0.1801608375396881  0.8964134073658768  1.0000
  H   H30       1.0  0.8198385973305238  0.013050853915480299  0.6035841118993729  1.0000
  C   C1        1.0  0.5253075503828555  0.8360800477866378  0.0806036479465887  1.0000
  C   C2        1.0  0.16391935092060092  0.474690145052982  0.419394409365644  1.0000
  C   C3        1.0  0.4746919169519899  0.1639202603453143  0.9193950024845347  1.0000
  C   C4        1.0  0.8360821860873033  0.5253102034153655  0.5806047846026486  1.0000
  C   C5        1.0  0.6211269720047953  0.8617740774557417  0.20364408733868786  1.0000
  C   C6        1.0  0.13822332932472395  0.37887524506554365  0.29635396426452587  1.0000
  C   C7        1.0  0.3788749182441222  0.13822735708302503  0.7963571820818129  1.0000
  C   C8        1.0  0.8617775260876641  0.6211261693050147  0.7036470333873905  1.0000
  C   C9        1.0  0.7073162692680839  0.7747738501044096  0.2157347681270139  1.0000
  C   C10       1.0  0.2252239801095968  0.29268628623547943  0.2842656660073856  1.0000
  C   C11       1.0  0.292683863612389  0.225225376067833  0.78426462738377  1.0000
  C   C12       1.0  0.7747768753027913  0.7073151281350859  0.7157353316445308  1.0000
  C   C13       1.0  0.6960922123342499  0.6673337507674687  0.10426950511491373  1.0000
  C   C14       1.0  0.33266536336972763  0.30390946907059657  0.39573044979470495  1.0000
  C   C15       1.0  0.3039086430781382  0.3326676636030895  0.8957314925370027  1.0000
  C   C16       1.0  0.6673351227517587  0.6960908431720584  0.6042710211683014  1.0000
  C   C17       1.0  0.5967157970105249  0.6467191060168815  0.9832839244539356  1.0000
  C   C18       1.0  0.3532784543800531  0.4032827025316337  0.5167169298009994  1.0000
  C   C19       1.0  0.4032826194379097  0.3532811658893705  0.016717002971894636  1.0000
  C   C20       1.0  0.6467209915549362  0.5967175841903157  0.4832851189811862  1.0000
  C   C21       1.0  0.5815544767393632  0.534878607687304  0.862383349248411  1.0000
  C   C22       1.0  0.46511872143565114  0.41844454867007386  0.6376152926927998  1.0000
  C   C23       1.0  0.4184446213045803  0.46512059831673724  0.1376157744937956  1.0000
  C   C24       1.0  0.5348793364218026  0.5815546318132618  0.36238440886859274  1.0000
  C   C25       1.0  0.6701188925117236  0.4482639377464821  0.8652135969293937  1.0000
  C   C26       1.0  0.5517379243395696  0.329884252317818  0.6347903180022525  1.0000
  C   C27       1.0  0.32988128665511607  0.5517385478787915  0.13478835481839005  1.0000
  C   C28       1.0  0.44826085604979954  0.670117116363848  0.3652109857002657  1.0000
  C   C29       1.0  0.6549957657290549  0.3450069667626251  0.7500012866571166  1.0000
  C   C30       1.0  0.34500332696492825  0.6549922338889119  0.24999868667285338  1.0000
  C   C31       1.0  0.1824262829033216  0.8225633945052805  0.9673906251514734  1.0000
  C   C32       1.0  0.17743346402135526  0.8175693663633581  0.5326042637230017  1.0000
  C   C33       1.0  0.8175713058772304  0.17743137087211378  0.032615489361660435  1.0000
  C   C34       1.0  0.8225751043236329  0.18243660429054392  0.46739222335725117  1.0000
  C   C35       1.0  0.09077446079258775  0.9171366992243647  0.9853091567403919  1.0000
  C   C36       1.0  0.0828572785469319  0.9092198234113695  0.5146824158938514  1.0000
  C   C37       1.0  0.9092255669519247  0.08285920861734301  0.01469702799882807  1.0000
  C   C38       1.0  0.917140074691794  0.0907739736506059  0.48530293223621607  1.0000
  C   C39       1.0  0.08365744046672319  0.0183072842508594  0.9264587802444307  1.0000
  C   C40       1.0  0.981685502306476  0.9163375514481512  0.5735342950681852  1.0000
  C   C41       1.0  0.9163409224820784  0.9816929341303933  0.07355064305906478  1.0000
  C   C42       1.0  0.018307779272348088  0.08365944580405939  0.4264491238734819  1.0000
  C   C43       1.0  0.006534904350274901  0.8994470982036019  0.05899079796738243  1.0000
  C   C44       1.0  0.10055238087688424  0.9934633742782922  0.4410058115278088  1.0000
  C   C45       1.0  0.9934651750305721  0.10055207444364102  0.9410170934210668  1.0000
  C   C46       1.0  0.8994481392076781  0.006533758798816801  0.5589803593817066  1.0000
  N   N1        1.0  0.510212874337796  0.7293607080500378  0.9725194456259272  1.0000
  N   N2        1.0  0.2706357850626305  0.4897857497212996  0.5274789907445409  1.0000
  N   N3        1.0  0.4897872478427487  0.27063850741720324  0.02748164906039109  1.0000
  N   N4        1.0  0.7293640301632678  0.5102156391285603  0.4725225847265618  1.0000
  N   N5        1.0  0.47980712242915763  0.5201916212788192  0.7500006243592167  1.0000
  N   N6        1.0  0.5201933583423682  0.4798086856113315  0.2500016961915534  1.0000
  O   O1        1.0  0.4647583838170277  0.8246330363363512  0.7518847870837388  1.0000
  O   O2        1.0  0.17535802297315684  0.5352317360796378  0.7481054058570037  1.0000
  O   O3        1.0  0.5352347693626954  0.17536383245587223  0.24811902196430677  1.0000
  O   O4        1.0  0.8246457083803094  0.4647752037461786  0.25189434659584004  1.0000
  O   O5        1.0  0.25518278611207995  0.841372022067958  0.893753297534893  1.0000
  O   O6        1.0  0.15861582339670835  0.7448058859300134  0.6062376222822151  1.0000
  O   O7        1.0  0.7448064830398523  0.15861932786330607  0.10624723700481552  1.0000
  O   O8        1.0  0.8413875654156726  0.25519997853039195  0.3937583555428859  1.0000
  O   O9        1.0  0.18594963918882002  0.7333823300016391  0.020005598759880144  1.0000
  O   O10       1.0  0.2666183958499674  0.81404975906122  0.47999599036360496  1.0000
  O   O11       1.0  0.8140506955103463  0.2666114044574428  0.9800001051945627  1.0000
  O   O12       1.0  0.7334016375696352  0.1859629416439503  0.5200102978205975  1.0000
