data_image0
_chemical_formula_structural       Ag2H22C38N6O8F6
_chemical_formula_sum              "Ag2 H22 C38 N6 O8 F6"
_cell_length_a       8.260462989864195
_cell_length_b       8.174319954532752
_cell_length_c       13.841026410182046
_cell_angle_alpha    100.59505722012001
_cell_angle_beta     93.76226854649862
_cell_angle_gamma    102.4727092811225

_space_group_name_H-M_alt    "P 1"
_space_group_IT_number       1

loop_
  _space_group_symop_operation_xyz
  'x, y, z'

loop_
  _atom_site_type_symbol
  _atom_site_label
  _atom_site_symmetry_multiplicity
  _atom_site_fract_x
  _atom_site_fract_y
  _atom_site_fract_z
  _atom_site_occupancy
  Ag  Ag1       1.0  0.08269343325907386  0.3737092573703719  0.4452284162998198  1.0000
  Ag  Ag2       1.0  0.9173021090239145  0.6262826832099504  0.5547691199974238  1.0000
  H   H1        1.0  0.298762616727835  0.6801172275272265  0.378860228297988  1.0000
  H   H2        1.0  0.7012374730872537  0.31987843564443347  0.6211400836921471  1.0000
  H   H3        1.0  0.38736645975451717  0.7587191132751341  0.2210068112893069  1.0000
  H   H4        1.0  0.6126366519674207  0.24127902508772783  0.7789960725333743  1.0000
  H   H5        1.0  0.04198091453940117  0.29654606163212793  0.0646143691076659  1.0000
  H   H6        1.0  0.9580193830867073  0.7034599381014316  0.9353827594755871  1.0000
  H   H7        1.0  0.9606223198926926  0.24057180063344671  0.2292293059175776  1.0000
  H   H8        1.0  0.039374296189286874  0.7594291524073853  0.7707663830668707  1.0000
  H   H9        1.0  0.3095091466328412  0.7120831716103879  0.871271623809875  1.0000
  H   H10       1.0  0.6904938626439118  0.2879240306363187  0.1287271999815474  1.0000
  H   H11       1.0  0.5688839806834948  0.9084138385863623  0.8422335485625467  1.0000
  H   H12       1.0  0.4311189735938257  0.09158822806118389  0.1577632600792143  1.0000
  H   H13       1.0  0.8201611124091741  0.9794350642372293  0.9703703629322507  1.0000
  H   H14       1.0  0.17984393300638857  0.020565659567388594  0.029626387668933808  1.0000
  H   H15       1.0  0.09656610048148909  0.9027495900833103  0.4534584956108959  1.0000
  H   H16       1.0  0.9034378809162931  0.097242127797152  0.5465393809324652  1.0000
  H   H17       1.0  0.0692913852091905  0.0025956093521913018  0.2934611238332181  1.0000
  H   H18       1.0  0.9307124057124553  0.9974051135849035  0.7065391850144849  1.0000
  H   H19       1.0  0.624897834492593  0.5990108346131535  0.2044397587835149  1.0000
  H   H20       1.0  0.3751012282020341  0.4009951773255906  0.795559485305013  1.0000
  H   H21       1.0  0.6634102897795842  0.5221216763948604  0.36877244216928073  1.0000
  H   H22       1.0  0.3365883978781952  0.47787792073032886  0.6312246315158277  1.0000
  C   C1        1.0  0.245761851034672  0.5988118366943384  0.3073543889469478  1.0000
  C   C2        1.0  0.7542379933048551  0.4011876959347873  0.6926463401978538  1.0000
  C   C3        1.0  0.2943046299863711  0.6416216200157123  0.21901882083511742  1.0000
  C   C4        1.0  0.7056937632897656  0.35838181388515966  0.7809822768577703  1.0000
  C   C5        1.0  0.22297945035241898  0.5315904026867385  0.12931657999036622  1.0000
  C   C6        1.0  0.7770208277112545  0.4684155839740994  0.8706819913341306  1.0000
  C   C7        1.0  0.10163320184429378  0.38410528247201364  0.1327098617545204  1.0000
  C   C8        1.0  0.898366436144542  0.6158981457600206  0.8672883990624671  1.0000
  C   C9        1.0  0.05777334383583369  0.3509519844702851  0.2233804076182224  1.0000
  C   C10       1.0  0.942223902539773  0.6490515204629973  0.7766163132443469  1.0000
  C   C11       1.0  0.2610801900042716  0.5643952436756051  0.029408709504082302  1.0000
  C   C12       1.0  0.7389212936472305  0.43561071117096617  0.9705899104270018  1.0000
  C   C13       1.0  0.41426366389109853  0.6907548718173401  0.015149351621374778  1.0000
  C   C14       1.0  0.585737244466202  0.30925366673594806  0.98485025158125  1.0000
  C   C15       1.0  0.4184400051591338  0.7500671380413806  0.9260717083916816  1.0000
  C   C16       1.0  0.5815629943364017  0.24994005766897232  0.07392783677036623  1.0000
  C   C17       1.0  0.5643987697053348  0.8582478369314258  0.9098826387692754  1.0000
  C   C18       1.0  0.4356051153405999  0.1417580477502582  0.09011679974560141  1.0000
  C   C19       1.0  0.7018154557451125  0.8992688595801325  0.9809879390425281  1.0000
  C   C20       1.0  0.2981853976127553  0.10073454337398857  0.019009649010428113  1.0000
  C   C21       1.0  0.687433602686511  0.8323014429212564  0.06743057844112603  1.0000
  C   C22       1.0  0.31256667537716254  0.16770454373958188  0.932567992883371  1.0000
  C   C23       1.0  0.8404384648637018  0.8710253849766044  0.1403879193619488  1.0000
  C   C24       1.0  0.1595602582310747  0.12897933467502298  0.8596126122140648  1.0000
  C   C25       1.0  0.9914383897792477  0.843167770161358  0.39725494317301724  1.0000
  C   C26       1.0  0.008562049416909202  0.1568291918337792  0.6027433599590069  1.0000
  C   C27       1.0  0.9763288590663564  0.8963808891477212  0.3083058531916834  1.0000
  C   C28       1.0  0.0236722752040706  0.10362376687537278  0.6916947755975045  1.0000
  C   C29       1.0  0.8428212852201324  0.8105055812479732  0.23636020354300774  1.0000
  C   C30       1.0  0.15717776769327677  0.1895004241544171  0.7636397619161386  1.0000
  C   C31       1.0  0.7288929354130148  0.6719068873533658  0.2580024840689036  1.0000
  C   C32       1.0  0.2711064375378243  0.3281003972634267  0.7419976366440011  1.0000
  C   C33       1.0  0.7510900765621499  0.6279052040652289  0.3495255601238085  1.0000
  C   C34       1.0  0.24890988146410112  0.3720995033812073  0.6504728559469302  1.0000
  C   C35       1.0  0.4857709860955097  0.16810845294236287  0.3860505043772451  1.0000
  C   C36       1.0  0.514224694069668  0.8318795462805468  0.6139545498421555  1.0000
  C   C37       1.0  0.6753155333408286  0.1893904338988719  0.3709756027555714  1.0000
  C   C38       1.0  0.3246769818871228  0.8105898957064636  0.6290313568172081  1.0000
  N   N1        1.0  0.13037382241176226  0.45542033758549394  0.3096471983513426  1.0000
  N   N2        1.0  0.869621794433087  0.5445767516667033  0.6903509103543259  1.0000
  N   N3        1.0  0.5451408072461917  0.7327507456937566  0.0849771244914805  1.0000
  N   N4        1.0  0.4548588857420627  0.2672578181374376  0.9150231514751752  1.0000
  N   N5        1.0  0.8796631939120373  0.7111803427457417  0.4182898853170869  1.0000
  N   N6        1.0  0.1203375751027593  0.2888179050001511  0.581707851698063  1.0000
  O   O1        1.0  0.16626541298872163  0.4826767895438594  0.9554488248262984  1.0000
  O   O2        1.0  0.8337435398840896  0.5173250984232921  0.04455039096026069  1.0000
  O   O3        1.0  0.971558995359146  0.9571635024303616  0.12035609255159595  1.0000
  O   O4        1.0  0.02844340927975249  0.04284626391398659  0.8796458786232365  1.0000
  O   O5        1.0  0.7739361420869743  0.2471736392414172  0.4494485342590195  1.0000
  O   O6        1.0  0.22605852296651113  0.7528053867391264  0.5505540390494588  1.0000
  O   O7        1.0  0.7022783463668958  0.1487174768446238  0.2829075419802791  1.0000
  O   O8        1.0  0.29770902037898134  0.8512565978859996  0.717093445909626  1.0000
  F   F1        1.0  0.3963537611893528  0.0032791525739810047  0.3510036482220258  1.0000
  F   F2        1.0  0.6036349370177589  0.9967102709944269  0.6490063192059453  1.0000
  F   F3        1.0  0.45518445258198875  0.21118919359195593  0.48181015746389727  1.0000
  F   F4        1.0  0.5448156628888795  0.7888115855697888  0.5181943337877613  1.0000
  F   F5        1.0  0.4150080477463974  0.2690171076759569  0.33462056427133297  1.0000
  F   F6        1.0  0.5849940293014199  0.7309720443718175  0.6653812813816629  1.0000
