data_image0
_chemical_formula_structural       Al4H20C48Cl12O24
_chemical_formula_sum              "Al4 H20 C48 Cl12 O24"
_cell_length_a       6.8497380160317105
_cell_length_b       16.30946452912228
_cell_length_c       20.124717097209295
_cell_angle_alpha    109.39237122808763
_cell_angle_beta     90.000001284774
_cell_angle_gamma    89.9996941232362

_space_group_name_H-M_alt    "P 1"
_space_group_IT_number       1

loop_
  _space_group_symop_operation_xyz
  'x, y, z'

loop_
  _atom_site_type_symbol
  _atom_site_label
  _atom_site_symmetry_multiplicity
  _atom_site_fract_x
  _atom_site_fract_y
  _atom_site_fract_z
  _atom_site_occupancy
  Al  Al1       1.0  0.006517070407092301  0.5046799901933667  0.506460394047167  1.0000
  Al  Al2       1.0  0.9934817657228977  0.004681108455727699  0.0064602323307810005  1.0000
  Al  Al3       1.0  0.5074150531613881  0.505719336822992  0.5039231767687795  1.0000
  Al  Al4       1.0  0.4925823098151696  0.0057187514209787  0.003920196943028001  1.0000
  H   H1        1.0  0.03501928211511541  0.6769734527305502  0.2450721366795889  1.0000
  H   H2        1.0  0.96497176820138  0.17697303140073478  0.7450734804614073  1.0000
  H   H3        1.0  0.46650156702852286  0.6666704875343042  0.39321070453596724  1.0000
  H   H4        1.0  0.5334823618874012  0.16667330570520278  0.89321137259941  1.0000
  H   H5        1.0  0.9275218336686705  0.9558140620755537  0.20461819752541294  1.0000
  H   H6        1.0  0.07247174427295282  0.4558121339883671  0.7046211825261751  1.0000
  H   H7        1.0  0.0316748420724622  0.655946533930411  0.7136037091370967  1.0000
  H   H8        1.0  0.9683266642177698  0.15594894167163184  0.21360515903044333  1.0000
  H   H9        1.0  0.27276249997374447  0.7213760185950092  0.6712553410337277  1.0000
  H   H10       1.0  0.7272352968674055  0.221372943007573  0.1712521454637965  1.0000
  H   H11       1.0  0.2952285241985991  0.8158660933867807  0.8295047536121987  1.0000
  H   H12       1.0  0.7047828148258476  0.31586287758997866  0.3295010484273035  1.0000
  H   H13       1.0  0.30374890783893704  0.7406485251483589  0.3307308194481707  1.0000
  H   H14       1.0  0.6962472618693808  0.24065312896541263  0.8307355898869133  1.0000
  H   H15       1.0  0.13053823182072932  0.701009461298554  0.8239585310626579  1.0000
  H   H16       1.0  0.8694642436631739  0.2010012562939707  0.3239556532513674  1.0000
  H   H17       1.0  0.2518178310229047  0.6043393748595064  0.49161159158444434  1.0000
  H   H18       1.0  0.748180011435238  0.10434244551804986  0.9916110689403012  1.0000
  H   H19       1.0  0.7539010444719167  0.39536690033190075  0.5014754995532159  1.0000
  H   H20       1.0  0.2460960906213501  0.8953694234113455  0.0014745729854653  1.0000
  C   C1        1.0  0.254357897927953  0.3841662838111972  0.3978388021163611  1.0000
  C   C2        1.0  0.7456395203899646  0.8841675498328811  0.8978322230371419  1.0000
  C   C3        1.0  0.2606674409676444  0.4218130361490182  0.5829325821537878  1.0000
  C   C4        1.0  0.7393323322871126  0.9218131726878626  0.0829333504150256  1.0000
  C   C5        1.0  0.7565874150842263  0.6228829835692693  0.6144930628815858  1.0000
  C   C6        1.0  0.24341152459160043  0.12288304333998924  0.11449340643994077  1.0000
  C   C7        1.0  0.7601045336536387  0.5836130735320709  0.4231605791651845  1.0000
  C   C8        1.0  0.23989936745727644  0.08361356652169873  0.9231645410981174  1.0000
  C   C9        1.0  0.9102659068478616  0.6761049444473671  0.27856471737716504  1.0000
  C   C10       1.0  0.0897280862976544  0.17610480906937206  0.7785692944805335  1.0000
  C   C11       1.0  0.9237601343241549  0.6301348972739902  0.32581548299828006  1.0000
  C   C12       1.0  0.0762358802158261  0.13013113449162012  0.8258152926943935  1.0000
  C   C13       1.0  0.7628532732128902  0.6276541246584557  0.36876402071541753  1.0000
  C   C14       1.0  0.23713840723383584  0.12765590628222162  0.868763308191177  1.0000
  C   C15       1.0  0.5913019339187854  0.6701342464208296  0.36078557030584346  1.0000
  C   C16       1.0  0.4086950809055807  0.17013595039882304  0.8607873483107796  1.0000
  C   C17       1.0  0.5766164244338725  0.7153459214759791  0.3132512465909301  1.0000
  C   C18       1.0  0.4233771179467709  0.21535067637817232  0.8132530766477188  1.0000
  C   C19       1.0  0.739805112760628  0.7198971625941655  0.2721900721381942  1.0000
  C   C20       1.0  0.2601883602171142  0.2198974145019293  0.772191924782284  1.0000
  C   C21       1.0  0.8396183775141637  0.8493739840562567  0.23898158451242327  1.0000
  C   C22       1.0  0.1603662525236587  0.3493739032276154  0.7389819328968273  1.0000
  C   C23       1.0  0.8428021554460373  0.8961638374806212  0.1923986389935664  1.0000
  C   C24       1.0  0.1571833636131998  0.39616147880784064  0.6924010331548374  1.0000
  C   C25       1.0  0.7355894549591966  0.8672431478806999  0.12996547428268462  1.0000
  C   C26       1.0  0.2644080615174431  0.3672454438457251  0.6299678882745924  1.0000
  C   C27       1.0  0.6285332613143665  0.789632088806691  0.11307628867933772  1.0000
  C   C28       1.0  0.3714666262186128  0.28963367763206094  0.6130791355358839  1.0000
  C   C29       1.0  0.6311000757867475  0.7415708085336946  0.15960136759099441  1.0000
  C   C30       1.0  0.36889893774458216  0.24157302245627937  0.6596042290292203  1.0000
  C   C31       1.0  0.7353082792144292  0.7709773944377716  0.22353053019897834  1.0000
  C   C32       1.0  0.2646816515262742  0.27097785018885656  0.7235313388001714  1.0000
  C   C33       1.0  0.5925815689623093  0.8030578842690376  0.7805977365080209  1.0000
  C   C34       1.0  0.40741530377828644  0.30305566022798297  0.2805963505917362  1.0000
  C   C35       1.0  0.7494561124700851  0.8163010945215562  0.8271354701963745  1.0000
  C   C36       1.0  0.2505508407916679  0.31629617486504463  0.32713727453111124  1.0000
  C   C37       1.0  0.9032083335976042  0.7553954081223041  0.8025533231630605  1.0000
  C   C38       1.0  0.09679495064446542  0.2553911210641786  0.3025542033869897  1.0000
  C   C39       1.0  0.9080482542732612  0.6990722209338784  0.7319963925543078  1.0000
  C   C40       1.0  0.0919542090760714  0.19907269106294487  0.23199685089879546  1.0000
  C   C41       1.0  0.7519678813930781  0.6892868198419677  0.6860335807536586  1.0000
  C   C42       1.0  0.2480375999759303  0.18928770125149444  0.18603289280836321  1.0000
  C   C43       1.0  0.588962814724482  0.739638462455254  0.7142975073473466  1.0000
  C   C44       1.0  0.4110391623282723  0.2396325347155823  0.21429447559795278  1.0000
  C   C45       1.0  0.3728509565743465  0.7300541829971935  0.7154053640495024  1.0000
  C   C46       1.0  0.6271584337202613  0.2300550874200198  0.2154023201453796  1.0000
  C   C47       1.0  0.3737629091099492  0.8152841228041724  0.7821723456275934  1.0000
  C   C48       1.0  0.6262469589622627  0.3152665004118873  0.28216735606071813  1.0000
  Cl  Cl1       1.0  0.3411846391006321  0.631616674833083  0.742681225423695  1.0000
  Cl  Cl2       1.0  0.6588244654820343  0.131612563290247  0.24267648916003998  1.0000
  Cl  Cl3       1.0  0.2876904565087983  0.9072229396363055  0.7606697916264196  1.0000
  Cl  Cl4       1.0  0.7123183163276324  0.4072215428819915  0.2606676859101285  1.0000
  Cl  Cl5       1.0  0.14134659202569821  0.5754112849590953  0.32525620109513653  1.0000
  Cl  Cl6       1.0  0.8586471494620298  0.07540705569876854  0.8252549290971986  1.0000
  Cl  Cl7       1.0  0.9667996563698793  0.8904085828024719  0.3174416170117169  1.0000
  Cl  Cl8       1.0  0.0331932778529662  0.39040635901473314  0.8174435785078985  1.0000
  Cl  Cl9       1.0  0.5053346081052013  0.7500119421911648  0.0342841034826904  1.0000
  Cl  Cl10      1.0  0.4946773971203982  0.25001771029815967  0.5342890393270139  1.0000
  Cl  Cl11      1.0  0.5102478525583436  0.6437522990959508  0.13770192190794012  1.0000
  Cl  Cl12      1.0  0.489762528475886  0.1437558239726827  0.6377057702960728  1.0000
  O   O1        1.0  0.42432320150912517  0.4438409296910707  0.5648587468443509  1.0000
  O   O2        1.0  0.5756763044435687  0.9438405342599053  0.0648538714099018  1.0000
  O   O3        1.0  0.09006533004536979  0.41095628799436673  0.4260678421424657  1.0000
  O   O4        1.0  0.9099376219210669  0.9109580842535793  0.9260669062743148  1.0000
  O   O5        1.0  0.9226787239465181  0.5692988112026286  0.44777359281111023  1.0000
  O   O6        1.0  0.0773195161195304  0.06929940240311801  0.9477703555944005  1.0000
  O   O7        1.0  0.0924915434951572  0.44199297435677926  0.5666729199155826  1.0000
  O   O8        1.0  0.9075196642660758  0.941994107535045  0.0666725453530645  1.0000
  O   O9        1.0  0.9244071296670954  0.5954426967078065  0.5897255269338545  1.0000
  O   O10       1.0  0.075596504728729  0.09544339725488273  0.0897280915842842  1.0000
  O   O11       1.0  0.4230123705215049  0.41084094912331187  0.42283981398816906  1.0000
  O   O12       1.0  0.5769935013633899  0.910848838534058  0.9228350563565401  1.0000
  O   O13       1.0  0.2564985813455678  0.5577242436620582  0.5115158345826958  1.0000
  O   O14       1.0  0.7434952498671238  0.05772335063460331  0.0115168524134788  1.0000
  O   O15       1.0  0.5917812379219498  0.6006095505731112  0.5846744547273558  1.0000
  O   O16       1.0  0.40820919429639707  0.1006069222529078  0.08467201493468933  1.0000
  O   O17       1.0  0.591869008705565  0.5662233271115298  0.4423418845781981  1.0000
  O   O18       1.0  0.4081205061862505  0.06622547964264677  0.9423400144709363  1.0000
  O   O19       1.0  0.7561781595176952  0.4535190733562899  0.4985096401687059  1.0000
  O   O20       1.0  0.24382285689497962  0.9535208349003599  0.9985076039470046  1.0000
  O   O21       1.0  0.40997184712811924  0.756985062921004  0.30533032437392643  1.0000
  O   O22       1.0  0.5900109805825764  0.2569903716349842  0.8053346613206998  1.0000
  O   O23       1.0  0.039565136041432  0.7480652890934394  0.8490888763365375  1.0000
  O   O24       1.0  0.9604470120291352  0.24806033042360554  0.34908704602840157  1.0000
