data_image0
_chemical_formula_structural       Ca2P4H16C8O20
_chemical_formula_sum              "Ca2 P4 H16 C8 O20"
_cell_length_a       5.5263237131752225
_cell_length_b       7.293381570689258
_cell_length_c       13.128736616424051
_cell_angle_alpha    107.14147545184632
_cell_angle_beta     89.99930446246336
_cell_angle_gamma    89.99966029444818

_space_group_name_H-M_alt    "P 1"
_space_group_IT_number       1

loop_
  _space_group_symop_operation_xyz
  'x, y, z'

loop_
  _atom_site_type_symbol
  _atom_site_label
  _atom_site_symmetry_multiplicity
  _atom_site_fract_x
  _atom_site_fract_y
  _atom_site_fract_z
  _atom_site_occupancy
  Ca  Ca1       1.0  0.3744686311132525  0.7500032462036615  0.5000004754742166  1.0000
  Ca  Ca2       1.0  0.6255306908450676  0.2500016110229808  0.4999992553646352  1.0000
  P   P1        1.0  0.8242888323013416  0.7722425958092601  0.3429932451575582  1.0000
  P   P2        1.0  0.17570761045244146  0.27225177636102427  0.342992272248722  1.0000
  P   P3        1.0  0.17571772772219418  0.2277637023079677  0.6570074800301811  1.0000
  P   P4        1.0  0.8242880924839324  0.7277587897405553  0.6570045719854748  1.0000
  H   H1        1.0  0.7949377667194781  0.4561752847164017  0.3423192994867891  1.0000
  H   H2        1.0  0.20506819286757857  0.956173943488871  0.3423140533550254  1.0000
  H   H3        1.0  0.20505974558788853  0.5438310743492636  0.6576890525137955  1.0000
  H   H4        1.0  0.7949275100569579  0.04382947892356978  0.6576854458016187  1.0000
  H   H5        1.0  0.793364874306398  0.46268989041999464  0.9977920029337569  1.0000
  H   H6        1.0  0.20661853401767874  0.9626957166805068  0.9977886678746232  1.0000
  H   H7        1.0  0.20663444769358816  0.5373135137042198  0.0022052081761145975  1.0000
  H   H8        1.0  0.7933590737197987  0.0372962515385709  0.0022120285028393023  1.0000
  H   H9        1.0  0.5554319249768156  0.8141384315991899  0.21042162022523314  1.0000
  H   H10       1.0  0.4445734559130513  0.31416977289205056  0.21041827542384792  1.0000
  H   H11       1.0  0.4445873017918202  0.18584636230512075  0.7895779175485842  1.0000
  H   H12       1.0  0.5554258660162715  0.6858508309064533  0.7895794279774507  1.0000
  H   H13       1.0  0.8136046166927073  0.9646460065543107  0.22370143202698503  1.0000
  H   H14       1.0  0.18636850706028696  0.46465226078024807  0.22370374026588283  1.0000
  H   H15       1.0  0.186418229121557  0.03534736585334739  0.7762956825065928  1.0000
  H   H16       1.0  0.8136091006324476  0.535352602626176  0.7762967533213754  1.0000
  C   C1        1.0  0.8663872498520104  0.6772657239534465  0.12262037765640342  1.0000
  C   C2        1.0  0.1336108153529665  0.1772709741307565  0.12262279465973341  1.0000
  C   C3        1.0  0.1336265483451697  0.3227276545822875  0.8773774995847249  1.0000
  C   C4        1.0  0.8663975543308736  0.8227195164957307  0.8773723311760621  1.0000
  C   C5        1.0  0.7531075187970583  0.8185357367417294  0.2178150542737214  1.0000
  C   C6        1.0  0.2468903785844957  0.31853716815713534  0.21781322632728012  1.0000
  C   C7        1.0  0.2469080887900574  0.18146486466071107  0.7821900828578876  1.0000
  C   C8        1.0  0.7531053243290343  0.681466260346454  0.7821870355077252  1.0000
  O   O1        1.0  0.7044922379182594  0.5696984937997768  0.32914814268632137  1.0000
  O   O2        1.0  0.29552419631560417  0.0696981299947694  0.329150345404237  1.0000
  O   O3        1.0  0.295512512516467  0.430313561914204  0.6708557973178629  1.0000
  O   O4        1.0  0.7044769351097172  0.9303139074605227  0.6708513065765231  1.0000
  O   O5        1.0  0.6847295157514209  0.9151140082987651  0.43145193754111233  1.0000
  O   O6        1.0  0.3152705604215739  0.4151234600310615  0.4314472452033585  1.0000
  O   O7        1.0  0.31527342525323826  0.08488655660847397  0.5685486235611634  1.0000
  O   O8        1.0  0.6847378092002359  0.5848827954407272  0.5685481412299822  1.0000
  O   O9        1.0  0.09800465652842409  0.772095986951804  0.36140825726771914  1.0000
  O   O10       1.0  0.9020039234153643  0.27209214359538686  0.3614113548870962  1.0000
  O   O11       1.0  0.9019982843339489  0.2279118069206802  0.6386003264092326  1.0000
  O   O12       1.0  0.09799720795965068  0.7279227817913209  0.6385930485165119  1.0000
  O   O13       1.0  0.08793690874805547  0.6775470812686848  0.10470323756328531  1.0000
  O   O14       1.0  0.9120327181603256  0.17754177587627135  0.1047129027654492  1.0000
  O   O15       1.0  0.9120606037958294  0.32242911593268525  0.8952964354740588  1.0000
  O   O16       1.0  0.0879539372295142  0.8224315760760632  0.8952893576326277  1.0000
  O   O17       1.0  0.7102612604233655  0.5570278636090578  0.062496946313764616  1.0000
  O   O18       1.0  0.2897321879256154  0.057037475063310694  0.06248631729413031  1.0000
  O   O19       1.0  0.289730823504314  0.44296981341108915  0.9375008634006791  1.0000
  O   O20       1.0  0.7102598960830306  0.9429558670141487  0.9375069839468538  1.0000
