data_image0
_chemical_formula_structural       Zn2H42C46N2O12
_chemical_formula_sum              "Zn2 H42 C46 N2 O12"
_cell_length_a       11.895162324405788
_cell_length_b       13.067033907937464
_cell_length_c       16.042483298519652
_cell_angle_alpha    88.38927685039269
_cell_angle_beta     84.6478836667459
_cell_angle_gamma    82.70043564460931

_space_group_name_H-M_alt    "P 1"
_space_group_IT_number       1

loop_
  _space_group_symop_operation_xyz
  'x, y, z'

loop_
  _atom_site_type_symbol
  _atom_site_label
  _atom_site_symmetry_multiplicity
  _atom_site_fract_x
  _atom_site_fract_y
  _atom_site_fract_z
  _atom_site_occupancy
  Zn  Zn1       1.0  0.6218204270722936  0.5020349438975344  0.48064009717356976  1.0000
  Zn  Zn2       1.0  0.3781620107628071  0.4979664324264802  0.5193706668819543  1.0000
  H   H1        1.0  0.3049149508872874  0.5799697403666214  0.040038093032187284  1.0000
  H   H2        1.0  0.7351745730396431  0.9597933490416396  0.4834091716849969  1.0000
  H   H3        1.0  0.8072320338735182  0.42449619591192095  0.5787464420944912  1.0000
  H   H4        1.0  0.19275607010943926  0.5754869735089727  0.4212268357086159  1.0000
  H   H5        1.0  0.8806564917615558  0.0312000806503789  0.5343013282701461  1.0000
  H   H6        1.0  0.8838686602182689  0.03187988898650221  0.423504351008141  1.0000
  H   H7        1.0  0.9542439319765704  0.12125916658182939  0.47339654738287607  1.0000
  H   H8        1.0  0.7744165845807061  0.21280385042107502  0.42772002303551193  1.0000
  H   H9        1.0  0.7718409548173994  0.21215795848211633  0.5356254117857587  1.0000
  H   H10       1.0  0.1161147126635811  0.9681355943273575  0.5764793149371314  1.0000
  H   H11       1.0  0.11936135891088637  0.9688025936167792  0.46567523757730095  1.0000
  H   H12       1.0  0.6950676871689582  0.42000158174937496  0.9599750184846058  1.0000
  H   H13       1.0  0.045741243476747705  0.8787556093793326  0.5265776582096464  1.0000
  H   H14       1.0  0.22815382889080385  0.7878246714049691  0.4643923072302698  1.0000
  H   H15       1.0  0.22555921739263604  0.7872175845177196  0.572297717424469  1.0000
  H   H16       1.0  0.8447062361183272  0.7158591598487263  0.2739267902725188  1.0000
  H   H17       1.0  0.775731889472695  0.7610886222620721  0.3725059109157272  1.0000
  H   H18       1.0  0.5876305569516518  0.7291915513882683  0.3278456136484706  1.0000
  H   H19       1.0  0.65310953570512  0.8155953892617162  0.2559140753200707  1.0000
  H   H20       1.0  0.6541779270263105  0.683534754972122  0.2295117536069995  1.0000
  H   H21       1.0  0.2242134029039633  0.23889075758633999  0.6275326490828093  1.0000
  H   H22       1.0  0.15526464503938092  0.2841892619114645  0.7260952044532158  1.0000
  H   H23       1.0  0.4747737008995471  0.6759695815247468  0.9419845246048124  1.0000
  H   H24       1.0  0.34582492525183284  0.3165159577530687  0.7704588042789735  1.0000
  H   H25       1.0  0.34685687870070586  0.18444754202695895  0.7441257641927734  1.0000
  H   H26       1.0  0.4123500522303373  0.27077619392952806  0.6721427583152817  1.0000
  H   H27       1.0  0.035871283248909015  0.21175608343526867  0.6242677327438954  1.0000
  H   H28       1.0  0.9076620665399984  0.2718899137443316  0.585673411175982  1.0000
  H   H29       1.0  0.8120823702319768  0.2809552531120971  0.7327418935847589  1.0000
  H   H30       1.0  0.8651127217544926  0.1514784141641599  0.7054366258265219  1.0000
  H   H31       1.0  0.9405337303065266  0.22038452894540228  0.7712708874444587  1.0000
  H   H32       1.0  0.09240696274876117  0.7280954343049755  0.4142576014592193  1.0000
  H   H33       1.0  0.9641056896494999  0.7882117019386783  0.3758019210534016  1.0000
  H   H34       1.0  0.5252131686309625  0.3240016808283315  0.058027679496639485  1.0000
  H   H35       1.0  0.059215174682563564  0.7797415690032492  0.22873424571029935  1.0000
  H   H36       1.0  0.13470262082130804  0.8486153617433274  0.2945352618912196  1.0000
  H   H37       1.0  0.18774178065044822  0.71918798965433  0.2671163870747577  1.0000
  H   H38       1.0  0.3650165260701995  0.39938394200831334  0.9432415219884119  1.0000
  H   H39       1.0  0.6349674205115434  0.6005835214797202  0.056770317676303306  1.0000
  H   H40       1.0  0.371018037114105  0.19248038066742615  0.511080324642215  1.0000
  H   H41       1.0  0.6289633748093735  0.8075157299953161  0.4889193739325179  1.0000
  H   H42       1.0  0.26482300536115133  0.0402085800234104  0.5165986934004323  1.0000
  C   C1        1.0  0.45950255752750013  0.7006389891119724  0.4981118002844909  1.0000
  C   C2        1.0  0.44715667052057734  0.03277325826798011  0.504017640802594  1.0000
  C   C3        1.0  0.03897553586647014  0.4182727562205243  0.5937987558998045  1.0000
  C   C4        1.0  0.9610140288717163  0.5817266044190816  0.406169795510749  1.0000
  C   C5        1.0  0.15416785203777286  0.43122461643284976  0.591420884313429  1.0000
  C   C6        1.0  0.8458257241225625  0.5687623666593422  0.4085469756803306  1.0000
  C   C7        1.0  0.14438532127810794  0.5358859457309606  0.4701811850625574  1.0000
  C   C8        1.0  0.8556026964109406  0.4641048652806815  0.529798207407346  1.0000
  C   C9        1.0  0.026702556282025093  0.5307224496460208  0.46835760432735185  1.0000
  C   C10       1.0  0.9732909340326688  0.4692653351096964  0.5316071315269538  1.0000
  C   C11       1.0  0.47213665302564317  0.4960790363470693  0.3401872351729622  1.0000
  C   C12       1.0  0.540464674830652  0.29936273866883306  0.5018881382984545  1.0000
  C   C13       1.0  0.5278707050209591  0.503925796711407  0.6598224172052054  1.0000
  C   C14       1.0  0.4855739174135821  0.5979379152038078  0.9689322532876332  1.0000
  C   C15       1.0  0.5144177462427137  0.40203555255808965  0.031082708698725973  1.0000
  C   C16       1.0  0.39165897485604256  0.5444141912804952  0.021806722780816305  1.0000
  C   C17       1.0  0.6083309083946132  0.45556009239980705  0.9782064757078288  1.0000
  C   C18       1.0  0.46471682444787626  0.49929413933961786  0.2505712472069632  1.0000
  C   C19       1.0  0.535302753678522  0.5007074596576969  0.7494338946698703  1.0000
  C   C20       1.0  0.5754314295571633  0.5558293341820928  0.03049718527697108  1.0000
  C   C21       1.0  0.42455855431634865  0.44414422021182526  0.9695116547841423  1.0000
  C   C22       1.0  0.4810698850617428  0.5024853613396446  0.085797803592925  1.0000
  C   C23       1.0  0.344199434812424  0.9879136078838042  0.5105819924552648  1.0000
  C   C24       1.0  0.5189241294885961  0.4974827519369212  0.9142096071016608  1.0000
  C   C25       1.0  0.4674450722503635  0.5018920193944112  0.17436797784951347  1.0000
  C   C26       1.0  0.5325467958976803  0.49808684781619655  0.8256456354462856  1.0000
  C   C27       1.0  0.5515229074358102  0.18325110273214307  0.49916914966507875  1.0000
  C   C28       1.0  0.44847298424185306  0.8167440368491441  0.5008270959723475  1.0000
  C   C29       1.0  0.771463105910783  0.16057528584480707  0.4826669305471681  1.0000
  C   C30       1.0  0.8777047296672793  0.0816378207988251  0.47833647484663533  1.0000
  C   C31       1.0  0.228534293410121  0.83942821035874  0.5173384275428532  1.0000
  C   C32       1.0  0.1222896127397775  0.9183705067682411  0.5216521793693045  1.0000
  C   C33       1.0  0.7708614345698879  0.7102845371141413  0.319574268327166  1.0000
  C   C34       1.0  0.6557933568511842  0.012086151961007405  0.48941937346176445  1.0000
  C   C35       1.0  0.6594085546850295  0.7360687434761958  0.28082935111869733  1.0000
  C   C36       1.0  0.229112679448896  0.2897301023094628  0.6804324762320632  1.0000
  C   C37       1.0  0.3405658693740889  0.26395059023545286  0.7191691921334493  1.0000
  C   C38       1.0  0.9575169553120589  0.26480090720077937  0.6404009433619178  1.0000
  C   C39       1.0  0.8897715518390328  0.22761800084105485  0.7171357105859852  1.0000
  C   C40       1.0  0.04245171406917344  0.7352032113157491  0.3595882621609547  1.0000
  C   C41       1.0  0.11005981429406118  0.7724764955914479  0.28281451497058896  1.0000
  C   C42       1.0  0.3412875874198988  0.8823686512503102  0.5096263219433084  1.0000
  C   C43       1.0  0.658702637775022  0.1176310093482513  0.4903895558812863  1.0000
  C   C44       1.0  0.5497118401098647  0.8598131443236952  0.49464026298421254  1.0000
  C   C45       1.0  0.4502798097937842  0.1401888466962973  0.5053711172527925  1.0000
  C   C46       1.0  0.5528348910745677  0.9672295223526889  0.49599186238945236  1.0000
  N   N1        1.0  0.7965106657434475  0.5111537791172438  0.47057071010831203  1.0000
  N   N2        1.0  0.2034810256940816  0.48883473108546116  0.5294016154570045  1.0000
  O   O1        1.0  0.5605042350851478  0.6544580802976367  0.4842388528499057  1.0000
  O   O2        1.0  0.22600207341219655  0.3950188690424667  0.6482634078187743  1.0000
  O   O3        1.0  0.9893164047099107  0.3651001658697837  0.6589722805247858  1.0000
  O   O4        1.0  0.010670166794248762  0.634903115904102  0.3409939150015973  1.0000
  O   O5        1.0  0.4394519249432419  0.3455483460854509  0.5156127703849336  1.0000
  O   O6        1.0  0.36993550106403467  0.6563314938085227  0.5093561476052813  1.0000
  O   O7        1.0  0.6300494778816343  0.3436798754284353  0.4908107468933593  1.0000
  O   O8        1.0  0.572726426844433  0.48913210224939974  0.3625216043169672  1.0000
  O   O9        1.0  0.42729784806058285  0.5106952837879676  0.6374966636865124  1.0000
  O   O10       1.0  0.3797706496407969  0.5007893721089189  0.38765173896539545  1.0000
  O   O11       1.0  0.6202292621774321  0.49941971331126905  0.6123482220709418  1.0000
  O   O12       1.0  0.7739920863340404  0.6049704817557426  0.3516975171720062  1.0000
