data_image0
_chemical_formula_structural       Cd2H42C34S4N16
_chemical_formula_sum              "Cd2 H42 C34 S4 N16"
_cell_length_a       8.591832030116434
_cell_length_b       8.774825111709772
_cell_length_c       14.637787447809641
_cell_angle_alpha    105.75190127705451
_cell_angle_beta     103.44522879745557
_cell_angle_gamma    91.92938864920463

_space_group_name_H-M_alt    "P 1"
_space_group_IT_number       1

loop_
  _space_group_symop_operation_xyz
  'x, y, z'

loop_
  _atom_site_type_symbol
  _atom_site_label
  _atom_site_symmetry_multiplicity
  _atom_site_fract_x
  _atom_site_fract_y
  _atom_site_fract_z
  _atom_site_occupancy
  Cd  Cd1       1.0  0.9261510580548773  0.05931434728007902  0.6932797741472428  1.0000
  Cd  Cd2       1.0  0.0738465434149447  0.940682951730537  0.3067169001863804  1.0000
  H   H1        1.0  0.8028836879788841  0.4081498938332686  0.7963826671367756  1.0000
  H   H2        1.0  0.19711186840856237  0.5918509613599524  0.20361567284950152  1.0000
  H   H3        1.0  0.6656213577760611  0.5357776372374446  0.5327987373929873  1.0000
  H   H4        1.0  0.3343804140411066  0.464225643952311  0.46720015332952164  1.0000
  H   H5        1.0  0.7999173479662502  0.24458995521184332  0.4974306156461952  1.0000
  H   H6        1.0  0.2000844265125394  0.7554133278114464  0.5025689588990475  1.0000
  H   H7        1.0  0.08285347163977258  0.7062136615195342  0.6125083997770915  1.0000
  H   H8        1.0  0.9171489283591896  0.29378368056203646  0.3874909802694688  1.0000
  H   H9        1.0  0.12472911571405382  0.5989130232993746  0.8818147685591384  1.0000
  H   H10       1.0  0.8752700389048442  0.40108786373868094  0.1181854297561529  1.0000
  H   H11       1.0  0.9906402830831311  0.8855054759647204  0.8901750826599513  1.0000
  H   H12       1.0  0.0093587485953819  0.1144942151391533  0.10982285581063422  1.0000
  H   H13       1.0  0.6914683668555384  0.7539151381213856  0.7121904542343743  1.0000
  H   H14       1.0  0.3085294645252858  0.24608454175636038  0.2878066368522881  1.0000
  H   H15       1.0  0.6950065356390669  0.667077986465607  0.8086956702639087  1.0000
  H   H16       1.0  0.3049903280167002  0.33292406488669  0.19130167401461054  1.0000
  H   H17       1.0  0.41752183537889215  0.6083060208473654  0.6234723566293711  1.0000
  H   H18       1.0  0.5824713337212869  0.39169482106129283  0.3765277077027208  1.0000
  H   H19       1.0  0.42407884721516353  0.7466664722327678  0.7367921714630941  1.0000
  H   H20       1.0  0.5759180244254694  0.2533355846201459  0.2632072242836117  1.0000
  H   H21       1.0  0.42766836554559967  0.5267968171420916  0.8165355317926881  1.0000
  H   H22       1.0  0.5723311339398053  0.47320764119666586  0.18346529165216205  1.0000
  H   H23       1.0  0.4357158608748222  0.38548050360471825  0.7064242500632147  1.0000
  H   H24       1.0  0.5642860338827163  0.6145239735192193  0.29357690050400015  1.0000
  H   H25       1.0  0.1685171296526704  0.4356866034804696  0.6206811883263725  1.0000
  H   H26       1.0  0.8314828803974093  0.5643107234830042  0.3793192322432759  1.0000
  H   H27       1.0  0.16069860397946203  0.37527105432592833  0.7255950362068333  1.0000
  H   H28       1.0  0.8393015210261153  0.6247274630711107  0.27440559273932763  1.0000
  H   H29       1.0  0.8258526565553196  0.15010128007799747  0.9158042260155028  1.0000
  H   H30       1.0  0.1741538014971056  0.8499008555826889  0.08419784586615014  1.0000
  H   H31       1.0  0.3289735778903733  0.11029779689990701  0.778678322953212  1.0000
  H   H32       1.0  0.6710299101124022  0.8896983678077605  0.22132237992347112  1.0000
  H   H33       1.0  0.5004270487097243  0.0107247601961475  0.6363971139332207  1.0000
  H   H34       1.0  0.4995812351605693  0.9892714457489475  0.363605610833666  1.0000
  H   H35       1.0  0.45908688526081676  0.3003965018892316  0.9704543349250372  1.0000
  H   H36       1.0  0.5409194525128526  0.6996044396708072  0.029546160934636106  1.0000
  H   H37       1.0  0.648490423065411  0.24735682024193303  0.02386102163985274  1.0000
  H   H38       1.0  0.35151615260414804  0.75264650768586  0.9761419424410465  1.0000
  H   H39       1.0  0.4211594879427095  0.12305297640590142  0.06742467315043399  1.0000
  H   H40       1.0  0.5788433798631444  0.8769491329105605  0.9325775918703911  1.0000
  H   H41       1.0  0.33266135701040866  0.0254410673038734  0.9427221012817173  1.0000
  H   H42       1.0  0.6673440156998254  0.9745622475642505  0.05727933159253955  1.0000
  C   C1        1.0  0.7828057655510605  0.39907788402084077  0.7190480790565559  1.0000
  C   C2        1.0  0.21718991111513472  0.6009241652730212  0.28095183695169373  1.0000
  C   C3        1.0  0.7115078293237502  0.46314345622516134  0.5802912601690622  1.0000
  C   C4        1.0  0.2884923973292146  0.5368562424377571  0.41970615803997186  1.0000
  C   C5        1.0  0.780759145645696  0.3221120660010399  0.5645872228176073  1.0000
  C   C6        1.0  0.21924131624151494  0.6778900171960914  0.435411979789926  1.0000
  C   C7        1.0  0.07728418929080759  0.719658050394024  0.6874425489888054  1.0000
  C   C8        1.0  0.9227170130720878  0.28033928229496036  0.3125566674965654  1.0000
  C   C9        1.0  0.09919398905832819  0.6664221724486906  0.8287943509949188  1.0000
  C   C10       1.0  0.9008051628989406  0.3335787127558233  0.17120516349764614  1.0000
  C   C11       1.0  0.032376771897666905  0.8074337730629111  0.8315164494574319  1.0000
  C   C12       1.0  0.9676235750340466  0.1925671197006551  0.16848254477358182  1.0000
  C   C13       1.0  0.646287815857292  0.6496723113918749  0.7297200141254621  1.0000
  C   C14       1.0  0.3537090477984677  0.3503297399604151  0.270277330153057  1.0000
  C   C15       1.0  0.46243564770037426  0.6306425008973445  0.7032920836316592  1.0000
  C   C16       1.0  0.5375601412597034  0.36936073699654765  0.2967073569303835  1.0000
  C   C17       1.0  0.3901790162617047  0.4994618825973021  0.7360212152033654  1.0000
  C   C18       1.0  0.6098214509487647  0.5005402042669047  0.2639793550496279  1.0000
  C   C19       1.0  0.20677714771877478  0.4713171510160805  0.7011931155679889  1.0000
  C   C20       1.0  0.7932230895806851  0.5286825549809961  0.2988070379319723  1.0000
  C   C21       1.0  0.7151891394499045  0.11992879480789752  0.8581071032335927  1.0000
  C   C22       1.0  0.2848169790592578  0.8800697732191624  0.1418957111639615  1.0000
  C   C23       1.0  0.45623451320646075  0.10057335446522589  0.78488498485018  1.0000
  C   C24       1.0  0.5437701671091304  0.8994228159679593  0.21511451394223263  1.0000
  C   C25       1.0  0.5424897920134695  0.050567134353350696  0.7157167383862701  1.0000
  C   C26       1.0  0.4575183715780682  0.9494278774910967  0.2842844103586373  1.0000
  C   C27       1.0  0.5330248640379621  0.20080765205607068  0.9703757484938151  1.0000
  C   C28       1.0  0.4669802814228916  0.7991932837784573  0.029625951450128706  1.0000
  C   C29       1.0  0.44919748948953503  0.06888019946208598  0.996687469946238  1.0000
  C   C30       1.0  0.5508103961099664  0.9311243264583239  0.003315182249636491  1.0000
  C   C31       1.0  0.1895300146877403  0.09389077153959141  0.556538403111368  1.0000
  C   C32       1.0  0.8104637318515839  0.9061160243704479  0.44346338692604803  1.0000
  C   C33       1.0  0.1387644714431886  0.3188850354922722  0.9209578422339177  1.0000
  C   C34       1.0  0.8612286013328615  0.681114628817582  0.07904680048076075  1.0000
  S   S1        1.0  0.278940490421803  0.1486543664653013  0.4822153928647309  1.0000
  S   S2        1.0  0.7210529059277632  0.851348854476953  0.5177844043976664  1.0000
  S   S3        1.0  0.2232110425016387  0.4514286639474747  0.023712923102216617  1.0000
  S   S4        1.0  0.7767784614926256  0.5485590607396772  0.9762831543203276  1.0000
  N   N1        1.0  0.825136626218054  0.28398485172751714  0.6518992007810738  1.0000
  N   N2        1.0  0.17486132544152605  0.7160160222508691  0.3480994663275752  1.0000
  N   N3        1.0  0.7137623065503362  0.5102820376413176  0.6787798026559528  1.0000
  N   N4        1.0  0.28623455976705264  0.48972001554451333  0.3212182254452927  1.0000
  N   N5        1.0  0.0190832620379453  0.8391039267812274  0.7428034132547907  1.0000
  N   N6        1.0  0.9809193625487751  0.16089579250040492  0.2571950158993488  1.0000
  N   N7        1.0  0.1275041297736905  0.6124891469593835  0.7367585248591055  1.0000
  N   N8        1.0  0.8724959899086356  0.3875093667705869  0.2632407364416025  1.0000
  N   N9        1.0  0.703769470842296  0.06270560467548592  0.7624077964405629  1.0000
  N   N10       1.0  0.296235337736924  0.9372917653589569  0.23759532984202278  1.0000
  N   N11       1.0  0.5678705167436744  0.1446080629670661  0.8745920406115104  1.0000
  N   N12       1.0  0.43213571405937046  0.8553916936600173  0.12541029833982986  1.0000
  N   N13       1.0  0.1281056716545166  0.053153562771690595  0.6118155961221562  1.0000
  N   N14       1.0  0.8718978805611074  0.9468556854791005  0.38818655151232667  1.0000
  N   N15       1.0  0.0801245025910617  0.2225716827055066  0.8446036733805612  1.0000
  N   N16       1.0  0.9198595104794122  0.7774088544757375  0.15538776424720166  1.0000
