data_image0
_chemical_formula_structural       Zn2H36C56N8O24
_chemical_formula_sum              "Zn2 H36 C56 N8 O24"
_cell_length_a       9.84322892562241
_cell_length_b       12.307963391873173
_cell_length_c       12.81
_cell_angle_alpha    114.65569748586601
_cell_angle_beta     95.46201020463941
_cell_angle_gamma    107.37581040833443

_space_group_name_H-M_alt    "P 1"
_space_group_IT_number       1

loop_
  _space_group_symop_operation_xyz
  'x, y, z'

loop_
  _atom_site_type_symbol
  _atom_site_label
  _atom_site_symmetry_multiplicity
  _atom_site_fract_x
  _atom_site_fract_y
  _atom_site_fract_z
  _atom_site_occupancy
  Zn  Zn1       1.0  0.645891891945169  0.4754604694731839  0.5980581069448763  1.0000
  Zn  Zn2       1.0  0.3541078064086279  0.5245391715577767  0.40194094647200984  1.0000
  H   H1        1.0  0.5629976469149155  0.1656241121649273  0.6684114047538544  1.0000
  H   H2        1.0  0.4370024629767144  0.8343764928000823  0.33158884576299397  1.0000
  H   H3        1.0  0.5086285054182369  0.31757000018019  0.8185579662997072  1.0000
  H   H4        1.0  0.4913720160112263  0.6824315687188687  0.1814419200368604  1.0000
  H   H5        1.0  0.1992804243609925  0.3563336440106895  0.0008406168010281642  1.0000
  H   H6        1.0  0.800718055947236  0.6436679248883692  0.9991599008862125  1.0000
  H   H7        1.0  0.3316573276186929  0.4984184867087507  0.9198340097768708  1.0000
  H   H8        1.0  0.6683407411517024  0.501582118256259  0.08016531081040068  1.0000
  H   H9        1.0  0.1837528150848939  0.5467009792691968  0.785032049438364  1.0000
  H   H10       1.0  0.8162468832689028  0.45329866176176387  0.21496778461865057  1.0000
  H   H11       1.0  0.8259149102735819  0.0580413608685006  0.5943956878658626  1.0000
  H   H12       1.0  0.17408519961804816  0.9419592440965091  0.4056037820108714  1.0000
  H   H13       1.0  0.8025376158278874  0.1636355162226621  0.4685451318639765  1.0000
  H   H14       1.0  0.1974629056015758  0.8363660526763965  0.5314563157528412  1.0000
  H   H15       1.0  0.03191320198398271  0.3058109687212891  0.4496659012644032  1.0000
  H   H16       1.0  0.9680858873470298  0.6941896362437205  0.550334274607721  1.0000
  H   H17       1.0  0.8152504871415259  0.4081952236936033  0.39478631073281895  1.0000
  H   H18       1.0  0.1847508407956724  0.5918034534033083  0.6052132561538031  1.0000
  H   H19       1.0  0.7716620399653707  0.22890734638973237  0.19667208068297984  1.0000
  H   H20       1.0  0.2283386789490436  0.7710922946412282  0.8033278280187589  1.0000
  H   H21       1.0  0.3986627458342653  0.0036600575825432  0.2689745077379088  1.0000
  H   H22       1.0  0.6013383846179821  0.9963405473824665  0.7310258174236708  1.0000
  H   H23       1.0  0.46186702946858554  0.1912155972212801  0.46734624139968167  1.0000
  H   H24       1.0  0.5381326688852113  0.8087840438096804  0.5326528120172043  1.0000
  H   H25       1.0  0.4646549679539334  0.9033151280880318  0.08577231422606253  1.0000
  H   H26       1.0  0.5353453394226547  0.09668354900887981  0.9142271780158355  1.0000
  H   H27       1.0  0.7099119483601085  0.0727905157461706  0.027626092970891112  1.0000
  H   H28       1.0  0.29008918209213863  0.927210089218839  0.9723742321906883  1.0000
  H   H29       1.0  0.8438346583681164  0.7667439881479794  0.7363382561955165  1.0000
  H   H30       1.0  0.15616647208413073  0.23325661681703022  0.26366050768581323  1.0000
  H   H31       1.0  0.8315246059267024  0.9686110566063206  0.8878598519274733  1.0000
  H   H32       1.0  0.1684761129877117  0.03138858442464  0.11213927613413693  1.0000
  H   H33       1.0  0.46016373887003675  0.7329783423594876  0.9522576500947793  1.0000
  H   H34       1.0  0.5398380006050019  0.2670212986714731  0.047743113891812135  1.0000
  H   H35       1.0  0.4898765289434195  0.5410079847781546  0.7987336618305891  1.0000
  H   H36       1.0  0.5101246015088279  0.45899262018685494  0.20126666333099055  1.0000
  C   C1        1.0  0.977093228469819  0.43111275569912516  0.7895009818073362  1.0000
  C   C2        1.0  0.02290790198243543  0.5688878492658844  0.21050090463449328  1.0000
  C   C3        1.0  0.9008745692440383  0.3475907621898671  0.831123073029403  1.0000
  C   C4        1.0  0.09912410854914101  0.6524088788410936  0.168877467023009  1.0000
  C   C5        1.0  0.9866103135857998  0.3243975450464447  0.9078330278950447  1.0000
  C   C6        1.0  0.013389796305830324  0.675603059918565  0.09216722262181076  1.0000
  C   C7        1.0  0.1399306616813547  0.3778640749202751  0.9406774585992538  1.0000
  C   C8        1.0  0.8600698597481085  0.6221374939787836  0.05932320837743535  1.0000
  C   C9        1.0  0.21239469133966077  0.45753033223513023  0.8958910497129795  1.0000
  C   C10       1.0  0.7876043979913517  0.5424702727298794  0.10410912615914474  1.0000
  C   C11       1.0  0.1310120537998145  0.4838727219153327  0.8212308865184641  1.0000
  C   C12       1.0  0.8689870355311982  0.5161278830496698  0.17877006999378867  1.0000
  C   C13       1.0  0.8957235303439218  0.4678694888404351  0.7120035037886083  1.0000
  C   C14       1.0  0.10427371535080711  0.5321291882564765  0.28799576451910275  1.0000
  C   C15       1.0  0.7341308466527748  0.2912902662131387  0.7967241792127527  1.0000
  C   C16       1.0  0.2658692632388552  0.708710338751871  0.20327607130410297  1.0000
  C   C17       1.0  0.1780169954395348  0.2720636376797145  0.5569364666501642  1.0000
  C   C18       1.0  0.8219831144520953  0.7279369672852951  0.4430630032265698  1.0000
  C   C19       1.0  0.1926391324372005  0.2101790717594341  0.626052555007803  1.0000
  C   C20       1.0  0.8073599568938121  0.7898215332055756  0.3739476208643212  1.0000
  C   C21       1.0  0.06230479978428599  0.1354336977627  0.6386317267677698  1.0000
  C   C22       1.0  0.9376942895467265  0.8645669072023097  0.3613684491043615  1.0000
  C   C23       1.0  0.923016360502281  0.1177763538603998  0.5825083953882882  1.0000
  C   C24       1.0  0.07698231729089856  0.8822232871705608  0.41749136402399517  1.0000
  C   C25       1.0  0.9109345762993042  0.1772780748125342  0.5125879010207512  1.0000
  C   C26       1.0  0.08906451303170834  0.8227225301524755  0.4874122748513727  1.0000
  C   C27       1.0  0.03786923147399081  0.254995257481113  0.5011655061037247  1.0000
  C   C28       1.0  0.9621308784176391  0.7450053474838967  0.4988347444131308  1.0000
  C   C29       1.0  0.3094753030721479  0.3605045866389958  0.5419671518680361  1.0000
  C   C30       1.0  0.6905254158422665  0.6394950543919649  0.45803197619358127  1.0000
  C   C31       1.0  0.34217355114206777  0.219809736839025  0.6797225121314413  1.0000
  C   C32       1.0  0.6578255381889448  0.7801908681259846  0.3202768831005614  1.0000
  C   C33       1.0  0.7225650857369317  0.3174302297431453  0.36379895195616296  1.0000
  C   C34       1.0  0.27743665373810705  0.6825694112878153  0.6362010313903073  1.0000
  C   C35       1.0  0.6966782301554346  0.2150854960668198  0.251446281609951  1.0000
  C   C36       1.0  0.303323509319597  0.7849141449641408  0.7485537017365119  1.0000
  C   C37       1.0  0.5740896426089889  0.1005267540606596  0.2109362817369913  1.0000
  C   C38       1.0  0.4259104672826339  0.8994738509043501  0.7890647494199856  1.0000
  C   C39       1.0  0.49255115469159694  0.0913288953688891  0.2930578927637272  1.0000
  C   C40       1.0  0.5074495642228172  0.9086707456620716  0.7069420159380188  1.0000
  C   C41       1.0  0.525909105361194  0.1965769983996069  0.40367029150503  1.0000
  C   C42       1.0  0.47409120201539423  0.8034216786973049  0.5963284200967466  1.0000
  C   C43       1.0  0.5140651359465096  0.9952696166544684  0.0850251932108889  1.0000
  C   C44       1.0  0.4859355829679117  0.0047300243764923  0.9149762767710997  1.0000
  C   C45       1.0  0.6078001033134939  0.9884844848863564  0.994600188196749  1.0000
  C   C46       1.0  0.3922010271387606  0.0115161200786531  0.005400917604959001  1.0000
  C   C47       1.0  0.7604681149028494  0.7634164878122078  0.7862801843873087  1.0000
  C   C48       1.0  0.23953301554939796  0.2365841171528018  0.21372014077427082  1.0000
  C   C49       1.0  0.7530210697980949  0.8759316896353297  0.8714562748025757  1.0000
  C   C50       1.0  0.2469812786997281  0.1240669874615818  0.1285425860886562  1.0000
  C   C51       1.0  0.6392480384448759  0.8694848987182766  0.9294368658625988  1.0000
  C   C52       1.0  0.3607545241058289  0.130516670180775  0.07056395040354603  1.0000
  C   C53       1.0  0.5478872128083339  0.7463269010645348  0.9074886129015527  1.0000
  C   C54       1.0  0.4521137201589624  0.2536756317685729  0.09251168989485593  1.0000
  C   C55       1.0  0.5631657422305238  0.6381783204815719  0.8215832303982681  1.0000
  C   C56       1.0  0.4368357997595567  0.3618232484174797  0.17841829186328084  1.0000
  N   N1        1.0  0.9149904151526158  0.24084952531787  0.9565078208931868  1.0000
  N   N2        1.0  0.0850088716633479  0.7591491517790416  0.04349081606385855  1.0000
  N   N3        1.0  0.0682017815436708  0.0718940570809679  0.7131863167915498  1.0000
  N   N4        1.0  0.9318003694691939  0.9281065478840418  0.2868140830147611  1.0000
  N   N5        1.0  0.6350651820406554  0.3108108946313877  0.43747901953324947  1.0000
  N   N6        1.0  0.3649345163131414  0.689188746399573  0.5625208145237651  1.0000
  N   N7        1.0  0.662933626259651  0.645636278215612  0.7572794439986198  1.0000
  N   N8        1.0  0.3370660720941459  0.3543633628153486  0.24272039005838766  1.0000
  O   O1        1.0  0.9642467860751651  0.5344782955329208  0.6685804820155213  1.0000
  O   O2        1.0  0.03575106864234809  0.46551941762994176  0.3314176638369588  1.0000
  O   O3        1.0  0.7553153921423075  0.42493393844758737  0.6985762187766867  1.0000
  O   O4        1.0  0.24468124452963744  0.5750657025833732  0.30142417198626964  1.0000
  O   O5        1.0  0.6740986919935635  0.186393999110166  0.693295581166602  1.0000
  O   O6        1.0  0.3259014178980664  0.8136066058548437  0.30670544999037463  1.0000
  O   O7        1.0  0.6633823233651981  0.3407526140490802  0.8650977105841876  1.0000
  O   O8        1.0  0.3366163544279814  0.6592470269818804  0.1349028294682242  1.0000
  O   O9        1.0  0.7802634189332025  0.1784049137153474  0.9140863640608432  1.0000
  O   O10       1.0  0.21973586788276117  0.8215937633815641  0.08591383417645204  1.0000
  O   O11       1.0  0.9894618834972491  0.2360211796684197  0.036946856803837094  1.0000
  O   O12       1.0  0.010538637932214087  0.7639803892306389  0.9630538101728592  1.0000
  O   O13       1.0  0.2820178284430881  0.4071435716465786  0.4751583645445124  1.0000
  O   O14       1.0  0.7179812608879174  0.5928570333184311  0.5248410306874832  1.0000
  O   O15       1.0  0.4356560968264134  0.3810209589294473  0.598258595046886  1.0000
  O   O16       1.0  0.5643440130652166  0.6189796460355623  0.40174009418971934  1.0000
  O   O17       1.0  0.3974197014900867  0.1433736225210396  0.6201905079859955  1.0000
  O   O18       1.0  0.6025808199393693  0.856627946378019  0.3798101589906935  1.0000
  O   O19       1.0  0.4032910995576202  0.3126308021151516  0.7888378770593364  1.0000
  O   O20       1.0  0.5967090103340098  0.687369802849858  0.21116237345751196  1.0000
  O   O21       1.0  0.1897334147605036  0.0762905602766466  0.7553604654737144  1.0000
  O   O22       1.0  0.810268736252361  0.9237100446883629  0.24463837305234662  1.0000
  O   O23       1.0  0.9506994165126271  0.0173527407429432  0.7304684036498161  1.0000
  O   O24       1.0  0.049301302401787005  0.9826469002880173  0.2695307244118013  1.0000
