data_image0
_chemical_formula_structural       Cu4P4H48C40S4N16
_chemical_formula_sum              "Cu4 P4 H48 C40 S4 N16"
_cell_length_a       8.846196798023172
_cell_length_b       11.474952700681705
_cell_length_c       13.262967352364312
_cell_angle_alpha    104.50601652782015
_cell_angle_beta     90.00026005593692
_cell_angle_gamma    89.9999018229401

_space_group_name_H-M_alt    "P 1"
_space_group_IT_number       1

loop_
  _space_group_symop_operation_xyz
  'x, y, z'

loop_
  _atom_site_type_symbol
  _atom_site_label
  _atom_site_symmetry_multiplicity
  _atom_site_fract_x
  _atom_site_fract_y
  _atom_site_fract_z
  _atom_site_occupancy
  Cu  Cu1       1.0  0.4696953684818226  0.6066102032245837  0.7846182471900747  1.0000
  Cu  Cu2       1.0  0.969691028723389  0.3933928487765571  0.7153841258428885  1.0000
  Cu  Cu3       1.0  0.530303895497255  0.3933940198767941  0.2153835979768814  1.0000
  Cu  Cu4       1.0  0.030309365689163304  0.6066068690214835  0.2846174778155302  1.0000
  P   P1        1.0  0.5618114031690595  0.7491849247230178  0.7171963350312468  1.0000
  P   P2        1.0  0.061811998380648  0.25081473481861855  0.7828017909286302  1.0000
  P   P3        1.0  0.4381901216670058  0.25081660250029353  0.2828041604648206  1.0000
  P   P4        1.0  0.938188396021957  0.7491841010926166  0.21719660191153878  1.0000
  H   H1        1.0  0.5200255491848366  0.9407927317922785  0.9162832292608486  1.0000
  H   H2        1.0  0.0200286059631694  0.05920513367716749  0.5837166356755716  1.0000
  H   H3        1.0  0.4799725843697686  0.0592051857111571  0.08371797659816592  1.0000
  H   H4        1.0  0.9799717884339787  0.9407946115120324  0.41628045010254056  1.0000
  H   H5        1.0  0.6075639623589169  0.813378974064669  0.9421870398580624  1.0000
  H   H6        1.0  0.1075654296665718  0.18661797691958523  0.5578083642375233  1.0000
  H   H7        1.0  0.39243530161728307  0.18661895713407264  0.057811907062458104  1.0000
  H   H8        1.0  0.8924349647280041  0.8133817728348092  0.442187968560539  1.0000
  H   H9        1.0  0.7999828867326216  0.8145663268620779  0.7988185975524756  1.0000
  H   H10       1.0  0.29998533239602665  0.1854368197341856  0.7011810203545393  1.0000
  H   H11       1.0  0.20001637724710264  0.18543609594415505  0.20118284981838033  1.0000
  H   H12       1.0  0.7000161924300912  0.8145638256023275  0.2988162643232783  1.0000
  H   H13       1.0  0.7022988648958873  0.937733521874087  0.7698403940777183  1.0000
  H   H14       1.0  0.20229952023485254  0.06226875744496141  0.730160998265788  1.0000
  H   H15       1.0  0.2977003990889742  0.0622688918017573  0.23016255925323756  1.0000
  H   H16       1.0  0.79770200458902  0.9377309923091701  0.2698353345339299  1.0000
  H   H17       1.0  0.58457200818804  0.7022261168060737  0.5288480099949737  1.0000
  H   H18       1.0  0.0845794331801883  0.2977690220157924  0.9711506939909071  1.0000
  H   H19       1.0  0.41542612536014195  0.2977754104180406  0.471152485496134  1.0000
  H   H20       1.0  0.91542322209385  0.7022225944535307  0.028849119588379227  1.0000
  H   H21       1.0  0.7308236631260742  0.8004156668705776  0.5914799105340764  1.0000
  H   H22       1.0  0.2308331405997706  0.19958392579717102  0.9085164506470705  1.0000
  H   H23       1.0  0.2691756008549362  0.19958315534535137  0.40852074124458687  1.0000
  H   H24       1.0  0.7691740363763487  0.8004140145300765  0.09148099032491785  1.0000
  H   H25       1.0  0.325538623482565  0.750085075035649  0.5345412862747452  1.0000
  H   H26       1.0  0.8255408257423511  0.24991265849291716  0.9654572129620362  1.0000
  H   H27       1.0  0.6744629013570318  0.24991374717973971  0.4654593655072219  1.0000
  H   H28       1.0  0.17445956866603043  0.750084367992784  0.03454228804213235  1.0000
  H   H29       1.0  0.2830891607573278  0.6729631597351187  0.632269396705837  1.0000
  H   H30       1.0  0.7830916572069454  0.32703729447156593  0.8677295751141971  1.0000
  H   H31       1.0  0.7169146249402162  0.32703746277488216  0.36773165287553417  1.0000
  H   H32       1.0  0.21691325892278  0.6729624233254012  0.13227202855082956  1.0000
  H   H33       1.0  0.8523271064454931  0.6208376695920492  0.6449208835794309  1.0000
  H   H34       1.0  0.35232338701406724  0.37916905264373907  0.855079682951825  1.0000
  H   H35       1.0  0.1476698966785364  0.3791638485019532  0.35508111787012103  1.0000
  H   H36       1.0  0.647674746542137  0.6208315607372228  0.14492287258138248  1.0000
  H   H37       1.0  0.7066485605909635  0.5279157655873166  0.578549742356607  1.0000
  H   H38       1.0  0.2066416953805614  0.4720865116600451  0.9214516626933005  1.0000
  H   H39       1.0  0.2933507033887608  0.4720866572189166  0.42145170501424906  1.0000
  H   H40       1.0  0.7933530468813501  0.5279105148270063  0.07854783830260462  1.0000
  H   H41       1.0  0.3483795962909468  0.8795836498150538  0.7674676434299031  1.0000
  H   H42       1.0  0.8483805006917535  0.1204167869639434  0.7325292603401153  1.0000
  H   H43       1.0  0.6516207981100521  0.12041968683406877  0.2325317439005019  1.0000
  H   H44       1.0  0.1516198937076396  0.8795838538076383  0.267468777316097  1.0000
  H   H45       1.0  0.44354777393068184  0.9176159593037242  0.6612154093268359  1.0000
  H   H46       1.0  0.9435483554125383  0.08238353196153979  0.8387815737919696  1.0000
  H   H47       1.0  0.5564526204639008  0.08238379045067032  0.3387809234712265  1.0000
  H   H48       1.0  0.0564509085630149  0.9176161995323467  0.1612177709246367  1.0000
  C   C1        1.0  0.7302607339442629  0.9721111301415349  0.9868976674534339  1.0000
  C   C2        1.0  0.2302633796534863  0.027884821119137405  0.5131046733001199  1.0000
  C   C3        1.0  0.2697362691887549  0.027886773666580208  0.0131057973440747  1.0000
  C   C4        1.0  0.7697381451751966  0.9721158196521745  0.4868933643577479  1.0000
  C   C5        1.0  0.6289356720463884  0.8939446857904374  0.9136360323981806  1.0000
  C   C6        1.0  0.1289375124499443  0.10605313689273287  0.5863626450015859  1.0000
  C   C7        1.0  0.37106359193718674  0.10605413186029719  0.0863653723605324  1.0000
  C   C8        1.0  0.8710628819446313  0.8939466128616619  0.41363368779647663  1.0000
  C   C9        1.0  0.6891148641366343  0.8587376725266367  0.8017105170209433  1.0000
  C   C10       1.0  0.18911964899120898  0.1412655314845281  0.6982880237598224  1.0000
  C   C11       1.0  0.3108832694144398  0.1412629499847142  0.19829053255216422  1.0000
  C   C12       1.0  0.8108830062584289  0.8587369232772488  0.3017081527556442  1.0000
  C   C13       1.0  0.6661903340403655  0.7193143021345136  0.5933132774607728  1.0000
  C   C14       1.0  0.166193966932731  0.28068710337940667  0.9066863044568764  1.0000
  C   C15       1.0  0.33381006036897537  0.2806872205238733  0.40668797101368886  1.0000
  C   C16       1.0  0.8338064274759773  0.7193090229587185  0.09331299764924944  1.0000
  C   C17       1.0  0.29006601574867114  0.7626621526316985  0.6160804439687411  1.0000
  C   C18       1.0  0.7900654301316123  0.23733829824988817  0.883918548245319  1.0000
  C   C19       1.0  0.709935509090606  0.23733756973126677  0.3839204067112761  1.0000
  C   C20       1.0  0.2099338338490782  0.7626614241136166  0.1160823024313941  1.0000
  C   C21       1.0  0.8571591775382715  0.5913102839785652  0.4842012426010599  1.0000
  C   C22       1.0  0.3571587357165242  0.4086967592741431  0.01580067514984047  1.0000
  C   C23       1.0  0.14284121687363438  0.40869123411462727  0.5158007588534517  1.0000
  C   C24       1.0  0.6428405282606348  0.5913056680972844  0.9842000192409657  1.0000
  C   C25       1.0  0.1380334278245741  0.8118023898143603  0.6257085634256114  1.0000
  C   C26       1.0  0.6380261031455846  0.1881990382548295  0.8742894301923557  1.0000
  C   C27       1.0  0.8619692274401486  0.1881937410884191  0.3742899857037685  1.0000
  C   C28       1.0  0.361972030400679  0.8118006932393342  0.12570991452260216  1.0000
  C   C29       1.0  0.7715882452966979  0.6099820626486618  0.5797585547957453  1.0000
  C   C30       1.0  0.2715860756794299  0.3900219930666751  0.920241931963986  1.0000
  C   C31       1.0  0.228411018683353  0.390019460009995  0.4202426936770678  1.0000
  C   C32       1.0  0.728410927445559  0.6099768245845993  0.07975947279142301  1.0000
  C   C33       1.0  0.4031362443328064  0.8425553304504447  0.6917631782582562  1.0000
  C   C34       1.0  0.9031364513578097  0.1574441755137101  0.8082344396871193  1.0000
  C   C35       1.0  0.5968652805010137  0.1574453011904851  0.3082363653597113  1.0000
  C   C36       1.0  0.0968628126180704  0.8425546558326077  0.19176470613144397  1.0000
  C   C37       1.0  0.6260324927768933  0.3772810477349893  0.6755717353680453  1.0000
  C   C38       1.0  0.1260359372959101  0.62272217265199  0.8244288799142582  1.0000
  C   C39       1.0  0.373966771207968  0.6227213659408548  0.3244312179629106  1.0000
  C   C40       1.0  0.8739621962548368  0.37727935000693685  0.17557236855689948  1.0000
  S   S1        1.0  0.445922279466636  0.40848164240167506  0.6727135049834702  1.0000
  S   S2        1.0  0.9459261746294134  0.591521443756001  0.8272850336548744  1.0000
  S   S3        1.0  0.5540747236487249  0.5915225898306389  0.3272868342200823  1.0000
  S   S4        1.0  0.05407421977800202  0.4084782831724284  0.17271506404344453  1.0000
  N   N1        1.0  0.8099572330532183  0.0345078090347286  0.0471811329125131  1.0000
  N   N2        1.0  0.30995966031473193  0.9654866318262166  0.45282162716379304  1.0000
  N   N3        1.0  0.1900409005090893  0.9654900947731235  0.9528223318866509  1.0000
  N   N4        1.0  0.6900418645197348  0.03451219951956121  0.5471775186580743  1.0000
  N   N5        1.0  0.9246534671301916  0.5823942560063387  0.4071618598766378  1.0000
  N   N6        1.0  0.42464674725720636  0.41760824520538625  0.09284076667091772  1.0000
  N   N7        1.0  0.0753480577116576  0.4176054617914318  0.5928397437834292  1.0000
  N   N8        1.0  0.5753525167196258  0.5823950823136171  0.9071601266179385  1.0000
  N   N9        1.0  0.015682530420050998  0.8509466306614469  0.6345899807441883  1.0000
  N   N10       1.0  0.5156865364619633  0.14905393732079383  0.8654104681898929  1.0000
  N   N11       1.0  0.9843167335478  0.14905311452802286  0.3654071050322756  1.0000
  N   N12       1.0  0.48431498836961145  0.8509457987377544  0.13458812354997457  1.0000
  N   N13       1.0  0.7576077052671053  0.359188829366083  0.6770949549945727  1.0000
  N   N14       1.0  0.2576099688477171  0.6408125234395429  0.8229064001620898  1.0000
  N   N15       1.0  0.24239268915186332  0.6408144753266781  0.32290970319618856  1.0000
  N   N16       1.0  0.742388164700472  0.3591890037845786  0.17709409532901788  1.0000
